REMARK  Name = ZINC09138696
REMARK  6 active torsions:
REMARK  status: ('A' for Active; 'I' for Inactive)
REMARK    1  A    between atoms: C_1  and  C_2
REMARK    2  A    between atoms: C_8  and  N_10
REMARK    3  A    between atoms: C_14  and  C_16
REMARK    4  A    between atoms: C_16  and  S_17
REMARK    5  A    between atoms: S_17  and  C_18
REMARK    6  A    between atoms: N_30  and  C_31
REMARK                            x       y       z     vdW  Elec       q    Type
REMARK                         _______ _______ _______ _____ _____    ______ ____
ROOT
ATOM      1  C   UNL     1      -6.142   1.080   3.590  0.00  0.00    +0.173 C 
ENDROOT
BRANCH   1   6
ATOM      2  N   UNL     1      -2.119  -0.061   1.218  0.00  0.00    -0.296 N 
ATOM      3  C   UNL     1      -3.462   0.049   1.230  0.00  0.00    +0.306 C 
ATOM      4  O   UNL     1      -4.105  -0.243   0.240  0.00  0.00    -0.252 OA
ATOM      5  N   UNL     1      -4.093   0.484   2.339  0.00  0.00    -0.239 N 
ATOM      6  C   UNL     1      -5.436   0.594   2.350  0.00  0.00    +0.231 C 
ATOM      7  O   UNL     1      -6.077   0.303   1.363  0.00  0.00    -0.274 OA
ATOM      8  H   UNL     1      -1.606   0.172   2.008  0.00  0.00    +0.151 HD
ATOM      9  H   UNL     1      -3.580   0.717   3.128  0.00  0.00    +0.159 HD
BRANCH   2  16
ATOM     10  C   UNL     1      -0.019   1.526   0.010  0.00  0.00    +0.009 C 
ATOM     11  C   UNL     1       0.002  -0.004   0.002  0.00  0.00    +0.006 C 
ATOM     12  C   UNL     1       0.742  -0.511   1.242  0.00  0.00    +0.005 C 
ATOM     13  C   UNL     1       0.763  -2.041   1.233  0.00  0.00    +0.000 C 
ATOM     14  C   UNL     1      -0.673  -2.570   1.244  0.00  0.00    +0.002 C 
ATOM     15  C   UNL     1      -1.413  -2.063   0.004  0.00  0.00    +0.022 C 
ATOM     16  C   UNL     1      -1.433  -0.534   0.013  0.00  0.00    +0.077 C 
ENDBRANCH   2  16
ENDBRANCH   1   6
BRANCH   1  17
ATOM     17  S   UNL     1      -7.927   1.119   3.293  0.00  0.00    -0.078 S 
BRANCH  17  18
ATOM     18  C   UNL     1      -8.485   1.706   4.858  0.00  0.00    +0.173 A 
ATOM     19  N   UNL     1      -7.606   1.960   5.807  0.00  0.00    -0.216 NA
ATOM     20  C   UNL     1      -8.001   2.408   6.994  0.00  0.00    +0.117 A 
ATOM     21  C   UNL     1      -9.353   2.620   7.299  0.00  0.00    +0.076 A 
ATOM     22  C   UNL     1      -9.639   3.112   8.657  0.00  0.00    -0.023 A 
ATOM     23  C   UNL     1      -8.585   3.312   9.464  0.00  0.00    -0.004 A 
ATOM     24  S   UNL     1      -7.167   2.862   8.491  0.00  0.00    -0.073 S 
ATOM     25  C   UNL     1      -8.997   3.817  10.821  0.00  0.00    +0.043 C 
ATOM     26  C   UNL     1     -10.443   4.324  10.624  0.00  0.00    +0.010 C 
ATOM     27  C   UNL     1     -10.912   3.473   9.428  0.00  0.00    +0.037 C 
ATOM     28  C   UNL     1     -10.285   2.332   6.253  0.00  0.00    +0.263 A 
ATOM     29  O   UNL     1     -11.481   2.487   6.430  0.00  0.00    -0.267 OA
ATOM     30  N   UNL     1      -9.821   1.885   5.071  0.00  0.00    -0.290 N 
ATOM     31  C   UNL     1     -10.767   1.587   3.993  0.00  0.00    +0.154 C 
ENDBRANCH  17  18
ENDBRANCH   1  17
TORSDOF 4
