REMARK  Name = ZINC09512778
REMARK  9 active torsions:
REMARK  status: ('A' for Active; 'I' for Inactive)
REMARK    1  A    between atoms: C_1  and  C_2
REMARK    2  A    between atoms: C_2  and  C_4
REMARK    3  A    between atoms: C_2  and  S_20
REMARK    4  A    between atoms: N_6  and  C_7
REMARK    5  A    between atoms: C_7  and  C_8
REMARK    6  A    between atoms: N_10  and  C_11
REMARK    7  A    between atoms: S_20  and  C_21
REMARK    8  A    between atoms: C_24  and  C_32
REMARK    9  A    between atoms: N_25  and  C_26
REMARK                            x       y       z     vdW  Elec       q    Type
REMARK                         _______ _______ _______ _____ _____    ______ ____
ROOT
ATOM      1  C   UNL     1       3.895   7.507   0.427  0.00  0.00    +0.227 C 
ATOM      2  O   UNL     1       2.962   8.281   0.459  0.00  0.00    -0.275 OA
ATOM      3  N   UNL     1       3.669   6.183   0.312  0.00  0.00    -0.306 N 
ATOM      4  H   UNL     1       4.416   5.564   0.286  0.00  0.00    +0.149 HD
ENDROOT
BRANCH   1   6
ATOM      5  C   UNL     1       5.825   7.851   1.945  0.00  0.00    +0.029 C 
ATOM      6  C   UNL     1       5.308   8.025   0.516  0.00  0.00    +0.137 C 
BRANCH   6   7
ATOM      7  S   UNL     1       5.335   9.780   0.074  0.00  0.00    -0.073 S 
BRANCH   7   8
ATOM      8  C   UNL     1       7.071  10.078   0.112  0.00  0.00    +0.197 A 
ATOM      9  N   UNL     1       8.008   9.204   0.401  0.00  0.00    -0.122 NA
ATOM     10  N   UNL     1       9.164   9.761   0.329  0.00  0.00    -0.133 NA
ATOM     11  C   UNL     1       9.038  11.016   0.004  0.00  0.00    +0.142 A 
ATOM     12  N   UNL     1       7.699  11.265  -0.147  0.00  0.00    -0.274 N 
BRANCH  12  13
ATOM     13  C   UNL     1       7.098  12.484  -0.494  0.00  0.00    +0.050 A 
ATOM     14  C   UNL     1       7.331  13.043  -1.743  0.00  0.00    +0.026 A 
ATOM     15  C   UNL     1       6.733  14.241  -2.084  0.00  0.00    +0.002 A 
ATOM     16  C   UNL     1       5.912  14.888  -1.179  0.00  0.00    +0.000 A 
ATOM     17  C   UNL     1       5.683  14.336   0.068  0.00  0.00    +0.002 A 
ATOM     18  C   UNL     1       6.273  13.136   0.412  0.00  0.00    +0.026 A 
ENDBRANCH  12  13
BRANCH  11  19
ATOM     19  C   UNL     1      10.157  12.009  -0.175  0.00  0.00    +0.057 C 
ATOM     20  C   UNL     1      11.589  11.470  -0.158  0.00  0.00    +0.012 C 
ATOM     21  C   UNL     1      11.061  12.279   1.030  0.00  0.00    +0.012 C 
ENDBRANCH  11  19
ENDBRANCH   7   8
ENDBRANCH   6   7
ENDBRANCH   1   6
BRANCH   3  22
ATOM     22  C   UNL     1       2.296   5.679   0.225  0.00  0.00    +0.200 C 
BRANCH  22  23
ATOM     23  C   UNL     1       2.319   4.177   0.104  0.00  0.00    +0.234 C 
ATOM     24  O   UNL     1       3.378   3.586   0.091  0.00  0.00    -0.274 OA
ATOM     25  N   UNL     1       1.163   3.491   0.009  0.00  0.00    -0.282 N 
ATOM     26  H   UNL     1       0.321   3.967  -0.061  0.00  0.00    +0.155 HD
BRANCH  25  27
ATOM     27  C   UNL     1       1.178   2.090   0.013  0.00  0.00    +0.072 A 
ATOM     28  C   UNL     1       2.230   1.407   0.608  0.00  0.00    +0.029 A 
ATOM     29  C   UNL     1       2.244   0.026   0.611  0.00  0.00    +0.043 A 
ATOM     30  C   UNL     1       1.210  -0.680   0.022  0.00  0.00    +0.161 A 
ATOM     31  C   UNL     1       0.156  -0.003  -0.574  0.00  0.00    +0.195 A 
ATOM     32  C   UNL     1       0.139   1.381  -0.579  0.00  0.00    +0.182 A 
ATOM     33  F   UNL     1      -0.884   2.043  -1.163  0.00  0.00    -0.200 F 
ATOM     34  F   UNL     1      -0.852  -0.694  -1.149  0.00  0.00    -0.199 F 
ATOM     35  F   UNL     1       1.226  -2.031   0.026  0.00  0.00    -0.202 F 
ENDBRANCH  25  27
ENDBRANCH  22  23
ENDBRANCH   3  22
TORSDOF 8
