REMARK  Name = ZINC03105639
REMARK  5 active torsions:
REMARK  status: ('A' for Active; 'I' for Inactive)
REMARK    1  A    between atoms: C_1  and  C_2
REMARK    2  A    between atoms: C_3  and  C_11
REMARK    3  A    between atoms: C_7  and  N_8
REMARK    4  A    between atoms: N_13  and  C_14
REMARK    5  A    between atoms: C_19  and  N_20
REMARK                            x       y       z     vdW  Elec       q    Type
REMARK                         _______ _______ _______ _____ _____    ______ ____
ROOT
ATOM      1  C   UNL     1       0.780   4.141   4.519  0.00  0.00    +0.249 C 
ATOM      2  O   UNL     1       0.919   3.866   5.695  0.00  0.00    -0.270 OA
ATOM      3  N   UNL     1       0.679   3.156   3.604  0.00  0.00    -0.280 N 
ATOM      4  H   UNL     1       0.632   3.374   2.660  0.00  0.00    +0.155 HD
ENDROOT
BRANCH   1   7
ATOM      5  C   UNL     1       0.705   6.236   6.514  0.00  0.00    +0.047 C 
ATOM      6  C   UNL     1       0.684   6.574   5.046  0.00  0.00    -0.008 A 
ATOM      7  C   UNL     1       0.721   5.555   4.093  0.00  0.00    +0.042 A 
ATOM      8  C   UNL     1       0.695   5.877   2.735  0.00  0.00    +0.013 A 
ATOM      9  C   UNL     1       0.640   7.199   2.343  0.00  0.00    +0.003 A 
ATOM     10  C   UNL     1       0.610   8.204   3.293  0.00  0.00    +0.033 A 
ATOM     11  C   UNL     1       0.634   7.892   4.641  0.00  0.00    +0.130 A 
BRANCH  11  12
ATOM     12  N   UNL     1       0.601   8.974   5.651  0.00  0.00    +0.057 N 
ATOM     13  O   UNL     1       0.423  10.127   5.301  0.00  0.00    -0.126 OA
ATOM     14  O   UNL     1       0.750   8.711   6.830  0.00  0.00    -0.126 OA
ENDBRANCH  11  12
ENDBRANCH   1   7
BRANCH   3  15
ATOM     15  C   UNL     1       0.643   1.818   4.017  0.00  0.00    +0.056 A 
ATOM     16  C   UNL     1       1.230   1.444   5.217  0.00  0.00    +0.025 A 
ATOM     17  C   UNL     1       1.194   0.124   5.623  0.00  0.00    +0.003 A 
ATOM     18  C   UNL     1       0.573  -0.829   4.836  0.00  0.00    +0.022 A 
ATOM     19  C   UNL     1      -0.019  -0.465   3.640  0.00  0.00    +0.064 A 
ATOM     20  C   UNL     1       0.017   0.858   3.223  0.00  0.00    +0.070 A 
ATOM     21 CL   UNL     1      -0.803  -1.663   2.659  0.00  0.00    -0.082 Cl
BRANCH  20  22
ATOM     22  N   UNL     1      -0.577   1.229   2.011  0.00  0.00    -0.327 N 
ATOM     23  C   UNL     1      -2.027   0.997   2.043  0.00  0.00    +0.105 C 
ATOM     24  C   UNL     1      -2.661   1.546   0.763  0.00  0.00    +0.019 C 
ATOM     25  C   UNL     1      -2.040   0.847  -0.449  0.00  0.00    +0.003 C 
ATOM     26  C   UNL     1      -0.524   1.063  -0.432  0.00  0.00    +0.019 C 
ATOM     27  C   UNL     1       0.048   0.528   0.882  0.00  0.00    +0.105 C 
ENDBRANCH  20  22
ENDBRANCH   3  15
TORSDOF 4
