REMARK  Name = ZINC20291966
REMARK  8 active torsions:
REMARK  status: ('A' for Active; 'I' for Inactive)
REMARK    1  A    between atoms: C_3  and  N_8
REMARK    2  A    between atoms: C_9  and  C_11
REMARK    3  A    between atoms: C_11  and  S_12
REMARK    4  A    between atoms: S_12  and  C_13
REMARK    5  A    between atoms: N_17  and  N_18
REMARK    6  A    between atoms: N_19  and  N_20
REMARK    7  A    between atoms: C_21  and  C_22
REMARK    8  A    between atoms: C_25  and  N_28
REMARK                            x       y       z     vdW  Elec       q    Type
REMARK                         _______ _______ _______ _____ _____    ______ ____
ROOT
ATOM      1  C   UNL     1       8.773   2.071   0.381  0.00  0.00    +0.210 A 
ATOM      2  N   UNL     1       8.770   3.422   0.395  0.00  0.00    -0.119 NA
ATOM      3  N   UNL     1       9.977   3.854   0.490  0.00  0.00    -0.109 NA
ATOM      4  C   UNL     1      10.828   2.809   0.543  0.00  0.00    +0.254 A 
ATOM      5  N   UNL     1      10.074   1.664   0.479  0.00  0.00    -0.211 N 
ATOM      6  N   UNL     1      12.159   2.876   0.643  0.00  0.00    -0.204 N 
ATOM      7  H   UNL     1      12.685   2.061   0.673  0.00  0.00    +0.177 HD
ENDROOT
BRANCH   5   8
ATOM      8  N   UNL     1      10.532   0.377   0.506  0.00  0.00    -0.294 N 
ATOM      9  H   UNL     1      10.726   0.043  -0.426  0.00  0.00    +0.163 HD
ATOM     10  H   UNL     1      11.345   0.295   1.097  0.00  0.00    +0.163 HD
ENDBRANCH   5   8
BRANCH   6  11
ATOM     11  N   UNL     1      12.745   4.024   0.699  0.00  0.00    -0.188 NA
ATOM     12  C   UNL     1      14.054   4.090   0.797  0.00  0.00    +0.138 C 
BRANCH  12  13
ATOM     13  C   UNL     1      14.719   5.393   0.861  0.00  0.00    -0.005 A 
ATOM     14  C   UNL     1      13.962   6.575   0.823  0.00  0.00    +0.012 A 
ATOM     15  C   UNL     1      14.597   7.795   0.883  0.00  0.00    +0.033 A 
ATOM     16  C   UNL     1      15.978   7.860   0.980  0.00  0.00    +0.126 A 
ATOM     17  C   UNL     1      16.734   6.699   1.018  0.00  0.00    +0.033 A 
ATOM     18  C   UNL     1      16.117   5.468   0.966  0.00  0.00    +0.012 A 
BRANCH  16  19
ATOM     19  N   UNL     1      16.650   9.177   1.044  0.00  0.00    +0.056 N 
ATOM     20  O   UNL     1      15.936  10.283   1.007  0.00  0.00    -0.126 OA
ATOM     21  O   UNL     1      17.962   9.243   1.136  0.00  0.00    -0.126 OA
ENDBRANCH  16  19
ENDBRANCH  12  13
ENDBRANCH   6  11
BRANCH   1  22
ATOM     22  S   UNL     1       7.441   1.087   0.271  0.00  0.00    -0.075 S 
BRANCH  22  23
ATOM     23  C   UNL     1       6.047   2.244   0.171  0.00  0.00    +0.173 C 
BRANCH  23  25
ATOM     24  N   UNL     1       3.584   2.125  -0.021  0.00  0.00    -0.285 N 
ATOM     25  C   UNL     1       4.758   1.470   0.066  0.00  0.00    +0.227 C 
ATOM     26  O   UNL     1       4.778   0.257   0.060  0.00  0.00    -0.275 OA
ATOM     27  H   UNL     1       3.572   3.092  -0.093  0.00  0.00    +0.155 HD
BRANCH  24  30
ATOM     28  C   UNL     1       1.085  -0.461   0.750  0.00  0.00    +0.003 A 
ATOM     29  C   UNL     1       2.274   0.243   0.738  0.00  0.00    +0.023 A 
ATOM     30  C   UNL     1       2.381   1.410  -0.007  0.00  0.00    +0.034 A 
ATOM     31  C   UNL     1       1.292   1.866  -0.738  0.00  0.00    +0.038 A 
ATOM     32  C   UNL     1       0.106   1.158  -0.722  0.00  0.00    +0.020 A 
ATOM     33  C   UNL     1       0.002  -0.004   0.022  0.00  0.00    +0.015 A 
ATOM     34 BR   UNL     1      -1.378   1.778  -1.717  0.00  0.00    -0.050 Br
ENDBRANCH  24  30
ENDBRANCH  23  25
ENDBRANCH  22  23
ENDBRANCH   1  22
TORSDOF 8
