REMARK  Name = ZINC50170713
REMARK  7 active torsions:
REMARK  status: ('A' for Active; 'I' for Inactive)
REMARK    1  A    between atoms: C_1  and  C_2
REMARK    2  A    between atoms: C_2  and  C_3
REMARK    3  A    between atoms: C_2  and  C_4
REMARK    4  A    between atoms: C_10  and  C_13
REMARK    5  A    between atoms: N_15  and  N_16
REMARK    6  A    between atoms: C_17  and  C_19
REMARK    7  A    between atoms: C_28  and  O_29
REMARK                            x       y       z     vdW  Elec       q    Type
REMARK                         _______ _______ _______ _____ _____    ______ ____
ROOT
ATOM      1  N   UNL     1       3.192   0.393   7.828  0.00  0.00    -0.230 N 
ATOM      2  C   UNL     1       3.495   1.276   8.800  0.00  0.00    +0.264 C 
ATOM      3  O   UNL     1       3.170   2.442   8.685  0.00  0.00    -0.269 OA
ATOM      4  H   UNL     1       3.451  -0.537   7.920  0.00  0.00    +0.173 HD
ENDROOT
BRANCH   2   5
ATOM      5  C   UNL     1       4.221   0.828  10.004  0.00  0.00    +0.080 A 
ATOM      6  C   UNL     1       4.594  -0.501  10.128  0.00  0.00    +0.025 A 
ATOM      7  C   UNL     1       5.284  -0.921  11.274  0.00  0.00    -0.017 A 
ATOM      8  C   UNL     1       5.678  -2.262  11.433  0.00  0.00    +0.008 A 
ATOM      9  C   UNL     1       6.346  -2.639  12.556  0.00  0.00    +0.001 A 
ATOM     10  C   UNL     1       6.647  -1.716  13.556  0.00  0.00    +0.001 A 
ATOM     11  C   UNL     1       6.282  -0.410  13.438  0.00  0.00    +0.008 A 
ATOM     12  C   UNL     1       5.590   0.019  12.292  0.00  0.00    -0.014 A 
ATOM     13  C   UNL     1       5.201   1.360  12.142  0.00  0.00    +0.054 A 
ATOM     14  C   UNL     1       4.536   1.756  11.019  0.00  0.00    +0.130 A 
BRANCH  14  15
ATOM     15  O   UNL     1       4.168   3.055  10.878  0.00  0.00    -0.506 OA
ATOM     16  H   UNL     1       3.292   3.256  11.236  0.00  0.00    +0.292 HD
ENDBRANCH  14  15
ENDBRANCH   2   5
BRANCH   1  19
ATOM     17  C   UNL     1       2.200  -0.065   5.713  0.00  0.00    +0.234 C 
ATOM     18  O   UNL     1       2.524  -1.228   5.827  0.00  0.00    -0.274 OA
ATOM     19  N   UNL     1       2.502   0.818   6.685  0.00  0.00    -0.234 N 
ATOM     20  H   UNL     1       2.243   1.748   6.593  0.00  0.00    +0.173 HD
BRANCH  17  27
ATOM     21  C   UNL     1       0.810  -0.560   1.146  0.00  0.00    +0.218 C 
ATOM     22  O   UNL     1       1.826  -1.185   0.924  0.00  0.00    -0.275 OA
ATOM     23  N   UNL     1       0.404  -0.363   2.416  0.00  0.00    -0.301 N 
ATOM     24  C   UNL     1      -0.881   0.290   2.698  0.00  0.00    +0.108 C 
ATOM     25  C   UNL     1      -0.638   1.469   3.646  0.00  0.00    +0.020 C 
ATOM     26  C   UNL     1       0.102   0.973   4.891  0.00  0.00    +0.016 C 
ATOM     27  C   UNL     1       1.458   0.393   4.483  0.00  0.00    +0.094 C 
ATOM     28  C   UNL     1       1.236  -0.803   3.545  0.00  0.00    +0.120 C 
BRANCH  21  30
ATOM     29  C   UNL     1       0.378   1.462  -0.223  0.00  0.00    +0.017 C 
ATOM     30  C   UNL     1       0.002  -0.004   0.002  0.00  0.00    +0.069 C 
ATOM     31  C   UNL     1       0.296  -0.806  -1.267  0.00  0.00    +0.017 C 
ENDBRANCH  21  30
ENDBRANCH  17  27
ENDBRANCH   1  19
TORSDOF 5
