REMARK  Name = ZINC04912047
REMARK  9 active torsions:
REMARK  status: ('A' for Active; 'I' for Inactive)
REMARK    1  A    between atoms: C_1  and  C_2
REMARK    2  A    between atoms: C_2  and  C_3
REMARK    3  A    between atoms: C_3  and  C_4
REMARK    4  A    between atoms: C_4  and  C_5
REMARK    5  A    between atoms: C_5  and  O_6
REMARK    6  A    between atoms: O_6  and  C_7
REMARK    7  A    between atoms: C_7  and  C_9
REMARK    8  A    between atoms: C_10  and  C_26
REMARK    9  A    between atoms: C_16  and  C_21
REMARK                            x       y       z     vdW  Elec       q    Type
REMARK                         _______ _______ _______ _____ _____    ______ ____
ROOT
ATOM      1  C   UNL     1      -4.079  -6.116   0.008  0.00  0.00    +0.128 A 
ATOM      2  C   UNL     1      -5.219  -6.872   0.009  0.00  0.00    -0.008 A 
ATOM      3  C   UNL     1      -4.811  -8.211   0.000  0.00  0.00    +0.042 A 
ATOM      4  C   UNL     1      -3.416  -8.230  -0.004  0.00  0.00    +0.028 A 
ATOM      5  N   UNL     1      -2.989  -6.967  -0.007  0.00  0.00    -0.352 N 
ATOM      6  H   UNL     1      -2.060  -6.689  -0.016  0.00  0.00    +0.166 HD
ATOM      7  C   UNL     1      -2.615  -9.507  -0.008  0.00  0.00    +0.065 C 
ATOM      8  C   UNL     1      -3.494 -10.655   0.497  0.00  0.00    +0.068 C 
ATOM      9  C   UNL     1      -4.806 -10.720  -0.291  0.00  0.00    +0.091 C 
ATOM     10  C   UNL     1      -5.599  -9.453  -0.007  0.00  0.00    +0.166 C 
ATOM     11  O   UNL     1      -6.795  -9.467   0.198  0.00  0.00    -0.292 OA
ATOM     12  C   UNL     1      -6.637  -6.362   0.019  0.00  0.00    +0.047 C 
ENDROOT
BRANCH   8  13
ATOM     13  C   UNL     1      -2.752 -11.957   0.332  0.00  0.00    +0.109 A 
ATOM     14  C   UNL     1      -2.428 -12.808   1.321  0.00  0.00    +0.045 A 
ATOM     15  C   UNL     1      -1.743 -13.891   0.723  0.00  0.00    +0.041 A 
ATOM     16  C   UNL     1      -1.690 -13.636  -0.597  0.00  0.00    +0.195 A 
ATOM     17  O   UNL     1      -2.308 -12.466  -0.829  0.00  0.00    -0.468 OA
ENDBRANCH   8  13
BRANCH   1  18
ATOM     18  C   UNL     1      -4.022  -4.651   0.015  0.00  0.00    +0.356 C 
ATOM     19  O   UNL     1      -5.050  -4.002   0.029  0.00  0.00    -0.243 OA
BRANCH  18  20
ATOM     20  O   UNL     1      -2.829  -4.022   0.007  0.00  0.00    -0.460 OA
BRANCH  20  21
ATOM     21  C   UNL     1      -2.848  -2.593   0.015  0.00  0.00    +0.232 C 
BRANCH  21  22
ATOM     22  C   UNL     1      -1.413  -2.063   0.004  0.00  0.00    +0.041 C 
BRANCH  22  23
ATOM     23  C   UNL     1      -1.433  -0.534   0.013  0.00  0.00    +0.003 C 
BRANCH  23  25
ATOM     24  C   UNL     1      -0.019   1.526   0.010  0.00  0.00    +0.004 C 
ATOM     25  C   UNL     1       0.002  -0.004   0.002  0.00  0.00    -0.003 C 
ENDBRANCH  23  25
ENDBRANCH  22  23
ENDBRANCH  21  22
ENDBRANCH  20  21
ENDBRANCH  18  20
ENDBRANCH   1  18
TORSDOF 7
