REMARK  Name = ZINC40323068
REMARK  11 active torsions:
REMARK  status: ('A' for Active; 'I' for Inactive)
REMARK    1  A    between atoms: C_1  and  C_2
REMARK    2  A    between atoms: C_2  and  N_3
REMARK    3  A    between atoms: N_3  and  C_4
REMARK    4  A    between atoms: N_3  and  C_6
REMARK    5  A    between atoms: C_4  and  C_5
REMARK    6  A    between atoms: C_6  and  C_8
REMARK    7  A    between atoms: C_6  and  C_27
REMARK    8  A    between atoms: C_8  and  N_9
REMARK    9  A    between atoms: C_10  and  C_12
REMARK   10  A    between atoms: C_15  and  S_17
REMARK   11  A    between atoms: S_17  and  C_20
REMARK                            x       y       z     vdW  Elec       q    Type
REMARK                         _______ _______ _______ _____ _____    ______ ____
ROOT
ATOM      1  N   UNL     1      -3.456  -1.782  -1.040  0.00  0.00    -0.310 N 
ATOM      2  C   UNL     1      -4.799  -1.838  -1.139  0.00  0.00    +0.279 C 
ATOM      3  O   UNL     1      -5.466  -2.177  -0.180  0.00  0.00    -0.267 OA
ATOM      4  H   UNL     1      -2.928  -1.442  -1.780  0.00  0.00    +0.149 HD
ENDROOT
BRANCH   2   5
ATOM      5  C   UNL     1      -5.455  -1.489  -2.404  0.00  0.00    +0.192 A 
ATOM      6  C   UNL     1      -6.802  -1.408  -2.612  0.00  0.00    +0.056 A 
ATOM      7  C   UNL     1      -6.981  -1.047  -3.957  0.00  0.00    +0.070 A 
ATOM      8  C   UNL     1      -5.752  -0.925  -4.503  0.00  0.00    +0.246 A 
ATOM      9  O   UNL     1      -4.835  -1.187  -3.563  0.00  0.00    -0.433 OA
BRANCH   8  10
ATOM     10  S   UNL     1      -5.410  -0.487  -6.175  0.00  0.00    +0.058 S 
ATOM     11  O   UNL     1      -4.120  -1.002  -6.474  0.00  0.00    -0.161 OA
ATOM     12  O   UNL     1      -6.563  -0.835  -6.929  0.00  0.00    -0.161 OA
BRANCH  10  13
ATOM     13  C   UNL     1      -5.279   1.269  -6.238  0.00  0.00    +0.097 A 
ATOM     14  C   UNL     1      -6.402   2.038  -6.475  0.00  0.00    +0.028 A 
ATOM     15  C   UNL     1      -6.300   3.415  -6.524  0.00  0.00    +0.017 A 
ATOM     16  C   UNL     1      -5.072   4.024  -6.335  0.00  0.00    +0.018 A 
ATOM     17  C   UNL     1      -3.948   3.254  -6.097  0.00  0.00    +0.017 A 
ATOM     18  C   UNL     1      -4.053   1.877  -6.043  0.00  0.00    +0.028 A 
ATOM     19 BR   UNL     1      -4.931   5.909  -6.402  0.00  0.00    -0.050 Br
ENDBRANCH  10  13
ENDBRANCH   8  10
ENDBRANCH   2   5
BRANCH   1  20
ATOM     20  C   UNL     1      -2.793  -2.234   0.186  0.00  0.00    +0.094 C 
BRANCH  20  21
ATOM     21  C   UNL     1      -1.293  -1.946   0.090  0.00  0.00    -0.013 C 
BRANCH  21  22
ATOM     22  C   UNL     1      -0.627  -2.312   1.391  0.00  0.00    -0.022 A 
ATOM     23  C   UNL     1       0.297  -3.274   1.636  0.00  0.00    +0.009 A 
ATOM     24  C   UNL     1       0.774  -3.432   2.924  0.00  0.00    +0.008 A 
ATOM     25  C   UNL     1       0.304  -2.622   3.904  0.00  0.00    +0.045 A 
ATOM     26  S   UNL     1      -0.844  -1.588   3.009  0.00  0.00    -0.103 S 
ENDBRANCH  21  22
BRANCH  21  27
ATOM     27  N   UNL     1      -1.085  -0.517  -0.181  0.00  0.00    +0.385 N 
ATOM     28  H   UNL     1      -1.514  -0.276  -1.062  0.00  0.00    -0.081 HD
BRANCH  27  30
ATOM     29  C   UNL     1      -1.608   1.765   0.539  0.00  0.00    -0.017 C 
ATOM     30  C   UNL     1      -1.692   0.279   0.894  0.00  0.00    -0.081 C 
ENDBRANCH  27  30
BRANCH  27  31
ATOM     31  C   UNL     1       0.355  -0.235  -0.245  0.00  0.00    -0.081 C 
ATOM     32  C   UNL     1       0.961  -0.946  -1.457  0.00  0.00    -0.017 C 
ENDBRANCH  27  31
ENDBRANCH  21  27
ENDBRANCH  20  21
ENDBRANCH   1  20
TORSDOF 9
