REMARK  Name = ZINC64900299
REMARK  5 active torsions:
REMARK  status: ('A' for Active; 'I' for Inactive)
REMARK    1  A    between atoms: C_1  and  N_2
REMARK    2  A    between atoms: N_2  and  C_3
REMARK    3  A    between atoms: C_10  and  C_12
REMARK    4  A    between atoms: N_14  and  N_15
REMARK    5  A    between atoms: N_18  and  C_19
REMARK                            x       y       z     vdW  Elec       q    Type
REMARK                         _______ _______ _______ _____ _____    ______ ____
ROOT
ATOM      1  C   UNL     1      -0.016  -3.312  -6.942  0.00  0.00    +0.267 C 
ATOM      2  O   UNL     1      -0.005  -4.529  -7.004  0.00  0.00    -0.268 OA
ATOM      3  N   UNL     1      -0.030  -2.580  -8.073  0.00  0.00    -0.229 N 
ATOM      4  H   UNL     1      -0.039  -1.611  -8.023  0.00  0.00    +0.173 HD
ENDROOT
BRANCH   1  14
ATOM      5  C   UNL     1      -0.018   1.461   0.010  0.00  0.00    +0.131 C 
ATOM      6  N   UNL     1       0.002  -0.004   0.002  0.00  0.00    -0.316 N 
ATOM      7  C   UNL     1       0.024  -0.743   1.267  0.00  0.00    +0.131 C 
ATOM      8  C   UNL     1       0.000  -0.688  -1.197  0.00  0.00    +0.162 A 
ATOM      9  N   UNL     1      -0.012  -0.209  -2.425  0.00  0.00    -0.218 NA
ATOM     10  C   UNL     1      -0.013  -0.999  -3.492  0.00  0.00    +0.118 A 
ATOM     11  C   UNL     1       0.001  -2.389  -3.276  0.00  0.00    +0.049 A 
ATOM     12  S   UNL     1       0.021  -2.449  -1.486  0.00  0.00    -0.052 S 
ATOM     13  C   UNL     1       0.000  -3.213  -4.380  0.00  0.00    +0.038 A 
ATOM     14  C   UNL     1      -0.013  -2.647  -5.641  0.00  0.00    +0.078 A 
ATOM     15  S   UNL     1      -0.025  -0.902  -5.279  0.00  0.00    -0.063 S 
ENDBRANCH   1  14
BRANCH   3  16
ATOM     16  N   UNL     1      -0.033  -3.217  -9.320  0.00  0.00    -0.218 N 
ATOM     17  C   UNL     1      -0.047  -2.485 -10.451  0.00  0.00    +0.316 C 
ATOM     18  O   UNL     1      -0.049  -3.038 -11.534  0.00  0.00    -0.251 OA
ATOM     19  N   UNL     1      -0.059  -1.139 -10.383  0.00  0.00    -0.295 N 
ATOM     20  H   UNL     1      -0.024  -4.186  -9.370  0.00  0.00    +0.174 HD
ATOM     21  H   UNL     1      -0.057  -0.697  -9.519  0.00  0.00    +0.151 HD
BRANCH  19  22
ATOM     22  C   UNL     1      -0.075  -0.343 -11.612  0.00  0.00    +0.075 C 
ATOM     23  C   UNL     1       0.850   0.875 -11.677  0.00  0.00    +0.024 C 
ATOM     24  C   UNL     1      -0.661   1.069 -11.533  0.00  0.00    +0.024 C 
ENDBRANCH  19  22
ENDBRANCH   3  16
TORSDOF 3
