REMARK  Name = ZINC08767889
REMARK  9 active torsions:
REMARK  status: ('A' for Active; 'I' for Inactive)
REMARK    1  A    between atoms: C_1  and  C_2
REMARK    2  A    between atoms: C_7  and  N_8
REMARK    3  A    between atoms: C_9  and  C_11
REMARK    4  A    between atoms: C_11  and  S_12
REMARK    5  A    between atoms: S_12  and  C_13
REMARK    6  A    between atoms: C_30  and  C_32
REMARK    7  A    between atoms: C_30  and  C_33
REMARK    8  A    between atoms: C_35  and  S_37
REMARK    9  A    between atoms: S_37  and  C_38
REMARK                            x       y       z     vdW  Elec       q    Type
REMARK                         _______ _______ _______ _____ _____    ______ ____
ROOT
ATOM      1  C   UNL     1       4.220   4.657  -0.037  0.00  0.00    +0.116 A 
ATOM      2  C   UNL     1       3.216   3.698  -0.027  0.00  0.00    +0.072 A 
ATOM      3  C   UNL     1       3.521   2.333  -0.070  0.00  0.00    +0.093 A 
ATOM      4  C   UNL     1       2.368   1.414  -0.052  0.00  0.00    +0.035 A 
ATOM      5  C   UNL     1       2.393  -0.002  -0.083  0.00  0.00    -0.024 A 
ATOM      6  C   UNL     1       1.224  -0.695  -0.058  0.00  0.00    +0.020 A 
ATOM      7  C   UNL     1       0.007  -0.006  -0.010  0.00  0.00    +0.105 A 
ATOM      8  C   UNL     1       1.100   2.018  -0.001  0.00  0.00    +0.089 A 
ATOM      9  S   UNL     1       1.446   3.760   0.030  0.00  0.00    -0.066 S 
ATOM     10  N   UNL     1      -1.187  -0.715   0.009  0.00  0.00    -0.312 N 
ATOM     11  C   UNL     1      -2.036  -0.348  -1.133  0.00  0.00    +0.134 C 
ATOM     12  C   UNL     1      -3.312  -1.194  -1.105  0.00  0.00    +0.178 C 
ATOM     13  O   UNL     1      -3.977  -1.005   0.147  0.00  0.00    -0.377 OA
ATOM     14  C   UNL     1      -3.178  -1.354   1.281  0.00  0.00    +0.178 C 
ATOM     15  C   UNL     1      -1.901  -0.509   1.278  0.00  0.00    +0.134 C 
ATOM     16  C   UNL     1       1.201  -2.202  -0.073  0.00  0.00    +0.199 C 
ATOM     17  O   UNL     1       2.467  -2.711  -0.493  0.00  0.00    -0.369 OA
ATOM     18  C   UNL     1       3.567  -2.164   0.243  0.00  0.00    +0.068 C 
ATOM     19  C   UNL     1       3.728  -0.694  -0.149  0.00  0.00    +0.070 C 
ATOM     20  C   UNL     1       4.847  -2.932  -0.097  0.00  0.00    +0.041 C 
ATOM     21  C   UNL     1       3.287  -2.269   1.744  0.00  0.00    +0.041 C 
ATOM     22  N   UNL     1       4.835   2.017  -0.122  0.00  0.00    -0.221 NA
ATOM     23  C   UNL     1       5.764   2.950  -0.130  0.00  0.00    +0.190 A 
ATOM     24  N   UNL     1       5.487   4.248  -0.089  0.00  0.00    -0.214 NA
ATOM     25  N   UNL     1      -0.082   1.354   0.019  0.00  0.00    -0.337 N 
ATOM     26  H   UNL     1      -0.984   1.843   0.054  0.00  0.00    +0.168 HD
ENDROOT
BRANCH  23  27
ATOM     27  S   UNL     1       7.453   2.454  -0.199  0.00  0.00    -0.089 S 
ATOM     28  C   UNL     1       8.258   4.075  -0.186  0.00  0.00    +0.093 C 
ENDBRANCH  23  27
BRANCH   1  29
ATOM     29  S   UNL     1       3.828   6.374   0.018  0.00  0.00    -0.095 S 
BRANCH  29  30
ATOM     30  C   UNL     1       5.495   7.078  -0.020  0.00  0.00    +0.172 C 
BRANCH  30  32
ATOM     31  N   UNL     1       6.530   9.324   0.001  0.00  0.00    -0.285 N 
ATOM     32  C   UNL     1       5.406   8.582   0.019  0.00  0.00    +0.227 C 
ATOM     33  O   UNL     1       4.322   9.124   0.068  0.00  0.00    -0.275 OA
ATOM     34  H   UNL     1       7.394   8.894  -0.097  0.00  0.00    +0.155 HD
BRANCH  31  41
ATOM     35  C   UNL     1       8.791  10.713   1.030  0.00  0.00    +0.045 C 
ATOM     36  C   UNL     1       7.532  11.433   0.620  0.00  0.00    -0.029 A 
ATOM     37  C   UNL     1       7.452  12.807   0.738  0.00  0.00    +0.005 A 
ATOM     38  C   UNL     1       6.298  13.468   0.361  0.00  0.00    +0.000 A 
ATOM     39  C   UNL     1       5.220  12.757  -0.135  0.00  0.00    +0.002 A 
ATOM     40  C   UNL     1       5.296  11.384  -0.261  0.00  0.00    +0.023 A 
ATOM     41  C   UNL     1       6.452  10.716   0.122  0.00  0.00    +0.036 A 
ENDBRANCH  31  41
ENDBRANCH  30  32
ENDBRANCH  29  30
ENDBRANCH   1  29
TORSDOF 5
