REMARK  Name = ZINC05009856
REMARK  4 active torsions:
REMARK  status: ('A' for Active; 'I' for Inactive)
REMARK    1  A    between atoms: C_3  and  C_10
REMARK    2  A    between atoms: C_5  and  N_7
REMARK    3  A    between atoms: N_15  and  N_16
REMARK    4  A    between atoms: N_16  and  C_17
REMARK                            x       y       z     vdW  Elec       q    Type
REMARK                         _______ _______ _______ _____ _____    ______ ____
ROOT
ATOM      1  C   UNL     1      -0.070   5.327   0.030  0.00  0.00    +0.080 A 
ATOM      2  C   UNL     1       1.093   6.034  -0.081  0.00  0.00    +0.077 A 
ATOM      3  S   UNL     1       0.474   7.709  -0.015  0.00  0.00    -0.059 S 
ATOM      4  C   UNL     1      -1.258   7.303   0.153  0.00  0.00    +0.175 A 
ATOM      5  N   UNL     1      -1.223   5.984   0.139  0.00  0.00    -0.224 NA
ATOM      6  N   UNL     1      -2.350   8.149   0.263  0.00  0.00    -0.245 N 
ATOM      7  H   UNL     1      -3.362   7.731   0.360  0.00  0.00    +0.172 HD
ENDROOT
BRANCH   1  10
ATOM      8  C   UNL     1       1.177   1.781   0.000  0.00  0.00    +0.003 A 
ATOM      9  C   UNL     1       1.165   3.161   0.007  0.00  0.00    +0.010 A 
ATOM     10  C   UNL     1      -0.050   3.844   0.023  0.00  0.00    +0.003 A 
ATOM     11  C   UNL     1      -1.246   3.128   0.031  0.00  0.00    +0.042 A 
ATOM     12  C   UNL     1      -1.222   1.749   0.017  0.00  0.00    +0.127 A 
ATOM     13  C   UNL     1      -0.013   1.076   0.008  0.00  0.00    +0.033 A 
BRANCH  12  14
ATOM     14  N   UNL     1      -2.491   0.987   0.019  0.00  0.00    +0.056 N 
ATOM     15  O   UNL     1      -2.470  -0.231   0.013  0.00  0.00    -0.126 OA
ATOM     16  O   UNL     1      -3.556   1.578   0.028  0.00  0.00    -0.126 OA
ENDBRANCH  12  14
ENDBRANCH   1  10
BRANCH   6  17
ATOM     17  N   UNL     1      -2.164   9.538   0.249  0.00  0.00    -0.272 N 
ATOM     18  H   UNL     1      -1.151   9.956   0.152  0.00  0.00    +0.169 HD
BRANCH  17  19
ATOM     19  C   UNL     1      -3.221  10.357   0.356  0.00  0.00    +0.099 C 
ATOM     20  C   UNL     1      -3.035  11.742   0.343  0.00  0.00    +0.037 C 
ATOM     21  C   UNL     1      -1.742  12.296   0.224  0.00  0.00    +0.013 C 
ATOM     22  C   UNL     1      -1.582  13.646   0.208  0.00  0.00    +0.001 C 
ATOM     23  C   UNL     1      -2.669  14.508   0.317  0.00  0.00    +0.004 C 
ATOM     24  C   UNL     1      -3.941  14.039   0.440  0.00  0.00    +0.051 C 
ATOM     25  C   UNL     1      -4.181  12.654   0.458  0.00  0.00    +0.187 C 
ATOM     26  O   UNL     1      -5.318  12.217   0.567  0.00  0.00    -0.287 OA
ENDBRANCH  17  19
ENDBRANCH   6  17
TORSDOF 4
