REMARK  Name = ZINC23268953
REMARK  7 active torsions:
REMARK  status: ('A' for Active; 'I' for Inactive)
REMARK    1  A    between atoms: C_4  and  C_7
REMARK    2  A    between atoms: C_7  and  N_8
REMARK    3  A    between atoms: C_9  and  C_11
REMARK    4  A    between atoms: C_11  and  N_12
REMARK    5  A    between atoms: N_15  and  C_18
REMARK    6  A    between atoms: C_18  and  C_19
REMARK    7  A    between atoms: C_24  and  O_25
REMARK                            x       y       z     vdW  Elec       q    Type
REMARK                         _______ _______ _______ _____ _____    ______ ____
ROOT
ATOM      1  N   UNL     1       7.046  -2.570   2.967  0.00  0.00    -0.298 NA
ATOM      2  C   UNL     1       8.113  -1.728   2.408  0.00  0.00    +0.066 C 
ATOM      3  C   UNL     1       9.415  -2.530   2.353  0.00  0.00    -0.063 C 
ATOM      4  N   UNL     1       9.775  -2.973   3.706  0.00  0.00    +0.384 N 
ATOM      5  C   UNL     1       8.711  -3.833   4.241  0.00  0.00    -0.063 C 
ATOM      6  C   UNL     1       7.404  -3.042   4.312  0.00  0.00    +0.066 C 
ATOM      7  H   UNL     1       9.890  -2.168   4.304  0.00  0.00    -0.081 HD
ENDROOT
BRANCH   1   8
ATOM      8  C   UNL     1       5.764  -1.853   2.984  0.00  0.00    +0.180 C 
BRANCH   8  10
ATOM      9  N   UNL     1       4.152  -0.952   1.338  0.00  0.00    -0.310 N 
ATOM     10  C   UNL     1       5.311  -1.601   1.569  0.00  0.00    +0.227 C 
ATOM     11  O   UNL     1       5.989  -1.981   0.638  0.00  0.00    -0.274 OA
ATOM     12  H   UNL     1       3.610  -0.648   2.082  0.00  0.00    +0.149 HD
BRANCH   9  13
ATOM     13  C   UNL     1       3.711  -0.707  -0.038  0.00  0.00    +0.139 C 
BRANCH  13  17
ATOM     14  C   UNL     1      -0.017   1.378   0.010  0.00  0.00    +0.000 A 
ATOM     15  C   UNL     1       1.171   2.086   0.002  0.00  0.00    +0.000 A 
ATOM     16  C   UNL     1       2.377   1.411  -0.013  0.00  0.00    +0.005 A 
ATOM     17  C   UNL     1       2.396   0.029  -0.020  0.00  0.00    -0.030 A 
ATOM     18  C   UNL     1       1.208  -0.679  -0.012  0.00  0.00    +0.005 A 
ATOM     19  C   UNL     1       0.002  -0.004   0.002  0.00  0.00    +0.000 A 
ENDBRANCH  13  17
ENDBRANCH   9  13
ENDBRANCH   8  10
ENDBRANCH   1   8
BRANCH   4  20
ATOM     20  C   UNL     1      11.035  -3.727   3.655  0.00  0.00    -0.039 C 
BRANCH  20  21
ATOM     21  C   UNL     1      11.469  -4.076   5.056  0.00  0.00    -0.019 A 
ATOM     22  C   UNL     1      11.327  -5.371   5.519  0.00  0.00    +0.055 A 
ATOM     23  C   UNL     1      11.725  -5.696   6.806  0.00  0.00    +0.167 A 
ATOM     24  C   UNL     1      12.268  -4.715   7.633  0.00  0.00    +0.170 A 
ATOM     25  C   UNL     1      12.409  -3.419   7.166  0.00  0.00    +0.095 A 
ATOM     26  C   UNL     1      12.014  -3.100   5.875  0.00  0.00    +0.122 A 
ATOM     27  O   UNL     1      12.576  -5.281   8.836  0.00  0.00    -0.452 OA
ATOM     28  C   UNL     1      11.842  -6.519   8.878  0.00  0.00    +0.466 C 
ATOM     29  O   UNL     1      11.694  -6.876   7.492  0.00  0.00    -0.453 OA
BRANCH  26  30
ATOM     30  O   UNL     1      12.157  -1.829   5.415  0.00  0.00    -0.506 OA
ATOM     31  H   UNL     1      11.391  -1.262   5.582  0.00  0.00    +0.292 HD
ENDBRANCH  26  30
ENDBRANCH  20  21
ENDBRANCH   4  20
TORSDOF 7
