REMARK  Name = ZINC39164780
REMARK  6 active torsions:
REMARK  status: ('A' for Active; 'I' for Inactive)
REMARK    1  A    between atoms: C_4  and  C_7
REMARK    2  A    between atoms: C_9  and  N_13
REMARK    3  A    between atoms: C_14  and  C_16
REMARK    4  A    between atoms: N_20  and  C_22
REMARK    5  A    between atoms: C_22  and  O_23
REMARK    6  A    between atoms: O_23  and  C_24
REMARK                            x       y       z     vdW  Elec       q    Type
REMARK                         _______ _______ _______ _____ _____    ______ ____
ROOT
ATOM      1  N   UNL     1       5.745  -2.956  -1.278  0.00  0.00    -0.287 N 
ATOM      2  C   UNL     1       6.619  -3.978  -1.198  0.00  0.00    +0.237 C 
ATOM      3  O   UNL     1       7.067  -4.310  -0.120  0.00  0.00    -0.274 OA
ATOM      4  H   UNL     1       5.386  -2.691  -2.140  0.00  0.00    +0.151 HD
ENDROOT
BRANCH   2   5
ATOM      5  C   UNL     1       7.040  -4.710  -2.446  0.00  0.00    +0.182 C 
ATOM      6  C   UNL     1       7.774  -3.776  -3.385  0.00  0.00    +0.019 C 
ATOM      7  C   UNL     1       8.989  -4.264  -3.535  0.00  0.00    +0.089 C 
ATOM      8  N   UNL     1       9.168  -5.423  -2.806  0.00  0.00    -0.238 N 
ATOM      9  N   UNL     1       8.031  -5.756  -2.122  0.00  0.00    -0.222 NA
ATOM     10  H   UNL     1       7.696  -6.668  -2.396  0.00  0.00    +0.146 HD
BRANCH   8  11
ATOM     11  C   UNL     1      10.412  -6.196  -2.771  0.00  0.00    +0.354 C 
BRANCH  11  12
ATOM     12  O   UNL     1      11.239  -5.721  -1.707  0.00  0.00    -0.472 OA
BRANCH  12  13
ATOM     13  C   UNL     1      10.942  -6.155  -0.454  0.00  0.00    +0.123 A 
ATOM     14  C   UNL     1       9.881  -7.026  -0.254  0.00  0.00    +0.046 A 
ATOM     15  C   UNL     1       9.582  -7.467   1.021  0.00  0.00    +0.004 A 
ATOM     16  C   UNL     1      10.339  -7.041   2.097  0.00  0.00    +0.000 A 
ATOM     17  C   UNL     1      11.397  -6.172   1.899  0.00  0.00    +0.004 A 
ATOM     18  C   UNL     1      11.704  -5.734   0.626  0.00  0.00    +0.046 A 
ENDBRANCH  12  13
ENDBRANCH  11  12
ENDBRANCH   8  11
ENDBRANCH   2   5
BRANCH   1  21
ATOM     19  C   UNL     1       3.699  -0.689  -0.037  0.00  0.00    +0.093 C 
ATOM     20  C   UNL     1       3.832  -2.029  -0.051  0.00  0.00    +0.050 C 
ATOM     21  C   UNL     1       5.335  -2.245  -0.065  0.00  0.00    +0.240 C 
ATOM     22  N   UNL     1       5.871  -0.874  -0.056  0.00  0.00    -0.160 NA
ATOM     23  N   UNL     1       4.919  -0.090  -0.047  0.00  0.00    -0.152 NA
BRANCH  19  27
ATOM     24  C   UNL     1      -0.017   1.379   0.010  0.00  0.00    +0.000 A 
ATOM     25  C   UNL     1       1.169   2.092   0.002  0.00  0.00    +0.001 A 
ATOM     26  C   UNL     1       2.377   1.426  -0.013  0.00  0.00    +0.010 A 
ATOM     27  C   UNL     1       2.402   0.033  -0.021  0.00  0.00    +0.002 A 
ATOM     28  C   UNL     1       1.205  -0.680  -0.013  0.00  0.00    +0.010 A 
ATOM     29  C   UNL     1       0.002  -0.004   0.002  0.00  0.00    +0.001 A 
ENDBRANCH  19  27
ENDBRANCH   1  21
TORSDOF 6
