REMARK  Name = ZINC38902477
REMARK  10 active torsions:
REMARK  status: ('A' for Active; 'I' for Inactive)
REMARK    1  A    between atoms: C_1  and  C_2
REMARK    2  A    between atoms: C_4  and  N_9
REMARK    3  A    between atoms: C_10  and  C_12
REMARK    4  A    between atoms: N_17  and  C_19
REMARK    5  A    between atoms: C_19  and  C_20
REMARK    6  A    between atoms: C_22  and  C_25
REMARK    7  A    between atoms: C_28  and  C_31
REMARK    8  A    between atoms: C_31  and  C_32
REMARK    9  A    between atoms: C_31  and  C_33
REMARK   10  A    between atoms: C_31  and  C_34
REMARK                            x       y       z     vdW  Elec       q    Type
REMARK                         _______ _______ _______ _____ _____    ______ ____
ROOT
ATOM      1  C   UNL     1       0.265  -4.851  -3.737  0.00  0.00    +0.059 C 
ATOM      2  C   UNL     1      -0.983  -4.589  -4.585  0.00  0.00    +0.009 C 
ATOM      3  C   UNL     1      -0.890  -5.405  -5.878  0.00  0.00    -0.018 C 
ATOM      4  C   UNL     1      -0.727  -6.886  -5.529  0.00  0.00    -0.078 C 
ATOM      5  N   UNL     1       0.496  -7.075  -4.740  0.00  0.00    +0.386 N 
ATOM      6  C   UNL     1       0.386  -6.353  -3.467  0.00  0.00    -0.065 C 
ATOM      7  H   UNL     1       1.287  -6.721  -5.258  0.00  0.00    -0.081 HD
ENDROOT
BRANCH   1   9
ATOM      8  N   UNL     1       0.028  -2.771  -2.420  0.00  0.00    -0.285 N 
ATOM      9  C   UNL     1       0.148  -4.113  -2.428  0.00  0.00    +0.218 C 
ATOM     10  O   UNL     1       0.162  -4.727  -1.382  0.00  0.00    -0.275 OA
ATOM     11  H   UNL     1      -0.060  -2.287  -3.256  0.00  0.00    +0.155 HD
BRANCH   8  15
ATOM     12  C   UNL     1       1.619  -2.350   2.213  0.00  0.00    +0.045 C 
ATOM     13  C   UNL     1       0.793  -1.849   1.057  0.00  0.00    -0.035 A 
ATOM     14  C   UNL     1       0.792  -2.538  -0.141  0.00  0.00    +0.027 A 
ATOM     15  C   UNL     1       0.030  -2.075  -1.206  0.00  0.00    +0.034 A 
ATOM     16  C   UNL     1      -0.729  -0.921  -1.063  0.00  0.00    +0.024 A 
ATOM     17  C   UNL     1      -0.724  -0.236   0.136  0.00  0.00    +0.017 A 
ATOM     18  C   UNL     1       0.031  -0.703   1.197  0.00  0.00    +0.021 A 
ATOM     19 BR   UNL     1       0.029   0.233   2.841  0.00  0.00    -0.050 Br
ENDBRANCH   8  15
ENDBRANCH   1   9
BRANCH   5  20
ATOM     20  C   UNL     1       0.689  -8.507  -4.475  0.00  0.00    +0.022 C 
BRANCH  20  21
ATOM     21  C   UNL     1       0.935  -9.230  -5.774  0.00  0.00    +0.211 A 
ATOM     22  N   UNL     1       2.100  -9.440  -6.319  0.00  0.00    -0.193 NA
ATOM     23  C   UNL     1       1.952 -10.115  -7.473  0.00  0.00    +0.202 A 
ATOM     24  N   UNL     1       0.676 -10.340  -7.667  0.00  0.00    -0.056 NA
ATOM     25  O   UNL     1      -0.005  -9.771  -6.559  0.00  0.00    -0.340 OA
BRANCH  23  26
ATOM     26  C   UNL     1       3.053 -10.535  -8.376  0.00  0.00    +0.022 A 
ATOM     27  C   UNL     1       4.375 -10.238  -8.053  0.00  0.00    +0.012 A 
ATOM     28  C   UNL     1       5.394 -10.631  -8.897  0.00  0.00    +0.005 A 
ATOM     29  C   UNL     1       5.104 -11.319 -10.062  0.00  0.00    -0.042 A 
ATOM     30  C   UNL     1       3.793 -11.616 -10.387  0.00  0.00    +0.005 A 
ATOM     31  C   UNL     1       2.767 -11.233  -9.548  0.00  0.00    +0.012 A 
BRANCH  29  32
ATOM     32  C   UNL     1       6.221 -11.744 -10.980  0.00  0.00    -0.013 C 
ATOM     33  C   UNL     1       7.174 -12.675 -10.226  0.00  0.00    +0.015 C 
ATOM     34  C   UNL     1       5.637 -12.481 -12.187  0.00  0.00    +0.015 C 
ATOM     35  C   UNL     1       6.987 -10.509 -11.458  0.00  0.00    +0.015 C 
ENDBRANCH  29  32
ENDBRANCH  23  26
ENDBRANCH  20  21
ENDBRANCH   5  20
TORSDOF 6
