REMARK  Name = ZINC40382981
REMARK  6 active torsions:
REMARK  status: ('A' for Active; 'I' for Inactive)
REMARK    1  A    between atoms: C_1  and  C_2
REMARK    2  A    between atoms: C_5  and  C_35
REMARK    3  A    between atoms: C_6  and  N_8
REMARK    4  A    between atoms: C_9  and  C_11
REMARK    5  A    between atoms: C_26  and  C_34
REMARK    6  A    between atoms: C_31  and  C_33
REMARK                            x       y       z     vdW  Elec       q    Type
REMARK                         _______ _______ _______ _____ _____    ______ ____
ROOT
ATOM      1  C   UNL     1       0.331  -3.063   5.005  0.00  0.00    +0.122 C 
ATOM      2  C   UNL     1      -0.931  -3.912   5.166  0.00  0.00    +0.114 C 
ATOM      3  C   UNL     1      -2.112  -3.015   5.432  0.00  0.00    +0.219 C 
ATOM      4  O   UNL     1      -3.193  -3.288   4.953  0.00  0.00    -0.275 OA
ATOM      5  N   UNL     1      -1.982  -1.917   6.195  0.00  0.00    -0.270 N 
ATOM      6  C   UNL     1      -0.742  -1.522   6.668  0.00  0.00    +0.138 A 
ATOM      7  C   UNL     1       0.411  -2.062   6.125  0.00  0.00    +0.069 A 
ATOM      8  C   UNL     1       1.652  -1.664   6.633  0.00  0.00    +0.258 A 
ATOM      9  O   UNL     1       2.687  -2.131   6.184  0.00  0.00    -0.267 OA
ATOM     10  N   UNL     1       1.682  -0.754   7.630  0.00  0.00    -0.295 N 
ATOM     11  H   UNL     1       2.531  -0.475   8.007  0.00  0.00    +0.172 HD
ATOM     12  C   UNL     1       0.521  -0.226   8.105  0.00  0.00    +0.200 A 
ATOM     13  N   UNL     1      -0.648  -0.600   7.632  0.00  0.00    -0.200 NA
ATOM     14  N   UNL     1       0.571   0.716   9.098  0.00  0.00    -0.295 N 
ATOM     15  C   UNL     1      -0.662   1.192   9.740  0.00  0.00    +0.073 C 
ATOM     16  C   UNL     1      -0.523   1.028  11.257  0.00  0.00    +0.022 C 
ATOM     17  C   UNL     1       0.747   1.738  11.729  0.00  0.00    +0.004 C 
ATOM     18  C   UNL     1       1.968   1.102  11.061  0.00  0.00    +0.022 C 
ATOM     19  C   UNL     1       1.858   1.264   9.546  0.00  0.00    +0.073 C 
ATOM     20  C   UNL     1       1.937   2.748   9.186  0.00  0.00    +0.028 C 
ATOM     21  C   UNL     1      -1.852   0.372   9.239  0.00  0.00    +0.028 C 
ATOM     22  H   UNL     1      -2.767  -1.392   6.417  0.00  0.00    +0.156 HD
ENDROOT
BRANCH   1  24
ATOM     23  N   UNL     1       0.210  -3.035   2.534  0.00  0.00    -0.285 N 
ATOM     24  C   UNL     1       0.283  -2.337   3.685  0.00  0.00    +0.225 C 
ATOM     25  O   UNL     1       0.311  -1.125   3.659  0.00  0.00    -0.275 OA
ATOM     26  H   UNL     1       0.106  -3.999   2.557  0.00  0.00    +0.155 HD
BRANCH  23  32
ATOM     27  C   UNL     1       1.663   0.865  -0.083  0.00  0.00    +0.044 C 
ATOM     28  C   UNL     1       0.982  -0.476   0.009  0.00  0.00    -0.049 A 
ATOM     29  C   UNL     1       0.430  -1.050  -1.122  0.00  0.00    +0.004 A 
ATOM     30  C   UNL     1      -0.195  -2.281  -1.042  0.00  0.00    +0.005 A 
ATOM     31  C   UNL     1      -0.269  -2.941   0.169  0.00  0.00    -0.029 A 
ATOM     32  C   UNL     1       0.284  -2.368   1.306  0.00  0.00    +0.037 A 
ATOM     33  C   UNL     1       0.916  -1.134   1.221  0.00  0.00    +0.027 A 
ATOM     34  C   UNL     1      -0.951  -4.283   0.256  0.00  0.00    +0.045 C 
ENDBRANCH  23  32
ENDBRANCH   1  24
TORSDOF 2
