REMARK  Name = ZINC38104580
REMARK  3 active torsions:
REMARK  status: ('A' for Active; 'I' for Inactive)
REMARK    1  A    between atoms: C_6  and  C_7
REMARK    2  A    between atoms: N_9  and  C_10
REMARK    3  A    between atoms: C_15  and  N_16
REMARK                            x       y       z     vdW  Elec       q    Type
REMARK                         _______ _______ _______ _____ _____    ______ ____
ROOT
ATOM      1  C   UNL     1      -1.258  -0.770  -0.005  0.00  0.00    +0.248 C 
ATOM      2  O   UNL     1      -2.318  -0.176   0.023  0.00  0.00    -0.270 OA
ATOM      3  N   UNL     1      -1.241  -2.118  -0.010  0.00  0.00    -0.280 N 
ATOM      4  H   UNL     1      -0.399  -2.592  -0.098  0.00  0.00    +0.155 HD
ENDROOT
BRANCH   1  10
ATOM      5  C   UNL     1      -0.003   1.381  -0.026  0.00  0.00    +0.016 A 
ATOM      6  C   UNL     1       1.185   2.080  -0.051  0.00  0.00    +0.039 A 
ATOM      7  C   UNL     1       2.392   1.399  -0.083  0.00  0.00    +0.123 A 
ATOM      8  C   UNL     1       2.413   0.013  -0.089  0.00  0.00    +0.039 A 
ATOM      9  C   UNL     1       1.231  -0.696  -0.064  0.00  0.00    +0.016 A 
ATOM     10  C   UNL     1       0.012  -0.016  -0.032  0.00  0.00    +0.037 A 
ATOM     11  F   UNL     1       3.553   2.090  -0.107  0.00  0.00    -0.205 F 
ENDBRANCH   1  10
BRANCH   3  12
ATOM     12  C   UNL     1      -2.437  -2.833   0.110  0.00  0.00    +0.064 A 
ATOM     13  C   UNL     1      -3.602  -2.343  -0.467  0.00  0.00    +0.027 A 
ATOM     14  C   UNL     1      -4.781  -3.051  -0.347  0.00  0.00    +0.017 A 
ATOM     15  C   UNL     1      -4.804  -4.247   0.348  0.00  0.00    +0.020 A 
ATOM     16  C   UNL     1      -3.646  -4.737   0.924  0.00  0.00    +0.050 A 
ATOM     17  C   UNL     1      -2.462  -4.037   0.802  0.00  0.00    +0.148 A 
ATOM     18 BR   UNL     1      -6.421  -5.213   0.512  0.00  0.00    -0.050 Br
BRANCH  17  19
ATOM     19  N   UNL     1      -1.221  -4.565   1.413  0.00  0.00    +0.058 N 
ATOM     20  O   UNL     1      -1.220  -5.657   1.931  0.00  0.00    -0.126 OA
ATOM     21  O   UNL     1      -0.209  -3.904   1.395  0.00  0.00    -0.126 OA
ENDBRANCH  17  19
ENDBRANCH   3  12
TORSDOF 3
