REMARK  Name = ZINC06501932
REMARK  7 active torsions:
REMARK  status: ('A' for Active; 'I' for Inactive)
REMARK    1  A    between atoms: C_1  and  C_2
REMARK    2  A    between atoms: C_5  and  C_8
REMARK    3  A    between atoms: N_10  and  N_11
REMARK    4  A    between atoms: N_11  and  C_12
REMARK    5  A    between atoms: C_12  and  N_14
REMARK    6  A    between atoms: C_15  and  C_17
REMARK    7  A    between atoms: C_21  and  N_23
REMARK                            x       y       z     vdW  Elec       q    Type
REMARK                         _______ _______ _______ _____ _____    ______ ____
ROOT
ATOM      1  C   UNL     1       3.524   1.907  -0.021  0.00  0.00    +0.153 C 
ATOM      2  S   UNL     1       5.018   1.071  -0.040  0.00  0.00    -0.017 S 
ENDROOT
BRANCH   1   3
ATOM      3  N   UNL     1       3.506   3.254  -0.014  0.00  0.00    -0.263 N 
ATOM      4  C   UNL     1       4.664   3.944  -0.021  0.00  0.00    +0.250 C 
ATOM      5  O   UNL     1       5.724   3.351  -0.035  0.00  0.00    -0.270 OA
ATOM      6  H   UNL     1       2.659   3.728  -0.003  0.00  0.00    +0.157 HD
BRANCH   4   7
ATOM      7  C   UNL     1       4.644   5.421  -0.013  0.00  0.00    +0.039 A 
ATOM      8  C   UNL     1       3.426   6.106  -0.004  0.00  0.00    +0.014 A 
ATOM      9  C   UNL     1       3.414   7.484   0.009  0.00  0.00    +0.023 A 
ATOM     10  C   UNL     1       4.606   8.190   0.001  0.00  0.00    +0.071 A 
ATOM     11  C   UNL     1       5.816   7.517  -0.014  0.00  0.00    +0.145 A 
ATOM     12  C   UNL     1       5.842   6.138  -0.021  0.00  0.00    +0.047 A 
ATOM     13 CL   UNL     1       4.582   9.926   0.011  0.00  0.00    -0.081 Cl
BRANCH  11  14
ATOM     14  N   UNL     1       7.085   8.279  -0.021  0.00  0.00    +0.058 N 
ATOM     15  O   UNL     1       8.150   7.688  -0.034  0.00  0.00    -0.126 OA
ATOM     16  O   UNL     1       7.064   9.497  -0.015  0.00  0.00    -0.126 OA
ENDBRANCH  11  14
ENDBRANCH   4   7
ENDBRANCH   1   3
BRANCH   1  17
ATOM     17  N   UNL     1       2.366   1.217  -0.014  0.00  0.00    -0.245 N 
ATOM     18  H   UNL     1       2.379   0.247  -0.019  0.00  0.00    +0.172 HD
BRANCH  17  21
ATOM     19  C   UNL     1      -0.014   1.211   0.009  0.00  0.00    +0.260 C 
ATOM     20  O   UNL     1       0.002  -0.004   0.002  0.00  0.00    -0.269 OA
ATOM     21  N   UNL     1       1.143   1.901   0.001  0.00  0.00    -0.231 N 
ATOM     22  H   UNL     1       1.130   2.871   0.007  0.00  0.00    +0.173 HD
BRANCH  19  27
ATOM     23  C   UNL     1      -5.037   4.021   0.050  0.00  0.00    +0.044 C 
ATOM     24  C   UNL     1      -3.721   3.285   0.039  0.00  0.00    -0.050 A 
ATOM     25  C   UNL     1      -3.706   1.901   0.030  0.00  0.00    +0.004 A 
ATOM     26  C   UNL     1      -2.506   1.222   0.021  0.00  0.00    +0.013 A 
ATOM     27  C   UNL     1      -1.305   1.933   0.019  0.00  0.00    +0.038 A 
ATOM     28  C   UNL     1      -1.327   3.329   0.032  0.00  0.00    +0.013 A 
ATOM     29  C   UNL     1      -2.534   3.996   0.037  0.00  0.00    +0.004 A 
ENDBRANCH  19  27
ENDBRANCH  17  21
ENDBRANCH   1  17
TORSDOF 6
