REMARK  Name = ZINC58175757
REMARK  10 active torsions:
REMARK  status: ('A' for Active; 'I' for Inactive)
REMARK    1  A    between atoms: C_1  and  C_2
REMARK    2  A    between atoms: C_7  and  N_12
REMARK    3  A    between atoms: C_9  and  C_11
REMARK    4  A    between atoms: N_12  and  C_13
REMARK    5  A    between atoms: N_12  and  C_23
REMARK    6  A    between atoms: C_13  and  C_14
REMARK    7  A    between atoms: C_23  and  C_24
REMARK    8  A    between atoms: N_26  and  C_27
REMARK    9  A    between atoms: C_30  and  S_33
REMARK   10  A    between atoms: S_33  and  N_36
REMARK                            x       y       z     vdW  Elec       q    Type
REMARK                         _______ _______ _______ _____ _____    ______ ____
ROOT
ATOM      1  N   UNL     1       2.854  -1.615   3.098  0.00  0.00    +0.390 N 
ATOM      2  H   UNL     1       2.873  -2.613   2.948  0.00  0.00    -0.080 HD
ENDROOT
BRANCH   1   8
ATOM      3  C   UNL     1      -0.635  -0.133   1.133  0.00  0.00    +0.008 C 
ATOM      4  C   UNL     1       0.085  -1.336   0.520  0.00  0.00    -0.013 C 
ATOM      5  C   UNL     1       0.951  -0.869  -0.651  0.00  0.00    +0.003 C 
ATOM      6  C   UNL     1       1.984   0.142  -0.150  0.00  0.00    -0.001 C 
ATOM      7  C   UNL     1       2.870  -0.517   0.909  0.00  0.00    -0.015 C 
ATOM      8  C   UNL     1       2.004  -0.983   2.081  0.00  0.00    -0.064 C 
ATOM      9  C   UNL     1       0.971  -1.994   1.580  0.00  0.00    -0.025 C 
ATOM     10  C   UNL     1       1.690  -3.197   0.967  0.00  0.00    +0.006 C 
ENDBRANCH   1   8
BRANCH   1  11
ATOM     11  C   UNL     1       4.218  -1.080   2.997  0.00  0.00    -0.042 C 
BRANCH  11  12
ATOM     12  C   UNL     1       4.920  -1.711   1.822  0.00  0.00    -0.060 A 
ATOM     13  C   UNL     1       4.897  -3.084   1.662  0.00  0.00    +0.005 A 
ATOM     14  C   UNL     1       5.539  -3.668   0.585  0.00  0.00    +0.050 A 
ATOM     15  C   UNL     1       6.208  -2.877  -0.335  0.00  0.00    +0.166 A 
ATOM     16  C   UNL     1       6.231  -1.494  -0.173  0.00  0.00    +0.166 A 
ATOM     17  C   UNL     1       5.581  -0.916   0.905  0.00  0.00    +0.051 A 
ATOM     18  O   UNL     1       6.946  -0.947  -1.199  0.00  0.00    -0.453 OA
ATOM     19  C   UNL     1       7.703  -2.034  -1.764  0.00  0.00    +0.466 C 
ATOM     20  O   UNL     1       6.908  -3.196  -1.463  0.00  0.00    -0.453 OA
ENDBRANCH  11  12
ENDBRANCH   1  11
BRANCH   1  21
ATOM     21  C   UNL     1       2.314  -1.331   4.434  0.00  0.00    +0.020 C 
BRANCH  21  22
ATOM     22  C   UNL     1       1.127  -2.221   4.697  0.00  0.00    +0.201 C 
ATOM     23  O   UNL     1       0.886  -3.146   3.949  0.00  0.00    -0.278 OA
ATOM     24  N   UNL     1       0.334  -1.991   5.761  0.00  0.00    -0.287 N 
ATOM     25  H   UNL     1       0.486  -1.213   6.320  0.00  0.00    +0.155 HD
BRANCH  24  26
ATOM     26  C   UNL     1      -0.708  -2.875   6.062  0.00  0.00    +0.033 A 
ATOM     27  C   UNL     1      -0.579  -4.227   5.773  0.00  0.00    +0.025 A 
ATOM     28  C   UNL     1      -1.610  -5.097   6.070  0.00  0.00    +0.030 A 
ATOM     29  C   UNL     1      -2.769  -4.623   6.655  0.00  0.00    +0.105 A 
ATOM     30  C   UNL     1      -2.901  -3.277   6.944  0.00  0.00    +0.030 A 
ATOM     31  C   UNL     1      -1.872  -2.403   6.654  0.00  0.00    +0.025 A 
BRANCH  29  32
ATOM     32  S   UNL     1      -4.082  -5.736   7.033  0.00  0.00    +0.056 S 
ATOM     33  O   UNL     1      -5.272  -4.961   7.075  0.00  0.00    -0.153 OA
ATOM     34  O   UNL     1      -3.930  -6.852   6.167  0.00  0.00    -0.153 OA
BRANCH  32  35
ATOM     35  N   UNL     1      -3.825  -6.292   8.572  0.00  0.00    -0.204 NA
ATOM     36  H   UNL     1      -3.054  -5.987   9.075  0.00  0.00    +0.144 HD
ATOM     37  H   UNL     1      -4.445  -6.923   8.969  0.00  0.00    +0.144 HD
ENDBRANCH  32  35
ENDBRANCH  29  32
ENDBRANCH  24  26
ENDBRANCH  21  22
ENDBRANCH   1  21
TORSDOF 8
