REMARK  Name = ZINC35754573
REMARK  14 active torsions:
REMARK  status: ('A' for Active; 'I' for Inactive)
REMARK    1  A    between atoms: C_1  and  C_2
REMARK    2  A    between atoms: C_2  and  C_3
REMARK    3  A    between atoms: C_2  and  C_4
REMARK    4  A    between atoms: C_4  and  C_5
REMARK    5  A    between atoms: N_7  and  C_8
REMARK    6  A    between atoms: C_12  and  C_14
REMARK    7  A    between atoms: C_16  and  C_29
REMARK    8  A    between atoms: N_18  and  C_22
REMARK    9  A    between atoms: C_22  and  C_23
REMARK   10  A    between atoms: N_31  and  C_32
REMARK   11  A    between atoms: C_32  and  C_33
REMARK   12  A    between atoms: C_33  and  N_34
REMARK   13  A    between atoms: N_34  and  C_35
REMARK   14  A    between atoms: N_34  and  C_36
REMARK                            x       y       z     vdW  Elec       q    Type
REMARK                         _______ _______ _______ _____ _____    ______ ____
ROOT
ATOM      1  C   UNL     1       7.273  -0.101  -4.622  0.00  0.00    +0.238 C 
ATOM      2  C   UNL     1       8.167  -1.339  -4.374  0.00  0.00    +0.210 C 
ATOM      3  N   UNL     1       9.422  -0.959  -5.052  0.00  0.00    -0.248 N 
ATOM      4  C   UNL     1       9.374   0.365  -5.292  0.00  0.00    +0.405 C 
ATOM      5  O   UNL     1      10.253   0.977  -5.867  0.00  0.00    -0.226 OA
ATOM      6  O   UNL     1       8.249   0.938  -4.830  0.00  0.00    -0.440 OA
ENDROOT
BRANCH   1  11
ATOM      7  C   UNL     1       4.323   0.034  -2.264  0.00  0.00    +0.034 A 
ATOM      8  C   UNL     1       4.857   0.747  -1.198  0.00  0.00    +0.023 A 
ATOM      9  C   UNL     1       6.167   1.180  -1.245  0.00  0.00    +0.002 A 
ATOM     10  C   UNL     1       6.948   0.905  -2.353  0.00  0.00    +0.007 A 
ATOM     11  C   UNL     1       6.419   0.196  -3.416  0.00  0.00    -0.003 A 
ATOM     12  C   UNL     1       5.111  -0.246  -3.372  0.00  0.00    +0.030 A 
BRANCH   7  15
ATOM     13  C   UNL     1       2.055   0.351  -1.619  0.00  0.00    +0.217 C 
ATOM     14  O   UNL     1       2.372   1.372  -1.047  0.00  0.00    -0.275 OA
ATOM     15  N   UNL     1       2.995  -0.406  -2.218  0.00  0.00    -0.285 N 
ATOM     16  H   UNL     1       2.752  -1.256  -2.618  0.00  0.00    +0.155 HD
BRANCH  13  17
ATOM     17  C   UNL     1       0.609  -0.072  -1.661  0.00  0.00    +0.099 C 
BRANCH  17  19
ATOM     18  C   UNL     1      -0.193   2.295  -1.648  0.00  0.00    +0.008 C 
ATOM     19  C   UNL     1      -0.244   0.954  -0.912  0.00  0.00    -0.008 C 
ATOM     20  C   UNL     1      -1.692   0.464  -0.847  0.00  0.00    +0.008 C 
ENDBRANCH  17  19
ENDBRANCH  13  17
ENDBRANCH   7  15
ENDBRANCH   1  11
BRANCH   2  21
ATOM     21  C   UNL     1       8.393  -1.552  -2.899  0.00  0.00    +0.238 C 
ATOM     22  O   UNL     1       9.427  -1.185  -2.385  0.00  0.00    -0.274 OA
ATOM     23  N   UNL     1       7.444  -2.151  -2.152  0.00  0.00    -0.315 N 
ATOM     24  H   UNL     1       6.616  -2.445  -2.564  0.00  0.00    +0.149 HD
BRANCH  23  25
ATOM     25  C   UNL     1       7.662  -2.358  -0.719  0.00  0.00    +0.085 C 
BRANCH  25  26
ATOM     26  C   UNL     1       6.442  -3.052  -0.112  0.00  0.00    -0.061 C 
BRANCH  26  27
ATOM     27  N   UNL     1       6.661  -3.260   1.326  0.00  0.00    +0.377 N 
ATOM     28  C   UNL     1       6.744  -1.958   2.002  0.00  0.00    -0.097 C 
ATOM     29  C   UNL     1       5.544  -4.032   1.886  0.00  0.00    -0.097 C 
ATOM     30  H   UNL     1       7.523  -3.766   1.465  0.00  0.00    -0.083 HD
ENDBRANCH  26  27
ENDBRANCH  25  26
ENDBRANCH  23  25
ENDBRANCH   2  21
BRANCH   3  31
ATOM     31  C   UNL     1      10.523  -1.860  -5.401  0.00  0.00    +0.147 C 
BRANCH  31  32
ATOM     32  C   UNL     1      10.296  -2.420  -6.782  0.00  0.00    -0.030 A 
ATOM     33  C   UNL     1       9.583  -3.593  -6.943  0.00  0.00    +0.005 A 
ATOM     34  C   UNL     1       9.374  -4.107  -8.209  0.00  0.00    +0.000 A 
ATOM     35  C   UNL     1       9.878  -3.446  -9.315  0.00  0.00    +0.000 A 
ATOM     36  C   UNL     1      10.589  -2.272  -9.153  0.00  0.00    +0.000 A 
ATOM     37  C   UNL     1      10.794  -1.757  -7.888  0.00  0.00    +0.005 A 
ENDBRANCH  31  32
ENDBRANCH   3  31
TORSDOF 10
