REMARK  Name = ZINC39710240
REMARK  9 active torsions:
REMARK  status: ('A' for Active; 'I' for Inactive)
REMARK    1  A    between atoms: C_1  and  C_2
REMARK    2  A    between atoms: C_9  and  C_14
REMARK    3  A    between atoms: C_14  and  C_16
REMARK    4  A    between atoms: C_14  and  N_27
REMARK    5  A    between atoms: N_21  and  C_22
REMARK    6  A    between atoms: N_27  and  C_28
REMARK    7  A    between atoms: N_27  and  C_35
REMARK    8  A    between atoms: C_28  and  C_29
REMARK    9  A    between atoms: C_35  and  C_36
REMARK                            x       y       z     vdW  Elec       q    Type
REMARK                         _______ _______ _______ _____ _____    ______ ____
ROOT
ATOM      1  C   UNL     1      -0.836  -5.793   3.136  0.00  0.00    -0.008 C 
ENDROOT
BRANCH   1  10
ATOM      2  C   UNL     1       5.507  -4.603   0.077  0.00  0.00    +0.044 C 
ATOM      3  C   UNL     1       4.619  -4.950   1.244  0.00  0.00    -0.050 A 
ATOM      4  C   UNL     1       5.153  -5.658   2.321  0.00  0.00    +0.005 A 
ATOM      5  C   UNL     1       4.415  -6.006   3.408  0.00  0.00    +0.024 A 
ATOM      6  C   UNL     1       3.055  -5.657   3.489  0.00  0.00    +0.040 A 
ATOM      7  N   UNL     1       2.341  -6.003   4.560  0.00  0.00    -0.285 N 
ATOM      8  C   UNL     1       1.059  -5.708   4.700  0.00  0.00    +0.223 C 
ATOM      9  O   UNL     1       0.459  -6.051   5.701  0.00  0.00    -0.275 OA
ATOM     10  C   UNL     1       0.343  -4.941   3.611  0.00  0.00    +0.088 C 
ATOM     11  C   UNL     1       1.151  -4.545   2.391  0.00  0.00    -0.006 C 
ATOM     12  C   UNL     1       2.464  -4.909   2.365  0.00  0.00    -0.007 A 
ATOM     13  C   UNL     1       3.318  -4.562   1.228  0.00  0.00    +0.012 A 
ATOM     14  H   UNL     1       2.782  -6.495   5.270  0.00  0.00    +0.155 HD
ENDBRANCH   1  10
BRANCH   1  15
ATOM     15  C   UNL     1      -2.069  -5.475   3.984  0.00  0.00    +0.205 C 
ATOM     16  N   UNL     1      -3.178  -6.373   3.633  0.00  0.00    -0.152 NA
ATOM     17  N   UNL     1      -4.120  -5.697   3.212  0.00  0.00    -0.070 NA
ATOM     18  N   UNL     1      -3.845  -4.330   3.201  0.00  0.00    -0.179 N 
ATOM     19  N   UNL     1      -2.573  -4.121   3.676  0.00  0.00    -0.185 NA
ATOM     20  H   UNL     1      -4.455  -3.637   2.906  0.00  0.00    +0.191 HD
BRANCH  19  21
ATOM     21  C   UNL     1      -1.734  -3.465   2.663  0.00  0.00    +0.080 C 
ATOM     22  C   UNL     1      -2.077  -1.963   2.586  0.00  0.00    +0.021 C 
ATOM     23  C   UNL     1      -1.962  -1.625   1.078  0.00  0.00    +0.002 C 
ATOM     24  C   UNL     1      -2.538  -2.892   0.399  0.00  0.00    +0.002 C 
ATOM     25  C   UNL     1      -2.027  -4.056   1.273  0.00  0.00    +0.021 C 
ENDBRANCH  19  21
ENDBRANCH   1  15
BRANCH   1  26
ATOM     26  N   UNL     1      -0.500  -7.216   3.274  0.00  0.00    +0.392 N 
ATOM     27  H   UNL     1      -0.064  -7.373   4.171  0.00  0.00    -0.080 HD
BRANCH  26  28
ATOM     28  C   UNL     1       0.428  -7.606   2.204  0.00  0.00    -0.040 C 
BRANCH  28  29
ATOM     29  C   UNL     1      -0.189  -7.293   0.865  0.00  0.00    -0.046 A 
ATOM     30  C   UNL     1      -1.343  -7.942   0.455  0.00  0.00    +0.005 A 
ATOM     31  C   UNL     1      -1.875  -7.622  -0.784  0.00  0.00    +0.020 A 
ATOM     32  C   UNL     1      -1.242  -6.673  -1.565  0.00  0.00    +0.111 A 
ATOM     33  N   UNL     1      -0.145  -6.076  -1.142  0.00  0.00    -0.263 NA
ATOM     34  C   UNL     1       0.386  -6.351   0.033  0.00  0.00    +0.112 A 
ENDBRANCH  28  29
ENDBRANCH  26  28
BRANCH  26  35
ATOM     35  C   UNL     1      -1.725  -8.021   3.177  0.00  0.00    -0.002 C 
BRANCH  35  36
ATOM     36  C   UNL     1      -1.367  -9.484   3.191  0.00  0.00    +0.089 A 
ATOM     37  C   UNL     1      -1.379 -10.287   4.270  0.00  0.00    +0.042 A 
ATOM     38  C   UNL     1      -0.978 -11.570   3.831  0.00  0.00    +0.041 A 
ATOM     39  C   UNL     1      -0.744 -11.474   2.510  0.00  0.00    +0.195 A 
ATOM     40  O   UNL     1      -0.987 -10.210   2.126  0.00  0.00    -0.470 OA
ENDBRANCH  35  36
ENDBRANCH  26  35
ENDBRANCH   1  26
TORSDOF 8
