REMARK  Name = ZINC35710241
REMARK  11 active torsions:
REMARK  status: ('A' for Active; 'I' for Inactive)
REMARK    1  A    between atoms: C_1  and  C_2
REMARK    2  A    between atoms: C_5  and  C_9
REMARK    3  A    between atoms: C_6  and  C_8
REMARK    4  A    between atoms: C_9  and  N_10
REMARK    5  A    between atoms: N_10  and  C_11
REMARK    6  A    between atoms: N_10  and  C_19
REMARK    7  A    between atoms: C_11  and  C_12
REMARK    8  A    between atoms: C_19  and  C_20
REMARK    9  A    between atoms: C_22  and  C_25
REMARK   10  A    between atoms: N_27  and  C_28
REMARK   11  A    between atoms: C_28  and  C_29
REMARK                            x       y       z     vdW  Elec       q    Type
REMARK                         _______ _______ _______ _____ _____    ______ ____
ROOT
ATOM      1  N   UNL     1      -1.253  -4.553   0.569  0.00  0.00    +0.391 N 
ATOM      2  H   UNL     1      -1.790  -4.164   1.330  0.00  0.00    -0.080 HD
ENDROOT
BRANCH   1   3
ATOM      3  C   UNL     1      -0.026  -3.766   0.383  0.00  0.00    -0.042 C 
BRANCH   3   8
ATOM      4  C   UNL     1      -1.405   1.793  -0.380  0.00  0.00    +0.044 C 
ATOM      5  C   UNL     1      -1.046   0.344  -0.181  0.00  0.00    -0.050 A 
ATOM      6  C   UNL     1      -0.743  -0.450  -1.272  0.00  0.00    +0.003 A 
ATOM      7  C   UNL     1      -0.413  -1.779  -1.090  0.00  0.00    +0.002 A 
ATOM      8  C   UNL     1      -0.385  -2.316   0.184  0.00  0.00    -0.061 A 
ATOM      9  C   UNL     1      -0.687  -1.523   1.275  0.00  0.00    -0.049 A 
ATOM     10  C   UNL     1      -1.013  -0.192   1.093  0.00  0.00    +0.007 A 
ATOM     11  C   UNL     1      -0.657  -2.109   2.663  0.00  0.00    +0.044 C 
ENDBRANCH   3   8
ENDBRANCH   1   3
BRANCH   1  12
ATOM     12  C   UNL     1      -2.051  -4.516  -0.663  0.00  0.00    -0.042 C 
BRANCH  12  13
ATOM     13  C   UNL     1      -3.370  -5.207  -0.429  0.00  0.00    -0.064 A 
ATOM     14  C   UNL     1      -3.525  -6.535  -0.779  0.00  0.00    +0.004 A 
ATOM     15  C   UNL     1      -4.734  -7.170  -0.565  0.00  0.00    +0.038 A 
ATOM     16  C   UNL     1      -5.789  -6.475   0.001  0.00  0.00    +0.123 A 
ATOM     17  C   UNL     1      -5.632  -5.144   0.351  0.00  0.00    +0.038 A 
ATOM     18  C   UNL     1      -4.421  -4.513   0.141  0.00  0.00    +0.004 A 
ATOM     19  F   UNL     1      -6.971  -7.094   0.211  0.00  0.00    -0.205 F 
ENDBRANCH  12  13
ENDBRANCH   1  12
BRANCH   1  20
ATOM     20  C   UNL     1      -0.899  -5.944   0.882  0.00  0.00    +0.020 C 
BRANCH  20  21
ATOM     21  C   UNL     1      -0.186  -5.996   2.208  0.00  0.00    +0.179 A 
ATOM     22  N   UNL     1      -0.764  -6.037   3.372  0.00  0.00    -0.210 NA
ATOM     23  C   UNL     1       0.201  -6.076   4.331  0.00  0.00    +0.163 A 
ATOM     24  C   UNL     1       1.402  -6.057   3.691  0.00  0.00    +0.230 A 
ATOM     25  O   UNL     1       1.144  -6.012   2.374  0.00  0.00    -0.449 OA
BRANCH  23  26
ATOM     26  C   UNL     1      -0.015  -6.129   5.788  0.00  0.00    +0.266 C 
ATOM     27  O   UNL     1       0.934  -6.066   6.546  0.00  0.00    -0.268 OA
ATOM     28  N   UNL     1      -1.264  -6.248   6.280  0.00  0.00    -0.306 N 
ATOM     29  H   UNL     1      -2.013  -6.377   5.678  0.00  0.00    +0.149 HD
BRANCH  28  30
ATOM     30  C   UNL     1      -1.490  -6.182   7.726  0.00  0.00    +0.140 C 
BRANCH  30  31
ATOM     31  C   UNL     1      -2.962  -6.341   8.012  0.00  0.00    -0.030 A 
ATOM     32  C   UNL     1      -3.780  -5.227   8.061  0.00  0.00    +0.008 A 
ATOM     33  C   UNL     1      -5.129  -5.372   8.323  0.00  0.00    +0.038 A 
ATOM     34  C   UNL     1      -5.661  -6.632   8.536  0.00  0.00    +0.123 A 
ATOM     35  C   UNL     1      -4.841  -7.746   8.486  0.00  0.00    +0.038 A 
ATOM     36  C   UNL     1      -3.493  -7.600   8.220  0.00  0.00    +0.008 A 
ATOM     37  F   UNL     1      -6.980  -6.774   8.792  0.00  0.00    -0.205 F 
ENDBRANCH  30  31
ENDBRANCH  28  30
ENDBRANCH  23  26
ENDBRANCH  20  21
ENDBRANCH   1  20
TORSDOF 9
