REMARK  Name = ZINC13068843
REMARK  8 active torsions:
REMARK  status: ('A' for Active; 'I' for Inactive)
REMARK    1  A    between atoms: C_1  and  C_2
REMARK    2  A    between atoms: C_2  and  C_3
REMARK    3  A    between atoms: C_2  and  C_4
REMARK    4  A    between atoms: C_7  and  S_10
REMARK    5  A    between atoms: S_10  and  N_13
REMARK    6  A    between atoms: N_16  and  S_19
REMARK    7  A    between atoms: S_19  and  C_22
REMARK    8  A    between atoms: C_24  and  C_29
REMARK                            x       y       z     vdW  Elec       q    Type
REMARK                         _______ _______ _______ _____ _____    ______ ____
ROOT
ATOM      1  N   UNL     1       0.572   1.689   0.054  0.00  0.00    -0.174 NA
ATOM      2  C   UNL     1      -0.743   2.304  -0.177  0.00  0.00    +0.126 C 
ATOM      3  C   UNL     1      -1.054   3.240   1.003  0.00  0.00    +0.126 C 
ATOM      4  N   UNL     1       0.106   4.113   1.227  0.00  0.00    -0.174 NA
ATOM      5  C   UNL     1       1.422   3.498   1.452  0.00  0.00    +0.126 C 
ATOM      6  C   UNL     1       1.733   2.562   0.278  0.00  0.00    +0.126 C 
ENDROOT
BRANCH   1   7
ATOM      7  S   UNL     1       0.744   0.042   0.054  0.00  0.00    +0.061 S 
ATOM      8  O   UNL     1      -0.336  -0.479  -0.709  0.00  0.00    -0.153 OA
ATOM      9  O   UNL     1       2.102  -0.225  -0.267  0.00  0.00    -0.153 OA
BRANCH   7  13
ATOM     10  C   UNL     1       0.118  -1.368   4.310  0.00  0.00    -0.045 A 
ATOM     11  C   UNL     1      -0.958  -1.275   3.448  0.00  0.00    +0.006 A 
ATOM     12  C   UNL     1      -0.767  -0.844   2.148  0.00  0.00    +0.029 A 
ATOM     13  C   UNL     1       0.500  -0.507   1.711  0.00  0.00    +0.105 A 
ATOM     14  C   UNL     1       1.577  -0.606   2.572  0.00  0.00    +0.029 A 
ATOM     15  C   UNL     1       1.386  -1.032   3.873  0.00  0.00    +0.006 A 
BRANCH  10  17
ATOM     16  C   UNL     1       0.734  -3.103   5.972  0.00  0.00    +0.012 C 
ATOM     17  C   UNL     1      -0.090  -1.837   5.727  0.00  0.00    +0.013 C 
ATOM     18  C   UNL     1       0.358  -0.741   6.697  0.00  0.00    +0.012 C 
ENDBRANCH  10  17
ENDBRANCH   7  13
ENDBRANCH   1   7
BRANCH   4  19
ATOM     19  S   UNL     1      -0.065   5.760   1.226  0.00  0.00    +0.062 S 
ATOM     20  O   UNL     1       1.157   6.295   0.737  0.00  0.00    -0.153 OA
ATOM     21  O   UNL     1      -1.317   6.038   0.613  0.00  0.00    -0.153 OA
BRANCH  19  22
ATOM     22  C   UNL     1      -0.203   6.271   2.906  0.00  0.00    +0.124 A 
ATOM     23  C   UNL     1       0.784   7.051   3.471  0.00  0.00    +0.045 A 
ATOM     24  C   UNL     1       0.671   7.460   4.802  0.00  0.00    +0.065 A 
ATOM     25  C   UNL     1      -0.437   7.066   5.556  0.00  0.00    +0.016 A 
ATOM     26  C   UNL     1      -1.414   6.281   4.981  0.00  0.00    +0.023 A 
ATOM     27  C   UNL     1      -1.299   5.884   3.659  0.00  0.00    +0.067 A 
ATOM     28 CL   UNL     1      -2.534   4.896   2.942  0.00  0.00    -0.082 Cl
BRANCH  24  29
ATOM     29  C   UNL     1       1.721   8.300   5.411  0.00  0.00    +0.387 C 
ATOM     30  O   UNL     1       2.684   8.641   4.754  0.00  0.00    -0.241 OA
ATOM     31  O   UNL     1       1.612   8.688   6.697  0.00  0.00    -0.241 OA
ENDBRANCH  24  29
ENDBRANCH  19  22
ENDBRANCH   4  19
TORSDOF 6
