REMARK  Name = ZINC02332813
REMARK  5 active torsions:
REMARK  status: ('A' for Active; 'I' for Inactive)
REMARK    1  A    between atoms: C_3  and  C_8
REMARK    2  A    between atoms: N_10  and  C_11
REMARK    3  A    between atoms: C_11  and  N_13
REMARK    4  A    between atoms: N_13  and  C_14
REMARK    5  A    between atoms: C_21  and  C_23
REMARK                            x       y       z     vdW  Elec       q    Type
REMARK                         _______ _______ _______ _____ _____    ______ ____
ROOT
ATOM      1  C   UNL     1      -7.968   1.564   0.153  0.00  0.00    +0.035 A 
ATOM      2  C   UNL     1      -7.255   0.426   0.522  0.00  0.00    +0.027 A 
ATOM      3  C   UNL     1      -5.877   0.415   0.462  0.00  0.00    +0.050 A 
ATOM      4  C   UNL     1      -5.193   1.542   0.033  0.00  0.00    +0.156 A 
ATOM      5  C   UNL     1      -5.905   2.693  -0.341  0.00  0.00    +0.112 A 
ATOM      6  C   UNL     1      -7.300   2.696  -0.278  0.00  0.00    +0.054 A 
ATOM      7  N   UNL     1      -4.983   3.619  -0.711  0.00  0.00    -0.209 NA
ATOM      8  C   UNL     1      -3.788   3.098  -0.582  0.00  0.00    +0.229 A 
ATOM      9  O   UNL     1      -3.882   1.831  -0.136  0.00  0.00    -0.435 OA
ENDROOT
BRANCH   8  10
ATOM     10  C   UNL     1      -2.524   3.795  -0.886  0.00  0.00    +0.045 A 
ATOM     11  C   UNL     1      -2.384   4.509  -2.067  0.00  0.00    +0.014 A 
ATOM     12  C   UNL     1      -1.196   5.167  -2.360  0.00  0.00    +0.001 A 
ATOM     13  C   UNL     1      -0.140   5.132  -1.500  0.00  0.00    +0.010 A 
ATOM     14  C   UNL     1      -0.237   4.421  -0.291  0.00  0.00    +0.001 A 
ATOM     15  C   UNL     1      -1.440   3.744   0.025  0.00  0.00    -0.004 A 
ATOM     16  C   UNL     1      -1.534   3.031   1.228  0.00  0.00    +0.009 A 
ATOM     17  C   UNL     1      -0.474   3.007   2.083  0.00  0.00    +0.002 A 
ATOM     18  C   UNL     1       0.711   3.672   1.775  0.00  0.00    +0.020 A 
ATOM     19  C   UNL     1       0.840   4.370   0.612  0.00  0.00    +0.049 A 
ATOM     20 CL   UNL     1       2.324   5.193   0.249  0.00  0.00    -0.083 Cl
ENDBRANCH   8  10
BRANCH   1  21
ATOM     21  N   UNL     1      -9.367   1.562   0.218  0.00  0.00    -0.297 N 
ATOM     22  H   UNL     1      -9.817   1.140   0.967  0.00  0.00    +0.154 HD
BRANCH  21  23
ATOM     23  C   UNL     1     -10.088   2.147  -0.759  0.00  0.00    +0.141 C 
ATOM     24  S   UNL     1      -9.304   2.759  -2.152  0.00  0.00    -0.018 S 
BRANCH  23  27
ATOM     25  C   UNL     1     -12.148   2.833  -1.617  0.00  0.00    +0.250 C 
ATOM     26  O   UNL     1     -11.591   3.268  -2.605  0.00  0.00    -0.270 OA
ATOM     27  N   UNL     1     -11.427   2.249  -0.639  0.00  0.00    -0.264 N 
ATOM     28  H   UNL     1     -11.871   1.902   0.150  0.00  0.00    +0.157 HD
BRANCH  25  31
ATOM     29  C   UNL     1     -15.628   2.554  -0.234  0.00  0.00    +0.002 A 
ATOM     30  C   UNL     1     -14.258   2.441  -0.353  0.00  0.00    +0.013 A 
ATOM     31  C   UNL     1     -13.615   2.945  -1.485  0.00  0.00    +0.038 A 
ATOM     32  C   UNL     1     -14.365   3.550  -2.496  0.00  0.00    +0.033 A 
ATOM     33  C   UNL     1     -15.736   3.651  -2.367  0.00  0.00    +0.042 A 
ATOM     34  C   UNL     1     -16.366   3.154  -1.238  0.00  0.00    +0.020 A 
ATOM     35 CL   UNL     1     -16.671   4.402  -3.622  0.00  0.00    -0.084 Cl
ENDBRANCH  25  31
ENDBRANCH  23  27
ENDBRANCH  21  23
ENDBRANCH   1  21
TORSDOF 5
