REMARK  Name = ZINC27755440
REMARK  8 active torsions:
REMARK  status: ('A' for Active; 'I' for Inactive)
REMARK    1  A    between atoms: C_1  and  C_2
REMARK    2  A    between atoms: C_2  and  C_4
REMARK    3  A    between atoms: C_7  and  C_10
REMARK    4  A    between atoms: C_13  and  C_15
REMARK    5  A    between atoms: C_17  and  C_29
REMARK    6  A    between atoms: C_19  and  C_24
REMARK    7  A    between atoms: C_19  and  O_28
REMARK    8  A    between atoms: C_29  and  C_31
REMARK                            x       y       z     vdW  Elec       q    Type
REMARK                         _______ _______ _______ _____ _____    ______ ____
ROOT
ATOM      1  C   UNL     1      -0.013   1.086   0.008  0.00  0.00    +0.156 C 
ATOM      2  C   UNL     1      -0.747   1.595  -1.237  0.00  0.00    +0.147 C 
ATOM      3  C   UNL     1       0.055   1.184  -2.477  0.00  0.00    +0.243 C 
ATOM      4  N   UNL     1       1.424   1.686  -2.353  0.00  0.00    -0.264 N 
ATOM      5  C   UNL     1       1.998   1.857  -1.153  0.00  0.00    +0.302 C 
ATOM      6  O   UNL     1       3.141   2.267  -1.105  0.00  0.00    -0.253 OA
ATOM      7  N   UNL     1       1.360   1.594  -0.002  0.00  0.00    -0.289 N 
ATOM      8  H   UNL     1       2.004   1.932  -3.255  0.00  0.00    +0.153 HD
ATOM      9  H   UNL     1       1.890   1.767   0.946  0.00  0.00    +0.151 HD
ENDROOT
BRANCH   1  13
ATOM     10  C   UNL     1      -1.381   2.881   2.880  0.00  0.00    +0.135 A 
ATOM     11  C   UNL     1      -2.002   1.681   3.052  0.00  0.00    +0.050 A 
ATOM     12  C   UNL     1      -1.573   0.849   2.001  0.00  0.00    +0.047 A 
ATOM     13  C   UNL     1      -0.721   1.573   1.246  0.00  0.00    +0.127 A 
ATOM     14  O   UNL     1      -0.603   2.797   1.783  0.00  0.00    -0.458 OA
BRANCH  10  18
ATOM     15  C   UNL     1      -1.810   6.283   5.373  0.00  0.00    +0.017 A 
ATOM     16  C   UNL     1      -0.968   6.335   4.255  0.00  0.00    +0.012 A 
ATOM     17  C   UNL     1      -0.831   5.240   3.453  0.00  0.00    +0.012 A 
ATOM     18  C   UNL     1      -1.531   4.064   3.747  0.00  0.00    +0.017 A 
ATOM     19  C   UNL     1      -2.377   4.013   4.861  0.00  0.00    +0.012 A 
ATOM     20  C   UNL     1      -2.511   5.106   5.667  0.00  0.00    +0.012 A 
BRANCH  15  22
ATOM     21  C   UNL     1      -2.865   7.404   7.439  0.00  0.00    +0.091 C 
ATOM     22  C   UNL     1      -1.959   7.461   6.237  0.00  0.00    +0.160 C 
ATOM     23  O   UNL     1      -1.351   8.480   5.982  0.00  0.00    -0.292 OA
ENDBRANCH  15  22
ENDBRANCH  10  18
ENDBRANCH   1  13
BRANCH   3  24
ATOM     24  C   UNL     1      -0.596   1.778  -3.728  0.00  0.00    +0.436 C 
ATOM     25  F   UNL     1       0.141   1.407  -4.858  0.00  0.00    -0.166 F 
ATOM     26  F   UNL     1      -1.905   1.297  -3.846  0.00  0.00    -0.166 F 
ATOM     27  F   UNL     1      -0.619   3.173  -3.625  0.00  0.00    -0.166 F 
ENDBRANCH   3  24
BRANCH   3  28
ATOM     28  O   UNL     1       0.076  -0.241  -2.581  0.00  0.00    -0.364 OA
ATOM     29  H   UNL     1       0.608  -0.724  -3.414  0.00  0.00    +0.212 HD
ENDBRANCH   3  28
BRANCH   2  30
ATOM     30  C   UNL     1      -0.858   3.097  -1.181  0.00  0.00    +0.173 C 
ATOM     31  O   UNL     1      -0.033   3.787  -1.741  0.00  0.00    -0.292 OA
BRANCH  30  32
ATOM     32  C   UNL     1      -1.966   3.725  -0.445  0.00  0.00    +0.018 A 
ATOM     33  C   UNL     1      -2.923   2.933   0.197  0.00  0.00    +0.011 A 
ATOM     34  C   UNL     1      -3.955   3.529   0.890  0.00  0.00    +0.001 A 
ATOM     35  C   UNL     1      -4.054   4.909   0.939  0.00  0.00    +0.000 A 
ATOM     36  C   UNL     1      -3.115   5.700   0.301  0.00  0.00    +0.001 A 
ATOM     37  C   UNL     1      -2.073   5.119  -0.390  0.00  0.00    +0.011 A 
ENDBRANCH  30  32
ENDBRANCH   2  30
TORSDOF 7
