REMARK  Name = ZINC64516715
REMARK  13 active torsions:
REMARK  status: ('A' for Active; 'I' for Inactive)
REMARK    1  A    between atoms: C_1  and  C_2
REMARK    2  A    between atoms: C_2  and  O_3
REMARK    3  A    between atoms: O_3  and  C_4
REMARK    4  A    between atoms: C_4  and  C_6
REMARK    5  A    between atoms: C_7  and  C_38
REMARK    6  A    between atoms: N_8  and  C_37
REMARK    7  A    between atoms: C_9  and  C_36
REMARK    8  A    between atoms: C_10  and  S_11
REMARK    9  A    between atoms: S_11  and  N_14
REMARK   10  A    between atoms: C_18  and  C_21
REMARK   11  A    between atoms: N_23  and  C_24
REMARK   12  A    between atoms: C_24  and  C_25
REMARK   13  A    between atoms: C_31  and  C_35
REMARK                            x       y       z     vdW  Elec       q    Type
REMARK                         _______ _______ _______ _____ _____    ______ ____
ROOT
ATOM      1  N   UNL     1      -3.677  -1.084   3.366  0.00  0.00    -0.176 NA
ATOM      2  C   UNL     1      -2.791   0.078   3.219  0.00  0.00    +0.109 C 
ATOM      3  C   UNL     1      -2.663   0.776   4.577  0.00  0.00    +0.018 C 
ATOM      4  C   UNL     1      -4.059   1.112   5.107  0.00  0.00    +0.015 C 
ATOM      5  C   UNL     1      -4.858  -0.178   5.300  0.00  0.00    +0.091 C 
ATOM      6  C   UNL     1      -5.013  -0.886   3.945  0.00  0.00    +0.122 C 
ENDROOT
BRANCH   5   7
ATOM      7  C   UNL     1      -6.221   0.151   5.852  0.00  0.00    +0.218 C 
ATOM      8  O   UNL     1      -7.217  -0.152   5.231  0.00  0.00    -0.275 OA
ATOM      9  N   UNL     1      -6.332   0.784   7.037  0.00  0.00    -0.311 N 
ATOM     10  H   UNL     1      -5.536   1.026   7.535  0.00  0.00    +0.149 HD
BRANCH   9  11
ATOM     11  C   UNL     1      -7.657   1.104   7.575  0.00  0.00    +0.150 C 
BRANCH  11  12
ATOM     12  C   UNL     1      -7.503   1.815   8.921  0.00  0.00    +0.191 C 
ATOM     13  N   UNL     1      -6.694   3.029   8.760  0.00  0.00    -0.362 N 
ATOM     14  C   UNL     1      -5.638   2.897   9.509  0.00  0.00    +0.060 A 
ATOM     15  C   UNL     1      -4.479   3.764   9.765  0.00  0.00    +0.027 A 
ATOM     16  C   UNL     1      -3.514   3.351  10.611  0.00  0.00    +0.005 A 
ATOM     17  C   UNL     1      -3.564   2.111  11.271  0.00  0.00    -0.048 A 
ATOM     18  C   UNL     1      -4.580   1.241  11.108  0.00  0.00    +0.030 A 
ATOM     19  C   UNL     1      -5.690   1.584  10.208  0.00  0.00    +0.060 A 
ATOM     20  N   UNL     1      -6.779   0.955   9.865  0.00  0.00    -0.362 N 
ATOM     21  C   UNL     1      -2.436   1.740  12.199  0.00  0.00    +0.044 C 
ATOM     22  H   UNL     1      -6.907   3.791   8.198  0.00  0.00    +0.162 HD
ATOM     23  H   UNL     1      -7.059   0.080  10.175  0.00  0.00    +0.162 HD
ENDBRANCH  11  12
ENDBRANCH   9  11
ENDBRANCH   5   7
BRANCH   1  24
ATOM     24  S   UNL     1      -3.182  -2.589   2.883  0.00  0.00    +0.063 S 
ATOM     25  O   UNL     1      -3.953  -3.527   3.622  0.00  0.00    -0.153 OA
ATOM     26  O   UNL     1      -1.762  -2.578   2.912  0.00  0.00    -0.153 OA
BRANCH  24  31
ATOM     27  C   UNL     1      -2.849  -2.418   0.016  0.00  0.00    +0.106 A 
ATOM     28  C   UNL     1      -3.619  -2.745  -1.079  0.00  0.00    +0.031 A 
ATOM     29  N   UNL     1      -4.787  -3.248  -0.636  0.00  0.00    -0.349 N 
ATOM     30  C   UNL     1      -4.811  -3.264   0.728  0.00  0.00    +0.043 A 
ATOM     31  C   UNL     1      -3.649  -2.773   1.194  0.00  0.00    +0.140 A 
ATOM     32  C   UNL     1      -5.954  -3.758   1.577  0.00  0.00    +0.065 C 
ATOM     33  C   UNL     1      -5.877  -3.714  -1.497  0.00  0.00    +0.149 C 
ATOM     34  C   UNL     1      -3.224  -2.569  -2.522  0.00  0.00    +0.064 C 
BRANCH  27  35
ATOM     35  C   UNL     1      -1.497  -1.837   0.006  0.00  0.00    +0.343 C 
ATOM     36  O   UNL     1      -0.523  -2.564  -0.007  0.00  0.00    -0.245 OA
BRANCH  35  37
ATOM     37  O   UNL     1      -1.339  -0.499   0.012  0.00  0.00    -0.461 OA
BRANCH  37  39
ATOM     38  C   UNL     1      -0.019   1.526   0.010  0.00  0.00    +0.048 C 
ATOM     39  C   UNL     1       0.002  -0.004   0.002  0.00  0.00    +0.229 C 
ENDBRANCH  37  39
ENDBRANCH  35  37
ENDBRANCH  27  35
ENDBRANCH  24  31
ENDBRANCH   1  24
TORSDOF 8
