REMARK  Name = ZINC10701136
REMARK  12 active torsions:
REMARK  status: ('A' for Active; 'I' for Inactive)
REMARK    1  A    between atoms: C_1  and  C_2
REMARK    2  A    between atoms: C_2  and  N_3
REMARK    3  A    between atoms: N_3  and  C_4
REMARK    4  A    between atoms: C_4  and  C_5
REMARK    5  A    between atoms: N_7  and  C_8
REMARK    6  A    between atoms: C_11  and  N_14
REMARK    7  A    between atoms: C_15  and  C_17
REMARK    8  A    between atoms: C_18  and  C_20
REMARK    9  A    between atoms: C_27  and  C_30
REMARK   10  A    between atoms: C_30  and  C_31
REMARK   11  A    between atoms: C_30  and  C_32
REMARK   12  A    between atoms: C_30  and  C_33
REMARK                            x       y       z     vdW  Elec       q    Type
REMARK                         _______ _______ _______ _____ _____    ______ ____
ROOT
ATOM      1  N   UNL     1       3.783   2.670  -0.013  0.00  0.00    -0.289 N 
ATOM      2  C   UNL     1       2.626   2.002  -0.194  0.00  0.00    +0.254 C 
ATOM      3  O   UNL     1       1.573   2.610  -0.241  0.00  0.00    -0.269 OA
ENDROOT
BRANCH   2   4
ATOM      4  C   UNL     1       2.637   0.543  -0.335  0.00  0.00    +0.075 A 
ATOM      5  C   UNL     1       1.570  -0.335  -0.398  0.00  0.00    +0.024 A 
ATOM      6  C   UNL     1       1.843  -1.687  -0.528  0.00  0.00    -0.036 A 
ATOM      7  C   UNL     1       3.159  -2.046  -0.594  0.00  0.00    -0.006 A 
ATOM      8  S   UNL     1       4.030  -0.565  -0.470  0.00  0.00    -0.088 S 
ATOM      9  C   UNL     1       3.711  -3.430  -0.738  0.00  0.00    +0.043 C 
ATOM     10  C   UNL     1       2.589  -4.434  -0.436  0.00  0.00    +0.009 C 
ATOM     11  C   UNL     1       1.337  -4.022  -1.216  0.00  0.00    -0.001 C 
ATOM     12  C   UNL     1       0.746  -2.745  -0.617  0.00  0.00    +0.040 C 
BRANCH  11  13
ATOM     13  C   UNL     1       0.301  -5.145  -1.144  0.00  0.00    -0.035 C 
ATOM     14  C   UNL     1      -0.070  -5.403   0.317  0.00  0.00    +0.011 C 
ATOM     15  C   UNL     1      -0.950  -4.735  -1.924  0.00  0.00    +0.011 C 
ATOM     16  C   UNL     1       0.887  -6.420  -1.754  0.00  0.00    +0.011 C 
ENDBRANCH  11  13
ENDBRANCH   2   4
BRANCH   1  18
ATOM     17  C   UNL     1       3.777   4.412   1.704  0.00  0.00    +0.024 C 
ATOM     18  C   UNL     1       3.765   4.119   0.202  0.00  0.00    +0.105 C 
ENDBRANCH   1  18
BRANCH   1  19
ATOM     19  C   UNL     1       5.057   1.946  -0.030  0.00  0.00    +0.204 C 
BRANCH  19  20
ATOM     20  C   UNL     1       5.507   1.758  -1.456  0.00  0.00    +0.235 C 
ATOM     21  O   UNL     1       4.831   2.185  -2.367  0.00  0.00    -0.274 OA
ATOM     22  N   UNL     1       6.662   1.114  -1.718  0.00  0.00    -0.284 N 
ATOM     23  H   UNL     1       7.169   0.714  -0.994  0.00  0.00    +0.155 HD
BRANCH  22  24
ATOM     24  C   UNL     1       7.130   1.023  -3.035  0.00  0.00    +0.034 A 
ATOM     25  C   UNL     1       6.230   0.874  -4.082  0.00  0.00    +0.025 A 
ATOM     26  C   UNL     1       6.691   0.788  -5.381  0.00  0.00    +0.025 A 
ATOM     27  C   UNL     1       8.055   0.841  -5.639  0.00  0.00    +0.033 A 
ATOM     28  C   UNL     1       8.954   0.984  -4.591  0.00  0.00    +0.025 A 
ATOM     29  C   UNL     1       8.493   1.075  -3.293  0.00  0.00    +0.025 A 
BRANCH  27  30
ATOM     30  N   UNL     1       8.522   0.749  -6.956  0.00  0.00    -0.286 N 
ATOM     31  C   UNL     1       7.794   1.264  -7.967  0.00  0.00    +0.214 C 
ATOM     32  O   UNL     1       6.783   1.889  -7.728  0.00  0.00    -0.276 OA
ATOM     33  C   UNL     1       8.237   1.062  -9.393  0.00  0.00    +0.109 C 
ATOM     34  H   UNL     1       9.370   0.316  -7.140  0.00  0.00    +0.155 HD
ENDBRANCH  27  30
ENDBRANCH  22  24
ENDBRANCH  19  20
ENDBRANCH   1  19
TORSDOF 7
