REMARK  Name = ZINC15388014
REMARK  7 active torsions:
REMARK  status: ('A' for Active; 'I' for Inactive)
REMARK    1  A    between atoms: C_1  and  C_2
REMARK    2  A    between atoms: C_5  and  C_28
REMARK    3  A    between atoms: N_6  and  C_7
REMARK    4  A    between atoms: C_10  and  C_13
REMARK    5  A    between atoms: N_15  and  C_16
REMARK    6  A    between atoms: C_16  and  C_17
REMARK    7  A    between atoms: N_19  and  C_20
REMARK                            x       y       z     vdW  Elec       q    Type
REMARK                         _______ _______ _______ _____ _____    ______ ____
ROOT
ATOM      1  C   UNL     1      -4.543  -3.354   0.024  0.00  0.00    +0.244 C 
ATOM      2  O   UNL     1      -4.781  -4.061  -0.935  0.00  0.00    -0.270 OA
ATOM      3  N   UNL     1      -5.364  -3.368   1.093  0.00  0.00    -0.303 N 
ATOM      4  H   UNL     1      -5.174  -2.803   1.858  0.00  0.00    +0.150 HD
ENDROOT
BRANCH   1   8
ATOM      5  C   UNL     1      -1.121  -0.837   0.008  0.00  0.00    +0.047 A 
ATOM      6  C   UNL     1      -1.965  -0.854   1.114  0.00  0.00    +0.027 A 
ATOM      7  C   UNL     1      -3.078  -1.665   1.120  0.00  0.00    +0.015 A 
ATOM      8  C   UNL     1      -3.354  -2.478   0.018  0.00  0.00    +0.037 A 
ATOM      9  C   UNL     1      -2.501  -2.462  -1.089  0.00  0.00    +0.015 A 
ATOM     10  C   UNL     1      -1.393  -1.645  -1.090  0.00  0.00    +0.027 A 
BRANCH   5  16
ATOM     11  C   UNL     1      -1.240   2.228   0.040  0.00  0.00    +0.064 C 
ATOM     12  C   UNL     1      -0.010   1.357   0.019  0.00  0.00    +0.021 A 
ATOM     13  C   UNL     1       1.266   1.793   0.008  0.00  0.00    +0.023 A 
ATOM     14  C   UNL     1       2.101   0.657  -0.016  0.00  0.00    +0.023 A 
ATOM     15  C   UNL     1       1.304  -0.431  -0.018  0.00  0.00    +0.021 A 
ATOM     16  N   UNL     1       0.005  -0.009   0.003  0.00  0.00    -0.318 N 
ATOM     17  C   UNL     1       1.767  -1.865  -0.042  0.00  0.00    +0.064 C 
ENDBRANCH   5  16
ENDBRANCH   1   8
BRANCH   3  18
ATOM     18  C   UNL     1      -6.544  -4.236   1.098  0.00  0.00    +0.200 C 
BRANCH  18  19
ATOM     19  C   UNL     1      -7.287  -4.065   2.398  0.00  0.00    +0.234 C 
ATOM     20  O   UNL     1      -6.872  -3.294   3.237  0.00  0.00    -0.274 OA
ATOM     21  N   UNL     1      -8.413  -4.769   2.628  0.00  0.00    -0.284 N 
ATOM     22  H   UNL     1      -8.782  -5.335   1.931  0.00  0.00    +0.155 HD
BRANCH  21  23
ATOM     23  C   UNL     1      -9.051  -4.684   3.871  0.00  0.00    +0.036 A 
ATOM     24  C   UNL     1      -9.684  -5.798   4.406  0.00  0.00    +0.026 A 
ATOM     25  C   UNL     1     -10.307  -5.715   5.636  0.00  0.00    +0.043 A 
ATOM     26  C   UNL     1     -10.312  -4.518   6.331  0.00  0.00    +0.159 A 
ATOM     27  C   UNL     1      -9.686  -3.401   5.797  0.00  0.00    +0.160 A 
ATOM     28  C   UNL     1      -9.055  -3.483   4.569  0.00  0.00    +0.064 A 
ATOM     29  F   UNL     1      -9.691  -2.234   6.477  0.00  0.00    -0.202 F 
ATOM     30  F   UNL     1     -10.927  -4.437   7.531  0.00  0.00    -0.202 F 
ENDBRANCH  21  23
ENDBRANCH  18  19
ENDBRANCH   3  18
TORSDOF 5
