REMARK  Name = ZINC39654052
REMARK  9 active torsions:
REMARK  status: ('A' for Active; 'I' for Inactive)
REMARK    1  A    between atoms: C_1  and  C_2
REMARK    2  A    between atoms: C_2  and  O_3
REMARK    3  A    between atoms: O_3  and  C_4
REMARK    4  A    between atoms: C_7  and  C_10
REMARK    5  A    between atoms: C_10  and  C_11
REMARK    6  A    between atoms: C_11  and  N_12
REMARK    7  A    between atoms: C_13  and  C_15
REMARK    8  A    between atoms: C_26  and  C_28
REMARK    9  A    between atoms: C_31  and  C_33
REMARK                            x       y       z     vdW  Elec       q    Type
REMARK                         _______ _______ _______ _____ _____    ______ ____
ROOT
ATOM      1  C   UNL     1      -2.477 -10.232   2.581  0.00  0.00    +0.100 C 
ATOM      2  C   UNL     1      -3.876 -10.605   2.042  0.00  0.00    +0.121 C 
ATOM      3  N   UNL     1      -4.295 -11.766   2.863  0.00  0.00    -0.294 N 
ATOM      4  C   UNL     1      -3.824 -11.440   4.230  0.00  0.00    +0.115 C 
ATOM      5  C   UNL     1      -2.447 -10.780   4.018  0.00  0.00    -0.004 C 
ATOM      6  C   UNL     1      -2.248  -9.642   5.014  0.00  0.00    -0.010 C 
ATOM      7  C   UNL     1      -2.163 -10.219   6.430  0.00  0.00    -0.082 C 
ATOM      8  N   UNL     1      -1.044 -11.166   6.509  0.00  0.00    +0.379 N 
ATOM      9  C   UNL     1      -1.289 -12.305   5.615  0.00  0.00    -0.082 C 
ATOM     10  C   UNL     1      -1.337 -11.816   4.164  0.00  0.00    -0.010 C 
ATOM     11  C   UNL     1      -4.955 -12.869   2.458  0.00  0.00    +0.282 C 
ATOM     12  O   UNL     1      -5.231 -13.742   3.259  0.00  0.00    -0.267 OA
ATOM     13  H   UNL     1      -0.192 -10.701   6.234  0.00  0.00    -0.086 HD
ATOM     14  H   UNL     1      -0.953 -11.498   7.457  0.00  0.00    -0.086 HD
ENDROOT
BRANCH  11  15
ATOM     15  C   UNL     1      -5.341 -13.016   1.052  0.00  0.00    +0.190 A 
ATOM     16  C   UNL     1      -6.021 -14.084   0.508  0.00  0.00    +0.055 A 
ATOM     17  C   UNL     1      -6.177 -13.811  -0.855  0.00  0.00    +0.050 A 
ATOM     18  C   UNL     1      -5.594 -12.598  -1.090  0.00  0.00    +0.136 A 
ATOM     19  O   UNL     1      -5.099 -12.127   0.066  0.00  0.00    -0.450 OA
BRANCH  18  20
ATOM     20  C   UNL     1      -5.524 -11.917  -2.398  0.00  0.00    +0.017 A 
ATOM     21  C   UNL     1      -6.089 -12.510  -3.529  0.00  0.00    +0.014 A 
ATOM     22  C   UNL     1      -6.021 -11.869  -4.748  0.00  0.00    +0.039 A 
ATOM     23  C   UNL     1      -5.393 -10.637  -4.852  0.00  0.00    +0.123 A 
ATOM     24  C   UNL     1      -4.829 -10.044  -3.733  0.00  0.00    +0.039 A 
ATOM     25  C   UNL     1      -4.896 -10.674  -2.508  0.00  0.00    +0.014 A 
ATOM     26  F   UNL     1      -5.329 -10.013  -6.048  0.00  0.00    -0.205 F 
ENDBRANCH  18  20
ENDBRANCH  11  15
BRANCH   1  28
ATOM     27  N   UNL     1      -1.069  -8.201   2.453  0.00  0.00    -0.315 N 
ATOM     28  C   UNL     1      -2.300  -8.735   2.587  0.00  0.00    +0.218 C 
ATOM     29  O   UNL     1      -3.264  -8.011   2.714  0.00  0.00    -0.275 OA
ATOM     30  H   UNL     1      -0.298  -8.781   2.352  0.00  0.00    +0.149 HD
BRANCH  27  31
ATOM     31  C   UNL     1      -0.897  -6.747   2.459  0.00  0.00    +0.109 C 
BRANCH  31  32
ATOM     32  C   UNL     1       0.585  -6.408   2.291  0.00  0.00    +0.054 C 
BRANCH  32  36
ATOM     33  C   UNL     1       1.088  -2.164   2.309  0.00  0.00    +0.121 A 
ATOM     34  C   UNL     1       1.147  -2.876   3.498  0.00  0.00    +0.046 A 
ATOM     35  C   UNL     1       0.984  -4.247   3.490  0.00  0.00    +0.007 A 
ATOM     36  C   UNL     1       0.762  -4.911   2.297  0.00  0.00    -0.046 A 
ATOM     37  C   UNL     1       0.704  -4.205   1.110  0.00  0.00    +0.007 A 
ATOM     38  C   UNL     1       0.861  -2.832   1.114  0.00  0.00    +0.046 A 
BRANCH  33  39
ATOM     39  O   UNL     1       1.248  -0.815   2.314  0.00  0.00    -0.492 OA
BRANCH  39  41
ATOM     40  C   UNL     1       1.633   1.316   3.388  0.00  0.00    +0.048 C 
ATOM     41  C   UNL     1       1.479  -0.194   3.581  0.00  0.00    +0.225 C 
ENDBRANCH  39  41
ENDBRANCH  33  39
ENDBRANCH  32  36
ENDBRANCH  31  32
ENDBRANCH  27  31
ENDBRANCH   1  28
TORSDOF 8
