REMARK  Name = ZINC19819604
REMARK  5 active torsions:
REMARK  status: ('A' for Active; 'I' for Inactive)
REMARK    1  A    between atoms: C_1  and  C_2
REMARK    2  A    between atoms: C_2  and  O_3
REMARK    3  A    between atoms: O_3  and  C_4
REMARK    4  A    between atoms: C_4  and  C_6
REMARK    5  A    between atoms: C_7  and  C_24
REMARK                            x       y       z     vdW  Elec       q    Type
REMARK                         _______ _______ _______ _____ _____    ______ ____
ROOT
ATOM      1  C   UNL     1      -1.968   7.923   0.058  0.00  0.00    +0.120 A 
ATOM      2  C   UNL     1      -3.265   7.426   0.073  0.00  0.00    +0.062 A 
ATOM      3  N   UNL     1      -3.420   6.128   0.070  0.00  0.00    -0.229 NA
ATOM      4  C   UNL     1      -2.382   5.305   0.052  0.00  0.00    +0.165 A 
ATOM      5  S   UNL     1      -1.033   6.399   0.046  0.00  0.00    -0.045 S 
ATOM      6  N   UNL     1      -2.374   3.923   0.047  0.00  0.00    -0.264 N 
ATOM      7  C   UNL     1      -1.181   3.244   0.028  0.00  0.00    +0.202 A 
ATOM      8  N   UNL     1      -1.186   1.883   0.018  0.00  0.00    -0.295 N 
ATOM      9  H   UNL     1      -2.140   1.336   0.017  0.00  0.00    +0.172 HD
ATOM     10  C   UNL     1      -0.015   1.216   0.009  0.00  0.00    +0.256 A 
ATOM     11  O   UNL     1       0.002  -0.004   0.002  0.00  0.00    -0.267 OA
ATOM     12  C   UNL     1       1.193   1.948   0.001  0.00  0.00    +0.038 A 
ATOM     13  C   UNL     1       1.137   3.304  -0.001  0.00  0.00    +0.053 A 
ATOM     14  N   UNL     1      -0.053   3.917   0.015  0.00  0.00    -0.220 NA
ATOM     15  C   UNL     1       2.371   4.168  -0.022  0.00  0.00    +0.056 C 
ATOM     16  C   UNL     1       3.598   3.363   0.404  0.00  0.00    +0.006 C 
ATOM     17  C   UNL     1       3.645   2.077  -0.430  0.00  0.00    +0.005 C 
ATOM     18  C   UNL     1       2.487   1.180   0.004  0.00  0.00    +0.042 C 
ATOM     19  C   UNL     1      -4.453   8.352   0.092  0.00  0.00    +0.067 C 
ATOM     20  H   UNL     1      -3.324   3.368   0.058  0.00  0.00    +0.157 HD
ENDROOT
BRANCH   1  21
ATOM     21  C   UNL     1      -1.512   9.265   0.058  0.00  0.00    +0.348 C 
ATOM     22  O   UNL     1      -2.314  10.180   0.073  0.00  0.00    -0.244 OA
BRANCH  21  23
ATOM     23  O   UNL     1      -0.189   9.529   0.041  0.00  0.00    -0.461 OA
BRANCH  23  25
ATOM     24  C   UNL     1       1.726  11.003   0.022  0.00  0.00    +0.048 C 
ATOM     25  C   UNL     1       0.199  10.904   0.042  0.00  0.00    +0.229 C 
ENDBRANCH  23  25
ENDBRANCH  21  23
ENDBRANCH   1  21
TORSDOF 3
