REMARK  Name = ZINC36531395
REMARK  11 active torsions:
REMARK  status: ('A' for Active; 'I' for Inactive)
REMARK    1  A    between atoms: C_1  and  C_2
REMARK    2  A    between atoms: C_5  and  S_8
REMARK    3  A    between atoms: S_8  and  C_11
REMARK    4  A    between atoms: C_11  and  N_12
REMARK    5  A    between atoms: C_13  and  C_15
REMARK    6  A    between atoms: C_15  and  C_17
REMARK    7  A    between atoms: C_15  and  N_22
REMARK    8  A    between atoms: N_22  and  C_23
REMARK    9  A    between atoms: C_24  and  C_26
REMARK   10  A    between atoms: C_30  and  O_33
REMARK   11  A    between atoms: C_31  and  O_32
REMARK                            x       y       z     vdW  Elec       q    Type
REMARK                         _______ _______ _______ _____ _____    ______ ____
ROOT
ATOM      1  C   UNL     1       3.308  -4.764   3.639  0.00  0.00    +0.228 C 
ENDROOT
BRANCH   1   2
ATOM      2  C   UNL     1       4.550  -3.924   3.487  0.00  0.00    +0.134 A 
ATOM      3  C   UNL     1       4.581  -2.589   3.320  0.00  0.00    +0.047 A 
ATOM      4  C   UNL     1       5.943  -2.221   3.222  0.00  0.00    +0.041 A 
ATOM      5  C   UNL     1       6.662  -3.352   3.335  0.00  0.00    +0.195 A 
ATOM      6  O   UNL     1       5.813  -4.379   3.501  0.00  0.00    -0.465 OA
ENDBRANCH   1   2
BRANCH   1   8
ATOM      7  N   UNL     1       2.736  -4.671   1.234  0.00  0.00    -0.294 N 
ATOM      8  C   UNL     1       2.985  -5.425   2.324  0.00  0.00    +0.242 C 
ATOM      9  O   UNL     1       2.947  -6.634   2.246  0.00  0.00    -0.273 OA
ATOM     10  H   UNL     1       2.766  -3.704   1.297  0.00  0.00    +0.150 HD
BRANCH   7  11
ATOM     11  C   UNL     1       2.422  -5.313  -0.044  0.00  0.00    +0.278 C 
BRANCH  11  12
ATOM     12  S   UNL     1       0.622  -5.419  -0.241  0.00  0.00    +0.013 S 
ATOM     13  O   UNL     1       0.028  -5.921   0.948  0.00  0.00    -0.168 OA
ATOM     14  O   UNL     1       0.300  -5.982  -1.505  0.00  0.00    -0.168 OA
BRANCH  12  19
ATOM     15  C   UNL     1      -1.242   0.309  -0.591  0.00  0.00    +0.044 C 
ATOM     16  C   UNL     1      -0.776  -1.121  -0.504  0.00  0.00    -0.050 A 
ATOM     17  C   UNL     1      -0.430  -1.807  -1.653  0.00  0.00    +0.005 A 
ATOM     18  C   UNL     1      -0.003  -3.119  -1.573  0.00  0.00    +0.027 A 
ATOM     19  C   UNL     1       0.078  -3.746  -0.343  0.00  0.00    +0.090 A 
ATOM     20  C   UNL     1      -0.267  -3.060   0.806  0.00  0.00    +0.027 A 
ATOM     21  C   UNL     1      -0.690  -1.746   0.726  0.00  0.00    +0.005 A 
ENDBRANCH  12  19
ENDBRANCH  11  12
ENDBRANCH   7  11
ENDBRANCH   1   8
BRANCH   1  22
ATOM     22  N   UNL     1       3.535  -5.791   4.659  0.00  0.00    -0.282 N 
ATOM     23  C   UNL     1       4.608  -6.773   4.483  0.00  0.00    +0.133 C 
ATOM     24  C   UNL     1       2.758  -5.832   5.759  0.00  0.00    +0.251 C 
ATOM     25  O   UNL     1       1.808  -5.080   5.860  0.00  0.00    -0.270 OA
BRANCH  24  26
ATOM     26  C   UNL     1       3.059  -6.790   6.840  0.00  0.00    +0.082 A 
ATOM     27  C   UNL     1       4.378  -6.979   7.264  0.00  0.00    +0.017 A 
ATOM     28  C   UNL     1       4.655  -7.873   8.274  0.00  0.00    +0.005 A 
ATOM     29  C   UNL     1       3.633  -8.591   8.874  0.00  0.00    +0.049 A 
ATOM     30  C   UNL     1       2.322  -8.415   8.465  0.00  0.00    +0.159 A 
ATOM     31  C   UNL     1       2.026  -7.511   7.449  0.00  0.00    +0.171 A 
BRANCH  31  32
ATOM     32  O   UNL     1       0.741  -7.332   7.049  0.00  0.00    -0.503 OA
ATOM     33  H   UNL     1       0.465  -7.924   6.336  0.00  0.00    +0.292 HD
ENDBRANCH  31  32
BRANCH  30  34
ATOM     34  O   UNL     1       1.324  -9.123   9.058  0.00  0.00    -0.503 OA
ATOM     35  H   UNL     1       0.935  -8.685   9.827  0.00  0.00    +0.292 HD
ENDBRANCH  30  34
ENDBRANCH  24  26
ENDBRANCH   1  22
TORSDOF 9
