REMARK  Name = ZINC29566278
REMARK  12 active torsions:
REMARK  status: ('A' for Active; 'I' for Inactive)
REMARK    1  A    between atoms: C_1  and  C_2
REMARK    2  A    between atoms: C_5  and  N_28
REMARK    3  A    between atoms: C_6  and  N_9
REMARK    4  A    between atoms: C_7  and  C_8
REMARK    5  A    between atoms: C_10  and  C_12
REMARK    6  A    between atoms: C_12  and  C_14
REMARK    7  A    between atoms: C_12  and  N_15
REMARK    8  A    between atoms: N_15  and  C_16
REMARK    9  A    between atoms: C_19  and  N_22
REMARK   10  A    between atoms: C_23  and  C_25
REMARK   11  A    between atoms: C_25  and  C_26
REMARK   12  A    between atoms: C_25  and  C_27
REMARK                            x       y       z     vdW  Elec       q    Type
REMARK                         _______ _______ _______ _____ _____    ______ ____
ROOT
ATOM      1  C   UNL     1       0.595   8.561   0.912  0.00  0.00    +0.154 C 
ATOM      2  C   UNL     1       1.922   8.541   1.674  0.00  0.00    +0.038 C 
ENDROOT
BRANCH   1   4
ATOM      3  N   UNL     1       1.122  10.650  -0.303  0.00  0.00    -0.282 N 
ATOM      4  C   UNL     1       0.275   9.975   0.499  0.00  0.00    +0.237 C 
ATOM      5  O   UNL     1      -0.744  10.504   0.888  0.00  0.00    -0.273 OA
ATOM      6  H   UNL     1       1.998  10.141  -0.732  0.00  0.00    +0.155 HD
BRANCH   3  12
ATOM      7  C   UNL     1      -1.843  14.142  -2.090  0.00  0.00    +0.044 C 
ATOM      8  C   UNL     1      -0.542  13.719  -1.457  0.00  0.00    -0.046 A 
ATOM      9  C   UNL     1       0.421  14.666  -1.161  0.00  0.00    +0.006 A 
ATOM     10  C   UNL     1       1.616  14.283  -0.581  0.00  0.00    +0.035 A 
ATOM     11  C   UNL     1       1.849  12.953  -0.290  0.00  0.00    +0.148 A 
ATOM     12  C   UNL     1       0.886  11.999  -0.591  0.00  0.00    +0.067 A 
ATOM     13  C   UNL     1      -0.313  12.387  -1.174  0.00  0.00    -0.024 A 
ATOM     14  C   UNL     1      -1.363  11.356  -1.497  0.00  0.00    +0.046 C 
BRANCH  11  15
ATOM     15  N   UNL     1       3.126  12.544   0.337  0.00  0.00    +0.058 N 
ATOM     16  O   UNL     1       3.932  13.389   0.684  0.00  0.00    -0.126 OA
ATOM     17  O   UNL     1       3.371  11.363   0.506  0.00  0.00    -0.126 OA
ENDBRANCH  11  15
ENDBRANCH   3  12
ENDBRANCH   1   4
BRANCH   1  18
ATOM     18  N   UNL     1      -0.472   8.052   1.777  0.00  0.00    -0.333 N 
ATOM     19  H   UNL     1      -1.095   8.752   2.353  0.00  0.00    +0.147 HD
BRANCH  18  20
ATOM     20  C   UNL     1      -0.701   6.675   1.869  0.00  0.00    +0.028 A 
ATOM     21  C   UNL     1      -1.713   6.192   2.688  0.00  0.00    +0.025 A 
ATOM     22  C   UNL     1      -1.937   4.832   2.779  0.00  0.00    +0.025 A 
ATOM     23  C   UNL     1      -1.152   3.949   2.052  0.00  0.00    +0.034 A 
ATOM     24  C   UNL     1      -0.137   4.431   1.237  0.00  0.00    +0.025 A 
ATOM     25  C   UNL     1       0.085   5.790   1.141  0.00  0.00    +0.025 A 
BRANCH  23  26
ATOM     26  N   UNL     1      -1.380   2.569   2.145  0.00  0.00    -0.285 N 
ATOM     27  C   UNL     1      -1.185   1.780   1.070  0.00  0.00    +0.220 C 
ATOM     28  O   UNL     1      -0.879   2.271   0.004  0.00  0.00    -0.275 OA
ATOM     29  H   UNL     1      -1.717   2.130   3.095  0.00  0.00    +0.155 HD
BRANCH  27  30
ATOM     30  C   UNL     1      -1.355   0.287   1.190  0.00  0.00    +0.069 C 
ATOM     31  C   UNL     1      -2.785  -0.029   1.633  0.00  0.00    +0.017 C 
ATOM     32  C   UNL     1      -1.085  -0.368  -0.167  0.00  0.00    +0.017 C 
ENDBRANCH  27  30
ENDBRANCH  23  26
ENDBRANCH  18  20
ENDBRANCH   1  18
TORSDOF 7
