REMARK  Name = ZINC24338032
REMARK  11 active torsions:
REMARK  status: ('A' for Active; 'I' for Inactive)
REMARK    1  A    between atoms: C_1  and  O_2
REMARK    2  A    between atoms: O_2  and  C_3
REMARK    3  A    between atoms: C_3  and  C_4
REMARK    4  A    between atoms: C_4  and  C_5
REMARK    5  A    between atoms: C_5  and  N_6
REMARK    6  A    between atoms: C_7  and  C_9
REMARK    7  A    between atoms: C_9  and  N_10
REMARK    8  A    between atoms: N_13  and  C_16
REMARK    9  A    between atoms: C_16  and  C_17
REMARK   10  A    between atoms: N_19  and  C_20
REMARK   11  A    between atoms: C_21  and  C_29
REMARK                            x       y       z     vdW  Elec       q    Type
REMARK                         _______ _______ _______ _____ _____    ______ ____
ROOT
ATOM      1  C   UNL     1      -0.018   1.465   0.010  0.00  0.00    +0.180 C 
ENDROOT
BRANCH   1   5
ATOM      2  N   UNL     1       1.225  -2.568  -0.193  0.00  0.00    +0.387 N 
ATOM      3  C   UNL     1       0.397  -2.046  -1.289  0.00  0.00    -0.063 C 
ATOM      4  C   UNL     1       0.466  -0.517  -1.294  0.00  0.00    +0.066 C 
ATOM      5  N   UNL     1       0.002  -0.004   0.002  0.00  0.00    -0.298 NA
ATOM      6  C   UNL     1       0.830  -0.526   1.099  0.00  0.00    +0.066 C 
ATOM      7  C   UNL     1       0.761  -2.054   1.104  0.00  0.00    -0.063 C 
ATOM      8  H   UNL     1       2.255  -2.216  -0.348  0.00  0.00    -0.081 HD
BRANCH   2   9
ATOM      9  C   UNL     1       1.245  -4.037  -0.201  0.00  0.00    +0.019 C 
BRANCH   9  11
ATOM     10  N   UNL     1       2.483  -5.854   0.931  0.00  0.00    -0.317 N 
ATOM     11  C   UNL     1       2.286  -4.530   0.770  0.00  0.00    +0.196 C 
ATOM     12  O   UNL     1       2.947  -3.737   1.406  0.00  0.00    -0.278 OA
ATOM     13  H   UNL     1       1.884  -6.573   0.355  0.00  0.00    +0.149 HD
BRANCH  10  14
ATOM     14  C   UNL     1       3.496  -6.333   1.875  0.00  0.00    +0.106 C 
BRANCH  14  15
ATOM     15  C   UNL     1       3.517  -7.863   1.867  0.00  0.00    +0.047 C 
BRANCH  15  16
ATOM     16  C   UNL     1       4.574  -8.364   2.853  0.00  0.00    +0.161 C 
BRANCH  16  18
ATOM     17  C   UNL     1       5.552 -10.367   3.736  0.00  0.00    +0.193 C 
ATOM     18  O   UNL     1       4.594  -9.793   2.845  0.00  0.00    -0.383 OA
ENDBRANCH  16  18
ENDBRANCH  15  16
ENDBRANCH  14  15
ENDBRANCH  10  14
ENDBRANCH   9  11
ENDBRANCH   2   9
ENDBRANCH   1   5
BRANCH   1  19
ATOM     19  C   UNL     1      -0.723   1.951   1.250  0.00  0.00    +0.232 C 
ATOM     20  O   UNL     1      -1.166   1.152   2.048  0.00  0.00    -0.274 OA
ATOM     21  N   UNL     1      -0.862   3.273   1.472  0.00  0.00    -0.278 N 
ATOM     22  H   UNL     1      -0.461   3.997   0.748  0.00  0.00    +0.155 HD
BRANCH  21  23
ATOM     23  C   UNL     1      -1.511   3.720   2.612  0.00  0.00    +0.084 A 
ATOM     24  C   UNL     1      -1.746   5.027   3.015  0.00  0.00    +0.068 A 
ATOM     25  C   UNL     1      -2.460   5.228   4.264  0.00  0.00    -0.023 A 
ATOM     26  C   UNL     1      -2.814   4.097   4.912  0.00  0.00    -0.004 A 
ATOM     27  S   UNL     1      -2.220   2.782   3.886  0.00  0.00    -0.077 S 
ATOM     28  C   UNL     1      -3.547   3.993   6.214  0.00  0.00    +0.043 C 
ATOM     29  C   UNL     1      -3.514   5.368   6.898  0.00  0.00    +0.005 C 
ATOM     30  C   UNL     1      -3.909   6.437   5.876  0.00  0.00    +0.005 C 
ATOM     31  C   UNL     1      -2.799   6.599   4.836  0.00  0.00    +0.037 C 
BRANCH  24  32
ATOM     32  C   UNL     1      -1.293   6.164   2.207  0.00  0.00    +0.244 C 
ATOM     33  O   UNL     1      -2.022   6.632   1.352  0.00  0.00    -0.270 OA
ATOM     34  N   UNL     1      -0.069   6.691   2.411  0.00  0.00    -0.325 N 
ATOM     35  H   UNL     1       0.270   7.544   1.805  0.00  0.00    +0.145 HD
ATOM     36  H   UNL     1       0.590   6.268   3.184  0.00  0.00    +0.145 HD
ENDBRANCH  24  32
ENDBRANCH  21  23
ENDBRANCH   1  19
TORSDOF 10
