REMARK  Name = ZINC01790183
REMARK  10 active torsions:
REMARK  status: ('A' for Active; 'I' for Inactive)
REMARK    1  A    between atoms: C_1  and  C_2
REMARK    2  A    between atoms: C_2  and  C_3
REMARK    3  A    between atoms: C_9  and  S_13
REMARK    4  A    between atoms: S_13  and  C_14
REMARK    5  A    between atoms: C_14  and  C_15
REMARK    6  A    between atoms: N_17  and  C_18
REMARK    7  A    between atoms: C_18  and  C_19
REMARK    8  A    between atoms: C_18  and  C_25
REMARK    9  A    between atoms: C_35  and  C_38
REMARK   10  A    between atoms: C_35  and  C_39
REMARK                            x       y       z     vdW  Elec       q    Type
REMARK                         _______ _______ _______ _____ _____    ______ ____
ROOT
ATOM      1  C   UNL     1      -1.412  -0.526   0.013  0.00  0.00    +0.048 A 
ATOM      2  C   UNL     1      -2.048  -0.765   1.225  0.00  0.00    +0.003 A 
ATOM      3  C   UNL     1      -3.337  -1.238   1.237  0.00  0.00    -0.026 A 
ATOM      4  C   UNL     1      -3.999  -1.480   0.011  0.00  0.00    +0.037 A 
ATOM      5  C   UNL     1      -5.369  -1.987  -0.188  0.00  0.00    +0.092 A 
ATOM      6  C   UNL     1      -5.779  -2.136  -1.519  0.00  0.00    +0.072 A 
ATOM      7  C   UNL     1      -7.049  -2.606  -1.826  0.00  0.00    +0.115 A 
ATOM      8  N   UNL     1      -7.870  -2.913  -0.820  0.00  0.00    -0.228 NA
ATOM      9  C   UNL     1      -7.467  -2.766   0.429  0.00  0.00    +0.223 A 
ATOM     10  N   UNL     1      -6.278  -2.325   0.754  0.00  0.00    -0.234 NA
ATOM     11  S   UNL     1      -4.383  -1.617  -2.478  0.00  0.00    -0.064 S 
ATOM     12  C   UNL     1      -3.268  -1.207  -1.158  0.00  0.00    +0.111 A 
ATOM     13  N   UNL     1      -2.035  -0.746  -1.127  0.00  0.00    -0.244 NA
ATOM     14  C   UNL     1      -4.076  -1.502   2.521  0.00  0.00    +0.070 C 
ATOM     15  C   UNL     1      -3.079  -1.577   3.680  0.00  0.00    +0.068 C 
ATOM     16  O   UNL     1      -2.209  -0.442   3.604  0.00  0.00    -0.369 OA
ATOM     17  C   UNL     1      -1.299  -0.501   2.505  0.00  0.00    +0.197 C 
ATOM     18  C   UNL     1      -3.835  -1.556   5.010  0.00  0.00    +0.041 C 
ATOM     19  C   UNL     1      -2.258  -2.863   3.571  0.00  0.00    +0.041 C 
ENDROOT
BRANCH   1  21
ATOM     20  C   UNL     1      -0.019   1.526   0.010  0.00  0.00    +0.010 C 
ATOM     21  C   UNL     1       0.002  -0.004   0.002  0.00  0.00    +0.052 C 
ENDBRANCH   1  21
BRANCH   7  22
ATOM     22  S   UNL     1      -7.563  -2.793  -3.501  0.00  0.00    -0.095 S 
BRANCH  22  23
ATOM     23  C   UNL     1      -9.260  -3.422  -3.371  0.00  0.00    +0.171 C 
BRANCH  23  24
ATOM     24  C   UNL     1      -9.825  -3.629  -4.753  0.00  0.00    +0.224 C 
ATOM     25  O   UNL     1      -9.151  -3.376  -5.728  0.00  0.00    -0.275 OA
ATOM     26  N   UNL     1     -11.081  -4.094  -4.904  0.00  0.00    -0.304 N 
ATOM     27  H   UNL     1     -11.621  -4.296  -4.123  0.00  0.00    +0.150 HD
BRANCH  26  28
ATOM     28  C   UNL     1     -11.632  -4.294  -6.247  0.00  0.00    +0.134 C 
BRANCH  28  29
ATOM     29  C   UNL     1     -12.718  -5.338  -6.194  0.00  0.00    -0.023 A 
ATOM     30  C   UNL     1     -13.610  -5.354  -5.138  0.00  0.00    +0.006 A 
ATOM     31  C   UNL     1     -14.606  -6.311  -5.090  0.00  0.00    +0.000 A 
ATOM     32  C   UNL     1     -14.711  -7.251  -6.097  0.00  0.00    +0.000 A 
ATOM     33  C   UNL     1     -13.819  -7.234  -7.154  0.00  0.00    +0.000 A 
ATOM     34  C   UNL     1     -12.826  -6.275  -7.204  0.00  0.00    +0.006 A 
ENDBRANCH  28  29
BRANCH  28  35
ATOM     35  C   UNL     1     -12.206  -2.997  -6.753  0.00  0.00    -0.023 A 
ATOM     36  C   UNL     1     -12.904  -2.168  -5.896  0.00  0.00    +0.006 A 
ATOM     37  C   UNL     1     -13.431  -0.978  -6.360  0.00  0.00    +0.000 A 
ATOM     38  C   UNL     1     -13.259  -0.615  -7.683  0.00  0.00    +0.000 A 
ATOM     39  C   UNL     1     -12.559  -1.443  -8.541  0.00  0.00    +0.000 A 
ATOM     40  C   UNL     1     -12.029  -2.632  -8.075  0.00  0.00    +0.006 A 
ENDBRANCH  28  35
ENDBRANCH  26  28
ENDBRANCH  23  24
ENDBRANCH  22  23
ENDBRANCH   7  22
TORSDOF 7
