REMARK  Name = ZINC59513394
REMARK  8 active torsions:
REMARK  status: ('A' for Active; 'I' for Inactive)
REMARK    1  A    between atoms: C_1  and  C_2
REMARK    2  A    between atoms: C_7  and  N_8
REMARK    3  A    between atoms: C_9  and  C_11
REMARK    4  A    between atoms: C_11  and  S_12
REMARK    5  A    between atoms: S_12  and  C_13
REMARK    6  A    between atoms: C_15  and  N_23
REMARK    7  A    between atoms: N_19  and  C_20
REMARK    8  A    between atoms: C_20  and  C_21
REMARK                            x       y       z     vdW  Elec       q    Type
REMARK                         _______ _______ _______ _____ _____    ______ ____
ROOT
ATOM      1  C   UNL     1      -0.591   0.033   4.854  0.00  0.00    +0.173 C 
ENDROOT
BRANCH   1   3
ATOM      2  N   UNL     1      -0.185  -0.024   2.415  0.00  0.00    -0.284 N 
ATOM      3  C   UNL     1      -0.367  -0.709   3.561  0.00  0.00    +0.228 C 
ATOM      4  O   UNL     1      -0.352  -1.921   3.553  0.00  0.00    -0.275 OA
ATOM      5  H   UNL     1      -0.121   0.943   2.432  0.00  0.00    +0.155 HD
BRANCH   2  12
ATOM      6  C   UNL     1       2.087  -1.683   1.986  0.00  0.00    +0.046 C 
ATOM      7  C   UNL     1       1.005  -1.530   0.948  0.00  0.00    -0.027 A 
ATOM      8  C   UNL     1       1.096  -2.211  -0.251  0.00  0.00    +0.020 A 
ATOM      9  C   UNL     1       0.103  -2.071  -1.204  0.00  0.00    +0.019 A 
ATOM     10  C   UNL     1      -0.984  -1.250  -0.961  0.00  0.00    +0.032 A 
ATOM     11  C   UNL     1      -1.080  -0.566   0.236  0.00  0.00    +0.040 A 
ATOM     12  C   UNL     1      -0.087  -0.710   1.198  0.00  0.00    +0.050 A 
ATOM     13 BR   UNL     1      -2.564   0.557   0.569  0.00  0.00    -0.048 Br
ATOM     14 BR   UNL     1       0.232  -3.004  -2.844  0.00  0.00    -0.050 Br
ENDBRANCH   2  12
ENDBRANCH   1   3
BRANCH   1  15
ATOM     15  S   UNL     1      -0.802  -1.159   6.206  0.00  0.00    -0.078 S 
BRANCH  15  16
ATOM     16  C   UNL     1      -1.050  -0.149   7.628  0.00  0.00    +0.174 A 
ATOM     17  N   UNL     1      -1.050   1.161   7.498  0.00  0.00    -0.209 NA
ATOM     18  C   UNL     1      -1.235   1.962   8.553  0.00  0.00    +0.124 A 
ATOM     19  C   UNL     1      -1.432   1.409   9.811  0.00  0.00    +0.113 A 
ATOM     20  C   UNL     1      -1.431   0.017   9.941  0.00  0.00    +0.257 A 
ATOM     21  O   UNL     1      -1.602  -0.504  11.032  0.00  0.00    -0.268 OA
ATOM     22  N   UNL     1      -1.245  -0.740   8.840  0.00  0.00    -0.284 N 
BRANCH  18  23
ATOM     23  N   UNL     1      -1.229   3.333   8.392  0.00  0.00    -0.343 N 
ATOM     24  H   UNL     1      -1.091   3.718   7.513  0.00  0.00    +0.144 HD
ATOM     25  H   UNL     1      -1.363   3.912   9.159  0.00  0.00    +0.144 HD
ENDBRANCH  18  23
BRANCH  22  26
ATOM     26  C   UNL     1      -1.247  -2.201   8.949  0.00  0.00    +0.154 C 
BRANCH  26  27
ATOM     27  C   UNL     1       0.154  -2.686   9.219  0.00  0.00    -0.013 C 
ATOM     28  C   UNL     1       0.396  -3.443  10.261  0.00  0.00    +0.005 C 
ENDBRANCH  26  27
ENDBRANCH  22  26
ENDBRANCH  15  16
ENDBRANCH   1  15
TORSDOF 7
