REMARK  Name = ZINC45863531
REMARK  9 active torsions:
REMARK  status: ('A' for Active; 'I' for Inactive)
REMARK    1  A    between atoms: C_1  and  C_2
REMARK    2  A    between atoms: C_5  and  S_24
REMARK    3  A    between atoms: C_7  and  C_8
REMARK    4  A    between atoms: N_10  and  C_11
REMARK    5  A    between atoms: C_14  and  N_17
REMARK    6  A    between atoms: N_20  and  C_21
REMARK    7  A    between atoms: S_24  and  N_27
REMARK    8  A    between atoms: N_27  and  C_28
REMARK    9  A    between atoms: C_28  and  C_29
REMARK                            x       y       z     vdW  Elec       q    Type
REMARK                         _______ _______ _______ _____ _____    ______ ____
ROOT
ATOM      1  C   UNL     1       0.333   1.576  -0.002  0.00  0.00    +0.044 C 
ATOM      2  C   UNL     1       0.250   0.071  -0.023  0.00  0.00    -0.038 A 
ATOM      3  C   UNL     1       0.146  -0.598  -1.225  0.00  0.00    +0.006 A 
ATOM      4  C   UNL     1       0.069  -1.980  -1.246  0.00  0.00    +0.029 A 
ATOM      5  C   UNL     1       0.096  -2.699  -0.064  0.00  0.00    +0.106 A 
ATOM      6  C   UNL     1       0.200  -2.041   1.144  0.00  0.00    +0.041 A 
ATOM      7  C   UNL     1       0.283  -0.648   1.172  0.00  0.00    +0.042 A 
ENDROOT
BRANCH   7   8
ATOM      8  C   UNL     1       0.401   0.063   2.463  0.00  0.00    +0.249 C 
ATOM      9  O   UNL     1       0.437   1.278   2.487  0.00  0.00    -0.270 OA
ATOM     10  N   UNL     1       0.469  -0.636   3.614  0.00  0.00    -0.281 N 
ATOM     11  H   UNL     1       0.516  -1.605   3.590  0.00  0.00    +0.155 HD
BRANCH  10  12
ATOM     12  C   UNL     1       0.471   0.035   4.842  0.00  0.00    +0.034 A 
ATOM     13  C   UNL     1       1.210  -0.465   5.906  0.00  0.00    +0.025 A 
ATOM     14  C   UNL     1       1.213   0.198   7.117  0.00  0.00    +0.025 A 
ATOM     15  C   UNL     1       0.476   1.365   7.271  0.00  0.00    +0.035 A 
ATOM     16  C   UNL     1      -0.264   1.865   6.208  0.00  0.00    +0.025 A 
ATOM     17  C   UNL     1      -0.262   1.205   4.995  0.00  0.00    +0.025 A 
BRANCH  15  18
ATOM     18  N   UNL     1       0.478   2.037   8.501  0.00  0.00    -0.269 N 
ATOM     19  C   UNL     1      -0.623   2.699   8.909  0.00  0.00    +0.304 C 
ATOM     20  O   UNL     1      -1.648   2.633   8.258  0.00  0.00    -0.253 OA
ATOM     21  N   UNL     1      -0.588   3.434  10.038  0.00  0.00    -0.296 N 
ATOM     22  H   UNL     1       1.272   2.026   9.058  0.00  0.00    +0.156 HD
ATOM     23  H   UNL     1       0.230   3.486  10.557  0.00  0.00    +0.151 HD
BRANCH  21  24
ATOM     24  C   UNL     1      -1.784   4.153  10.481  0.00  0.00    +0.075 C 
ATOM     25  C   UNL     1      -1.602   5.588  10.979  0.00  0.00    +0.024 C 
ATOM     26  C   UNL     1      -1.907   4.467  11.974  0.00  0.00    +0.024 C 
ENDBRANCH  21  24
ENDBRANCH  15  18
ENDBRANCH  10  12
ENDBRANCH   7   8
BRANCH   5  27
ATOM     27  S   UNL     1      -0.004  -4.457  -0.103  0.00  0.00    +0.059 S 
ATOM     28  O   UNL     1      -0.508  -4.863   1.163  0.00  0.00    -0.153 OA
ATOM     29  O   UNL     1      -0.644  -4.801  -1.324  0.00  0.00    -0.153 OA
BRANCH  27  30
ATOM     30  N   UNL     1       1.545  -5.033  -0.202  0.00  0.00    -0.186 NA
ATOM     31  H   UNL     1       1.834  -5.516  -0.992  0.00  0.00    +0.148 HD
BRANCH  30  32
ATOM     32  C   UNL     1       2.481  -4.814   0.904  0.00  0.00    +0.141 C 
BRANCH  32  33
ATOM     33  C   UNL     1       3.670  -5.725   0.744  0.00  0.00    -0.032 A 
ATOM     34  C   UNL     1       3.654  -6.989   1.306  0.00  0.00    +0.005 A 
ATOM     35  C   UNL     1       4.746  -7.824   1.159  0.00  0.00    +0.000 A 
ATOM     36  C   UNL     1       5.853  -7.397   0.450  0.00  0.00    +0.000 A 
ATOM     37  C   UNL     1       5.869  -6.134  -0.113  0.00  0.00    +0.000 A 
ATOM     38  C   UNL     1       4.775  -5.300   0.031  0.00  0.00    +0.005 A 
ENDBRANCH  32  33
ENDBRANCH  30  32
ENDBRANCH  27  30
ENDBRANCH   5  27
TORSDOF 8
