REMARK  Name = ZINC08994416
REMARK  8 active torsions:
REMARK  status: ('A' for Active; 'I' for Inactive)
REMARK    1  A    between atoms: C_4  and  O_25
REMARK    2  A    between atoms: C_5  and  C_7
REMARK    3  A    between atoms: C_10  and  C_12
REMARK    4  A    between atoms: C_10  and  C_15
REMARK    5  A    between atoms: C_12  and  C_13
REMARK    6  A    between atoms: N_17  and  C_18
REMARK    7  A    between atoms: O_25  and  C_26
REMARK    8  A    between atoms: C_26  and  C_27
REMARK                            x       y       z     vdW  Elec       q    Type
REMARK                         _______ _______ _______ _____ _____    ______ ____
ROOT
ATOM      1  C   UNL     1      -1.961   8.274  -2.341  0.00  0.00    +0.095 C 
ATOM      2  N   UNL     1      -0.696   8.011  -2.334  0.00  0.00    -0.088 NA
ATOM      3  O   UNL     1      -0.174   7.860  -1.028  0.00  0.00    -0.377 OA
ATOM      4  C   UNL     1      -1.286   7.640  -0.137  0.00  0.00    +0.229 C 
ATOM      5  C   UNL     1      -2.445   8.320  -0.903  0.00  0.00    +0.120 C 
ENDROOT
BRANCH   1  10
ATOM      6  C   UNL     1      -4.925   8.969  -4.535  0.00  0.00    +0.001 A 
ATOM      7  C   UNL     1      -4.354   8.898  -5.795  0.00  0.00    +0.004 A 
ATOM      8  C   UNL     1      -3.008   8.625  -5.937  0.00  0.00    +0.046 A 
ATOM      9  C   UNL     1      -2.218   8.420  -4.817  0.00  0.00    +0.131 A 
ATOM     10  C   UNL     1      -2.791   8.491  -3.540  0.00  0.00    +0.041 A 
ATOM     11  C   UNL     1      -4.155   8.763  -3.410  0.00  0.00    +0.013 A 
BRANCH   9  12
ATOM     12  O   UNL     1      -0.894   8.151  -4.955  0.00  0.00    -0.477 OA
BRANCH  12  13
ATOM     13  C   UNL     1      -0.380   8.095  -6.287  0.00  0.00    +0.346 C 
BRANCH  13  14
ATOM     14  C   UNL     1       1.060   7.795  -6.245  0.00  0.00    +0.104 C 
ATOM     15  N   UNL     1       2.172   7.564  -6.212  0.00  0.00    -0.193 NA
ENDBRANCH  13  14
ENDBRANCH  12  13
ENDBRANCH   9  12
ENDBRANCH   1  10
BRANCH   4  16
ATOM     16  C   UNL     1      -1.549   6.167   0.043  0.00  0.00    +0.265 C 
ATOM     17  O   UNL     1      -2.684   5.769   0.204  0.00  0.00    -0.271 OA
ATOM     18  N   UNL     1      -0.524   5.292   0.027  0.00  0.00    -0.282 N 
ATOM     19  H   UNL     1       0.388   5.615  -0.035  0.00  0.00    +0.155 HD
BRANCH  18  20
ATOM     20  C   UNL     1      -0.776   3.917   0.099  0.00  0.00    +0.034 A 
ATOM     21  C   UNL     1      -1.828   3.442   0.872  0.00  0.00    +0.026 A 
ATOM     22  C   UNL     1      -2.075   2.085   0.941  0.00  0.00    +0.040 A 
ATOM     23  C   UNL     1      -1.275   1.198   0.242  0.00  0.00    +0.124 A 
ATOM     24  C   UNL     1      -0.222   1.668  -0.525  0.00  0.00    +0.040 A 
ATOM     25  C   UNL     1       0.025   3.025  -0.602  0.00  0.00    +0.026 A 
ATOM     26  F   UNL     1      -1.519  -0.129   0.311  0.00  0.00    -0.205 F 
ENDBRANCH  18  20
ENDBRANCH   4  16
BRANCH   4  27
ATOM     27  C   UNL     1      -1.048   8.320   1.213  0.00  0.00    +0.185 C 
BRANCH  27  28
ATOM     28  C   UNL     1       0.213   7.778   1.834  0.00  0.00    +0.360 C 
ATOM     29  O   UNL     1       0.923   7.029   1.204  0.00  0.00    -0.246 OA
ATOM     30  O   UNL     1       0.548   8.126   3.086  0.00  0.00    -0.246 OA
ENDBRANCH  27  28
ENDBRANCH   4  27
TORSDOF 8
