REMARK  Name = ZINC12526187
REMARK  5 active torsions:
REMARK  status: ('A' for Active; 'I' for Inactive)
REMARK    1  A    between atoms: C_3  and  N_19
REMARK    2  A    between atoms: C_5  and  N_7
REMARK    3  A    between atoms: N_7  and  S_8
REMARK    4  A    between atoms: S_8  and  C_11
REMARK    5  A    between atoms: C_20  and  C_22
REMARK                            x       y       z     vdW  Elec       q    Type
REMARK                         _______ _______ _______ _____ _____    ______ ____
ROOT
ATOM      1  C   UNL     1      -1.391   3.641  -0.517  0.00  0.00    +0.004 A 
ATOM      2  C   UNL     1      -1.378   2.326  -0.942  0.00  0.00    +0.023 A 
ATOM      3  C   UNL     1      -0.171   1.690  -1.202  0.00  0.00    +0.035 A 
ATOM      4  C   UNL     1       1.023   2.380  -1.046  0.00  0.00    +0.047 A 
ATOM      5  C   UNL     1       1.007   3.702  -0.624  0.00  0.00    +0.050 A 
ATOM      6  C   UNL     1      -0.204   4.331  -0.360  0.00  0.00    +0.024 A 
ENDROOT
BRANCH   3   7
ATOM      7  N   UNL     1      -0.160   0.357  -1.627  0.00  0.00    -0.285 N 
ATOM      8  C   UNL     1       0.853  -0.456  -1.267  0.00  0.00    +0.220 C 
ATOM      9  O   UNL     1       1.704  -0.061  -0.498  0.00  0.00    -0.275 OA
ATOM     10  H   UNL     1      -0.880   0.019  -2.181  0.00  0.00    +0.155 HD
BRANCH   8  11
ATOM     11  C   UNL     1       0.928  -1.856  -1.819  0.00  0.00    +0.075 C 
ATOM     12  C   UNL     1       0.690  -3.013  -0.847  0.00  0.00    +0.013 C 
ATOM     13  C   UNL     1       2.100  -2.731  -1.371  0.00  0.00    +0.013 C 
ENDBRANCH   8  11
ENDBRANCH   3   7
BRANCH   5  14
ATOM     14  N   UNL     1       2.206   4.400  -0.466  0.00  0.00    -0.216 N 
ATOM     15  H   UNL     1       2.956   3.981  -0.016  0.00  0.00    +0.174 HD
BRANCH  14  16
ATOM     16  S   UNL     1       2.349   5.944  -1.048  0.00  0.00    +0.074 S 
ATOM     17  O   UNL     1       1.244   6.675  -0.534  0.00  0.00    -0.150 OA
ATOM     18  O   UNL     1       3.695   6.340  -0.825  0.00  0.00    -0.150 OA
BRANCH  16  19
ATOM     19  C   UNL     1       2.130   5.865  -2.795  0.00  0.00    +0.127 A 
ATOM     20  C   UNL     1       1.057   6.503  -3.387  0.00  0.00    +0.031 A 
ATOM     21  C   UNL     1       0.885   6.442  -4.757  0.00  0.00    +0.017 A 
ATOM     22  C   UNL     1       1.788   5.741  -5.536  0.00  0.00    +0.019 A 
ATOM     23  C   UNL     1       2.862   5.102  -4.945  0.00  0.00    +0.037 A 
ATOM     24  C   UNL     1       3.037   5.168  -3.574  0.00  0.00    +0.069 A 
ATOM     25 CL   UNL     1       4.389   4.372  -2.831  0.00  0.00    -0.081 Cl
ATOM     26 BR   UNL     1       1.553   5.657  -7.411  0.00  0.00    -0.050 Br
ENDBRANCH  16  19
ENDBRANCH  14  16
ENDBRANCH   5  14
TORSDOF 5
