REMARK  Name = ZINC39336692
REMARK  7 active torsions:
REMARK  status: ('A' for Active; 'I' for Inactive)
REMARK    1  A    between atoms: C_4  and  N_7
REMARK    2  A    between atoms: N_7  and  C_8
REMARK    3  A    between atoms: C_10  and  C_27
REMARK    4  A    between atoms: C_11  and  N_26
REMARK    5  A    between atoms: C_12  and  C_15
REMARK    6  A    between atoms: C_15  and  C_17
REMARK    7  A    between atoms: C_20  and  N_23
REMARK                            x       y       z     vdW  Elec       q    Type
REMARK                         _______ _______ _______ _____ _____    ______ ____
ROOT
ATOM      1  C   UNL     1       4.131  -2.266   0.327  0.00  0.00    +0.146 C 
ATOM      2  C   UNL     1       4.892  -2.743  -0.936  0.00  0.00    +0.107 C 
ATOM      3  C   UNL     1       4.115  -3.792  -1.665  0.00  0.00    +0.028 C 
ATOM      4  C   UNL     1       2.788  -3.912  -1.422  0.00  0.00    +0.074 C 
ATOM      5  S   UNL     1       2.412  -2.682  -0.184  0.00  0.00    -0.097 S 
ENDROOT
BRANCH   2   6
ATOM      6  C   UNL     1       5.121  -1.550  -1.866  0.00  0.00    +0.185 C 
ATOM      7  N   UNL     1       3.834  -1.033  -2.348  0.00  0.00    -0.363 N 
ATOM      8  C   UNL     1       3.831  -1.141  -3.645  0.00  0.00    +0.060 A 
ATOM      9  C   UNL     1       2.840  -0.797  -4.674  0.00  0.00    +0.027 A 
ATOM     10  C   UNL     1       3.121  -1.028  -5.972  0.00  0.00    +0.002 A 
ATOM     11  C   UNL     1       4.337  -1.592  -6.396  0.00  0.00    +0.002 A 
ATOM     12  C   UNL     1       5.314  -1.943  -5.535  0.00  0.00    +0.027 A 
ATOM     13  C   UNL     1       5.119  -1.737  -4.093  0.00  0.00    +0.060 A 
ATOM     14  N   UNL     1       5.869  -1.974  -3.056  0.00  0.00    -0.363 N 
ATOM     15  H   UNL     1       3.117  -0.676  -1.800  0.00  0.00    +0.162 HD
ATOM     16  H   UNL     1       6.758  -2.361  -3.067  0.00  0.00    +0.162 HD
ENDBRANCH   2   6
BRANCH   3  18
ATOM     17  H   UNL     1       5.669  -4.478  -2.791  0.00  0.00    +0.142 HD
ATOM     18  N   UNL     1       4.735  -4.618  -2.567  0.00  0.00    -0.360 N 
ATOM     19  H   UNL     1       4.241  -5.343  -2.981  0.00  0.00    +0.142 HD
ENDBRANCH   3  18
BRANCH   1  20
ATOM     20  N   UNL     1       4.294  -0.826   0.538  0.00  0.00    -0.331 N 
ATOM     21  H   UNL     1       4.202  -0.213  -0.209  0.00  0.00    +0.147 HD
BRANCH  20  25
ATOM     22  C   UNL     1       5.147   0.639   4.340  0.00  0.00    +0.000 A 
ATOM     23  C   UNL     1       5.138   1.498   3.256  0.00  0.00    +0.002 A 
ATOM     24  C   UNL     1       4.856   1.015   1.994  0.00  0.00    +0.023 A 
ATOM     25  C   UNL     1       4.580  -0.334   1.813  0.00  0.00    +0.028 A 
ATOM     26  C   UNL     1       4.590  -1.194   2.905  0.00  0.00    +0.023 A 
ATOM     27  C   UNL     1       4.874  -0.705   4.164  0.00  0.00    +0.002 A 
ENDBRANCH  20  25
ENDBRANCH   1  20
BRANCH   4  28
ATOM     28  C   UNL     1       1.887  -4.824  -2.022  0.00  0.00    +0.201 C 
ATOM     29  O   UNL     1       2.308  -5.707  -2.749  0.00  0.00    -0.286 OA
BRANCH  28  30
ATOM     30  C   UNL     1       0.435  -4.705  -1.768  0.00  0.00    +0.023 A 
ATOM     31  C   UNL     1      -0.076  -3.567  -1.144  0.00  0.00    +0.014 A 
ATOM     32  C   UNL     1      -1.432  -3.462  -0.910  0.00  0.00    +0.033 A 
ATOM     33  C   UNL     1      -2.284  -4.482  -1.293  0.00  0.00    +0.126 A 
ATOM     34  C   UNL     1      -1.784  -5.614  -1.913  0.00  0.00    +0.033 A 
ATOM     35  C   UNL     1      -0.431  -5.729  -2.157  0.00  0.00    +0.014 A 
BRANCH  33  36
ATOM     36  N   UNL     1      -3.737  -4.363  -1.039  0.00  0.00    +0.056 N 
ATOM     37  O   UNL     1      -4.178  -3.376  -0.497  0.00  0.00    -0.126 OA
ATOM     38  O   UNL     1      -4.484  -5.253  -1.372  0.00  0.00    -0.126 OA
ENDBRANCH  33  36
ENDBRANCH  28  30
ENDBRANCH   4  28
TORSDOF 7
