REMARK  Name = ZINC18375045
REMARK  12 active torsions:
REMARK  status: ('A' for Active; 'I' for Inactive)
REMARK    1  A    between atoms: C_1  and  C_2
REMARK    2  A    between atoms: C_3  and  C_37
REMARK    3  A    between atoms: C_4  and  C_36
REMARK    4  A    between atoms: C_7  and  C_8
REMARK    5  A    between atoms: C_8  and  C_10
REMARK    6  A    between atoms: C_10  and  C_12
REMARK    7  A    between atoms: C_10  and  O_13
REMARK    8  A    between atoms: O_13  and  C_14
REMARK    9  A    between atoms: C_14  and  C_16
REMARK   10  A    between atoms: C_19  and  O_35
REMARK   11  A    between atoms: C_23  and  C_25
REMARK   12  A    between atoms: C_37  and  C_39
REMARK                            x       y       z     vdW  Elec       q    Type
REMARK                         _______ _______ _______ _____ _____    ______ ____
ROOT
ATOM      1  C   UNL     1      -9.370   3.733  -0.452  0.00  0.00    +0.187 C 
ATOM      2  C   UNL     1      -9.390   2.596  -1.496  0.00  0.00    +0.066 C 
ATOM      3  C   UNL     1     -10.582   2.984  -2.410  0.00  0.00    +0.134 C 
ATOM      4  C   UNL     1     -10.479   4.530  -2.417  0.00  0.00    +0.140 C 
ATOM      5  N   UNL     1     -10.059   4.887  -1.046  0.00  0.00    -0.285 N 
ATOM      6  C   UNL     1     -10.272   6.072  -0.441  0.00  0.00    +0.223 C 
ATOM      7  O   UNL     1      -9.952   6.226   0.719  0.00  0.00    -0.275 OA
ENDROOT
BRANCH   6   8
ATOM      8  C   UNL     1     -10.906   7.206  -1.204  0.00  0.00    +0.048 C 
ATOM      9  C   UNL     1     -10.178   7.394  -2.536  0.00  0.00    +0.019 C 
ATOM     10  C   UNL     1     -10.822   8.545  -3.312  0.00  0.00    -0.009 C 
ATOM     11  C   UNL     1     -10.723   9.832  -2.490  0.00  0.00    +0.007 C 
ATOM     12  C   UNL     1     -11.451   9.644  -1.157  0.00  0.00    -0.009 C 
ATOM     13  C   UNL     1     -10.807   8.493  -0.382  0.00  0.00    +0.019 C 
ATOM     14  C   UNL     1     -12.923   9.320  -1.422  0.00  0.00    +0.007 C 
ATOM     15  C   UNL     1     -13.022   8.033  -2.244  0.00  0.00    -0.009 C 
ATOM     16  C   UNL     1     -12.294   8.222  -3.576  0.00  0.00    +0.007 C 
ATOM     17  C   UNL     1     -12.378   6.882  -1.469  0.00  0.00    +0.019 C 
ENDBRANCH   6   8
BRANCH   1  18
ATOM     18  C   UNL     1      -7.947   4.100  -0.121  0.00  0.00    +0.329 C 
ATOM     19  O   UNL     1      -7.542   5.215  -0.350  0.00  0.00    -0.249 OA
BRANCH  18  20
ATOM     20  O   UNL     1      -7.129   3.188   0.428  0.00  0.00    -0.452 OA
BRANCH  20  21
ATOM     21  C   UNL     1      -5.771   3.612   0.720  0.00  0.00    +0.245 C 
ATOM     22  C   UNL     1      -5.709   4.181   2.139  0.00  0.00    +0.061 C 
BRANCH  21  23
ATOM     23  C   UNL     1      -4.842   2.431   0.611  0.00  0.00    +0.219 C 
ATOM     24  O   UNL     1      -5.293   1.304   0.588  0.00  0.00    -0.287 OA
BRANCH  23  31
ATOM     25  C   UNL     1      -2.729   0.163   0.384  0.00  0.00    +0.047 C 
ATOM     26  C   UNL     1      -2.486   1.649   0.434  0.00  0.00    -0.012 A 
ATOM     27  C   UNL     1      -1.232   2.300   0.388  0.00  0.00    +0.041 A 
ATOM     28  C   UNL     1      -1.477   3.664   0.468  0.00  0.00    +0.024 A 
ATOM     29  N   UNL     1      -2.800   3.857   0.551  0.00  0.00    -0.355 N 
ATOM     30  H   UNL     1      -3.238   4.720   0.617  0.00  0.00    +0.166 HD
ATOM     31  C   UNL     1      -3.443   2.635   0.536  0.00  0.00    +0.090 A 
ATOM     32  C   UNL     1      -0.429   4.747   0.460  0.00  0.00    +0.064 C 
BRANCH  27  33
ATOM     33  C   UNL     1       0.081   1.656   0.280  0.00  0.00    +0.162 C 
ATOM     34  O   UNL     1       0.705   1.380   1.283  0.00  0.00    -0.292 OA
ATOM     35  C   UNL     1       0.652   1.331  -1.076  0.00  0.00    +0.091 C 
ENDBRANCH  27  33
ENDBRANCH  23  31
ENDBRANCH  21  23
ENDBRANCH  20  21
ENDBRANCH  18  20
ENDBRANCH   1  18
BRANCH   3  36
ATOM     36  O   UNL     1     -10.414   2.453  -3.726  0.00  0.00    -0.390 OA
ATOM     37  H   UNL     1     -11.135   2.669  -4.333  0.00  0.00    +0.210 HD
ENDBRANCH   3  36
TORSDOF 8
