REMARK  Name = ZINC39654469
REMARK  7 active torsions:
REMARK  status: ('A' for Active; 'I' for Inactive)
REMARK    1  A    between atoms: C_1  and  C_2
REMARK    2  A    between atoms: C_2  and  C_3
REMARK    3  A    between atoms: C_6  and  C_9
REMARK    4  A    between atoms: C_9  and  C_10
REMARK    5  A    between atoms: C_10  and  N_11
REMARK    6  A    between atoms: C_12  and  C_14
REMARK    7  A    between atoms: C_25  and  C_27
REMARK                            x       y       z     vdW  Elec       q    Type
REMARK                         _______ _______ _______ _____ _____    ______ ____
ROOT
ATOM      1  C   UNL     1     -10.585  -1.154   0.541  0.00  0.00    +0.100 C 
ATOM      2  C   UNL     1     -10.703  -1.795  -0.860  0.00  0.00    +0.121 C 
ATOM      3  N   UNL     1     -12.040  -1.383  -1.349  0.00  0.00    -0.296 N 
ATOM      4  C   UNL     1     -12.181   0.022  -0.896  0.00  0.00    +0.115 C 
ATOM      5  C   UNL     1     -11.556   0.038   0.513  0.00  0.00    -0.004 C 
ATOM      6  C   UNL     1     -10.798   1.343   0.738  0.00  0.00    -0.010 C 
ATOM      7  C   UNL     1     -11.791   2.508   0.764  0.00  0.00    -0.082 C 
ATOM      8  N   UNL     1     -12.769   2.295   1.839  0.00  0.00    +0.379 N 
ATOM      9  C   UNL     1     -13.558   1.088   1.566  0.00  0.00    -0.082 C 
ATOM     10  C   UNL     1     -12.639  -0.137   1.574  0.00  0.00    -0.010 C 
ATOM     11  C   UNL     1     -12.927  -2.119  -2.047  0.00  0.00    +0.249 C 
ATOM     12  O   UNL     1     -13.950  -1.608  -2.459  0.00  0.00    -0.270 OA
ATOM     13  H   UNL     1     -12.284   2.187   2.717  0.00  0.00    -0.086 HD
ATOM     14  H   UNL     1     -13.385   3.092   1.893  0.00  0.00    -0.086 HD
ENDROOT
BRANCH  11  15
ATOM     15  C   UNL     1     -12.656  -3.547  -2.311  0.00  0.00    +0.073 A 
ATOM     16  C   UNL     1     -11.349  -3.983  -2.535  0.00  0.00    +0.036 A 
ATOM     17  C   UNL     1     -11.103  -5.319  -2.780  0.00  0.00    +0.042 A 
ATOM     18  C   UNL     1     -12.149  -6.227  -2.805  0.00  0.00    +0.023 A 
ATOM     19  C   UNL     1     -13.446  -5.803  -2.584  0.00  0.00    +0.040 A 
ATOM     20  C   UNL     1     -13.707  -4.469  -2.331  0.00  0.00    +0.136 A 
ATOM     21  F   UNL     1     -14.975  -4.057  -2.110  0.00  0.00    -0.205 F 
ATOM     22 CL   UNL     1      -9.478  -5.862  -3.060  0.00  0.00    -0.084 Cl
ENDBRANCH  11  15
BRANCH   1  24
ATOM     23  N   UNL     1      -8.685  -0.634   2.038  0.00  0.00    -0.315 N 
ATOM     24  C   UNL     1      -9.176  -0.677   0.783  0.00  0.00    +0.218 C 
ATOM     25  O   UNL     1      -8.483  -0.333  -0.151  0.00  0.00    -0.275 OA
ATOM     26  H   UNL     1      -9.239  -0.910   2.785  0.00  0.00    +0.149 HD
BRANCH  23  27
ATOM     27  C   UNL     1      -7.316  -0.171   2.273  0.00  0.00    +0.109 C 
BRANCH  27  28
ATOM     28  C   UNL     1      -7.011  -0.220   3.772  0.00  0.00    +0.054 C 
BRANCH  28  32
ATOM     29  C   UNL     1      -3.018   1.131   4.461  0.00  0.00    -0.048 A 
ATOM     30  C   UNL     1      -4.064   2.035   4.466  0.00  0.00    +0.004 A 
ATOM     31  C   UNL     1      -5.356   1.598   4.243  0.00  0.00    +0.004 A 
ATOM     32  C   UNL     1      -5.602   0.257   4.014  0.00  0.00    -0.046 A 
ATOM     33  C   UNL     1      -4.556  -0.647   4.008  0.00  0.00    +0.004 A 
ATOM     34  C   UNL     1      -3.264  -0.209   4.227  0.00  0.00    +0.004 A 
BRANCH  29  36
ATOM     35  C   UNL     1      -0.961   1.984   3.370  0.00  0.00    +0.009 C 
ATOM     36  C   UNL     1      -1.609   1.607   4.704  0.00  0.00    +0.032 C 
ENDBRANCH  29  36
ENDBRANCH  28  32
ENDBRANCH  27  28
ENDBRANCH  23  27
ENDBRANCH   1  24
TORSDOF 6
