REMARK  Name = ZINC08694371
REMARK  9 active torsions:
REMARK  status: ('A' for Active; 'I' for Inactive)
REMARK    1  A    between atoms: C_5  and  C_7
REMARK    2  A    between atoms: C_7  and  N_8
REMARK    3  A    between atoms: N_8  and  C_9
REMARK    4  A    between atoms: C_9  and  C_11
REMARK    5  A    between atoms: C_9  and  C_18
REMARK    6  A    between atoms: N_20  and  C_21
REMARK    7  A    between atoms: C_24  and  N_27
REMARK    8  A    between atoms: C_33  and  C_35
REMARK    9  A    between atoms: C_35  and  N_36
REMARK                            x       y       z     vdW  Elec       q    Type
REMARK                         _______ _______ _______ _____ _____    ______ ____
ROOT
ATOM      1  N   UNL     1       4.415  -4.795   0.080  0.00  0.00    -0.284 N 
ATOM      2  C   UNL     1       5.277  -5.555  -0.623  0.00  0.00    +0.234 C 
ATOM      3  O   UNL     1       4.883  -6.199  -1.572  0.00  0.00    -0.274 OA
ENDROOT
BRANCH   1   4
ATOM      4  C   UNL     1       4.892  -4.010   1.222  0.00  0.00    +0.146 C 
BRANCH   4   9
ATOM      5  C   UNL     1       2.951  -4.470   4.427  0.00  0.00    +0.000 A 
ATOM      6  C   UNL     1       3.397  -5.710   4.846  0.00  0.00    +0.003 A 
ATOM      7  C   UNL     1       4.327  -6.401   4.092  0.00  0.00    +0.038 A 
ATOM      8  C   UNL     1       4.812  -5.851   2.918  0.00  0.00    +0.128 A 
ATOM      9  C   UNL     1       4.365  -4.610   2.499  0.00  0.00    +0.005 A 
ATOM     10  C   UNL     1       3.439  -3.918   3.257  0.00  0.00    +0.008 A 
ATOM     11  F   UNL     1       5.721  -6.527   2.180  0.00  0.00    -0.205 F 
ENDBRANCH   4   9
ENDBRANCH   1   4
BRANCH   1  12
ATOM     12  C   UNL     1       3.000  -4.753  -0.296  0.00  0.00    +0.166 C 
BRANCH  12  13
ATOM     13  C   UNL     1       2.148  -5.284   0.859  0.00  0.00    +0.023 C 
ATOM     14  C   UNL     1       0.661  -5.144   0.511  0.00  0.00    +0.010 C 
ATOM     15  C   UNL     1      -0.162  -5.513   1.746  0.00  0.00    +0.027 C 
ATOM     16  C   UNL     1       0.310  -6.822   2.310  0.00  0.00    -0.031 C 
ATOM     17  C   UNL     1       1.450  -7.365   2.025  0.00  0.00    -0.031 C 
ATOM     18  C   UNL     1       2.459  -6.765   1.088  0.00  0.00    +0.032 C 
ENDBRANCH  12  13
BRANCH  12  19
ATOM     19  C   UNL     1       2.602  -3.332  -0.601  0.00  0.00    +0.238 C 
ATOM     20  O   UNL     1       3.315  -2.415  -0.251  0.00  0.00    -0.273 OA
ATOM     21  N   UNL     1       1.455  -3.080  -1.262  0.00  0.00    -0.284 N 
ATOM     22  H   UNL     1       0.874  -3.812  -1.522  0.00  0.00    +0.155 HD
BRANCH  21  23
ATOM     23  C   UNL     1       1.101  -1.760  -1.573  0.00  0.00    +0.034 A 
ATOM     24  C   UNL     1       0.346  -1.492  -2.707  0.00  0.00    +0.025 A 
ATOM     25  C   UNL     1      -0.003  -0.192  -3.014  0.00  0.00    +0.025 A 
ATOM     26  C   UNL     1       0.402   0.848  -2.187  0.00  0.00    +0.030 A 
ATOM     27  C   UNL     1       1.157   0.581  -1.052  0.00  0.00    +0.025 A 
ATOM     28  C   UNL     1       1.506  -0.720  -0.747  0.00  0.00    +0.025 A 
BRANCH  26  29
ATOM     29  N   UNL     1       0.049   2.166  -2.498  0.00  0.00    -0.326 N 
ATOM     30  C   UNL     1       0.509   2.531  -3.845  0.00  0.00    +0.133 C 
ATOM     31  C   UNL     1       0.051   3.956  -4.167  0.00  0.00    +0.178 C 
ATOM     32  O   UNL     1       0.547   4.848  -3.165  0.00  0.00    -0.377 OA
ATOM     33  C   UNL     1       0.118   4.522  -1.840  0.00  0.00    +0.178 C 
ATOM     34  C   UNL     1       0.577   3.103  -1.495  0.00  0.00    +0.133 C 
ENDBRANCH  26  29
ENDBRANCH  21  23
ENDBRANCH  12  19
ENDBRANCH   1  12
BRANCH   2  35
ATOM     35  C   UNL     1       6.731  -5.605  -0.230  0.00  0.00    +0.210 C 
BRANCH  35  36
ATOM     36  N   UNL     1       7.488  -6.335  -1.250  0.00  0.00    -0.255 N 
ATOM     37  C   UNL     1       7.711  -7.710  -1.226  0.00  0.00    +0.048 A 
ATOM     38  C   UNL     1       7.309  -8.690  -0.328  0.00  0.00    +0.024 A 
ATOM     39  C   UNL     1       7.661 -10.011  -0.536  0.00  0.00    +0.002 A 
ATOM     40  C   UNL     1       8.410 -10.377  -1.642  0.00  0.00    +0.001 A 
ATOM     41  C   UNL     1       8.815  -9.420  -2.550  0.00  0.00    +0.014 A 
ATOM     42  C   UNL     1       8.466  -8.085  -2.349  0.00  0.00    +0.048 A 
ATOM     43  C   UNL     1       8.731  -6.850  -3.110  0.00  0.00    +0.250 C 
ATOM     44  O   UNL     1       9.356  -6.737  -4.144  0.00  0.00    -0.282 OA
ATOM     45  C   UNL     1       8.060  -5.763  -2.323  0.00  0.00    +0.292 C 
ATOM     46  O   UNL     1       8.037  -4.583  -2.604  0.00  0.00    -0.266 OA
ENDBRANCH  35  36
ENDBRANCH   2  35
TORSDOF 9
