REMARK  Name = ZINC13027122
REMARK  7 active torsions:
REMARK  status: ('A' for Active; 'I' for Inactive)
REMARK    1  A    between atoms: C_3  and  O_33
REMARK    2  A    between atoms: C_6  and  C_7
REMARK    3  A    between atoms: C_7  and  C_9
REMARK    4  A    between atoms: C_7  and  N_18
REMARK    5  A    between atoms: N_11  and  C_12
REMARK    6  A    between atoms: N_18  and  C_19
REMARK    7  A    between atoms: C_24  and  C_26
REMARK                            x       y       z     vdW  Elec       q    Type
REMARK                         _______ _______ _______ _____ _____    ______ ____
ROOT
ATOM      1  C   UNL     1       1.014  -1.088  -0.272  0.00  0.00    +0.193 C 
ENDROOT
BRANCH   1   7
ATOM      2  C   UNL     1       3.075  -0.174   0.815  0.00  0.00    +0.009 A 
ATOM      3  C   UNL     1       3.954  -0.096   1.877  0.00  0.00    +0.046 A 
ATOM      4  C   UNL     1       3.739  -0.864   3.012  0.00  0.00    +0.117 A 
ATOM      5  C   UNL     1       2.638  -1.706   3.079  0.00  0.00    +0.046 A 
ATOM      6  C   UNL     1       1.758  -1.776   2.016  0.00  0.00    +0.009 A 
ATOM      7  C   UNL     1       1.975  -1.009   0.886  0.00  0.00    -0.018 A 
BRANCH   4   8
ATOM      8  O   UNL     1       4.606  -0.794   4.056  0.00  0.00    -0.507 OA
ATOM      9  H   UNL     1       5.335  -1.427   4.006  0.00  0.00    +0.292 HD
ENDBRANCH   4   8
ENDBRANCH   1   7
BRANCH   1  10
ATOM     10  C   UNL     1       1.725  -0.700  -1.542  0.00  0.00    +0.238 C 
ATOM     11  O   UNL     1       1.335   0.248  -2.191  0.00  0.00    -0.273 OA
ATOM     12  N   UNL     1       2.795  -1.406  -1.958  0.00  0.00    -0.311 N 
ATOM     13  H   UNL     1       3.107  -2.164  -1.440  0.00  0.00    +0.149 HD
BRANCH  12  14
ATOM     14  C   UNL     1       3.487  -1.029  -3.193  0.00  0.00    +0.073 C 
ATOM     15  C   UNL     1       2.782  -1.671  -4.390  0.00  0.00    +0.022 C 
ATOM     16  C   UNL     1       3.504  -1.277  -5.679  0.00  0.00    +0.002 C 
ATOM     17  C   UNL     1       4.954  -1.763  -5.621  0.00  0.00    +0.000 C 
ATOM     18  C   UNL     1       5.659  -1.120  -4.425  0.00  0.00    +0.002 C 
ATOM     19  C   UNL     1       4.937  -1.514  -3.135  0.00  0.00    +0.022 C 
ENDBRANCH  12  14
ENDBRANCH   1  10
BRANCH   1  20
ATOM     20  N   UNL     1      -0.106  -0.173  -0.040  0.00  0.00    -0.278 N 
ATOM     21  C   UNL     1      -1.341  -0.663   0.187  0.00  0.00    +0.268 C 
ATOM     22  O   UNL     1      -2.294   0.091   0.240  0.00  0.00    -0.268 OA
BRANCH  21  23
ATOM     23  C   UNL     1      -1.537  -2.115   0.371  0.00  0.00    +0.154 A 
ATOM     24  C   UNL     1      -2.815  -2.665   0.450  0.00  0.00    +0.098 A 
ATOM     25  C   UNL     1      -2.808  -4.014   0.619  0.00  0.00    +0.117 A 
ATOM     26  S   UNL     1      -1.117  -4.374   0.651  0.00  0.00    +0.026 S 
ATOM     27  N   UNL     1      -0.512  -2.933   0.461  0.00  0.00    -0.203 NA
ATOM     28 CL   UNL     1      -4.155  -5.100   0.765  0.00  0.00    -0.073 Cl
ATOM     29 CL   UNL     1      -4.269  -1.724   0.342  0.00  0.00    -0.079 Cl
ENDBRANCH  21  23
BRANCH  20  30
ATOM     30  C   UNL     1       0.116   1.275  -0.056  0.00  0.00    +0.078 C 
ATOM     31  C   UNL     1      -0.433   1.908   1.239  0.00  0.00    +0.022 C 
ATOM     32  C   UNL     1      -1.025   3.264   0.778  0.00  0.00    +0.002 C 
ATOM     33  C   UNL     1      -1.653   2.914  -0.594  0.00  0.00    +0.002 C 
ATOM     34  C   UNL     1      -0.659   1.915  -1.221  0.00  0.00    +0.022 C 
ENDBRANCH  20  30
ENDBRANCH   1  20
TORSDOF 7
