REMARK  Name = ZINC13679453
REMARK  9 active torsions:
REMARK  status: ('A' for Active; 'I' for Inactive)
REMARK    1  A    between atoms: C_1  and  C_2
REMARK    2  A    between atoms: C_5  and  N_9
REMARK    3  A    between atoms: C_6  and  C_8
REMARK    4  A    between atoms: N_9  and  S_10
REMARK    5  A    between atoms: S_10  and  C_13
REMARK    6  A    between atoms: C_16  and  N_19
REMARK    7  A    between atoms: N_19  and  S_20
REMARK    8  A    between atoms: S_20  and  C_23
REMARK    9  A    between atoms: C_23  and  C_24
REMARK                            x       y       z     vdW  Elec       q    Type
REMARK                         _______ _______ _______ _____ _____    ______ ____
ROOT
ATOM      1  C   UNL     1       1.501   2.667   1.276  0.00  0.00    +0.109 A 
ATOM      2  C   UNL     1       0.921   3.911   1.105  0.00  0.00    +0.030 A 
ATOM      3  C   UNL     1       0.970   4.843   2.123  0.00  0.00    +0.026 A 
ATOM      4  C   UNL     1       1.612   4.534   3.316  0.00  0.00    +0.048 A 
ATOM      5  C   UNL     1       2.199   3.286   3.482  0.00  0.00    +0.026 A 
ATOM      6  C   UNL     1       2.141   2.357   2.462  0.00  0.00    +0.030 A 
ENDROOT
BRANCH   1   7
ATOM      7  S   UNL     1       1.430   1.478  -0.022  0.00  0.00    +0.072 S 
ATOM      8  O   UNL     1       2.523   0.593   0.178  0.00  0.00    -0.150 OA
ATOM      9  O   UNL     1       1.251   2.206  -1.229  0.00  0.00    -0.150 OA
BRANCH   7  10
ATOM     10  N   UNL     1       0.052   0.588   0.204  0.00  0.00    -0.216 N 
ATOM     11  H   UNL     1       0.111  -0.369   0.345  0.00  0.00    +0.174 HD
BRANCH  10  16
ATOM     12  C   UNL     1      -5.014   3.135   0.127  0.00  0.00    +0.044 C 
ATOM     13  C   UNL     1      -3.667   2.458   0.148  0.00  0.00    -0.050 A 
ATOM     14  C   UNL     1      -2.653   2.915  -0.674  0.00  0.00    +0.005 A 
ATOM     15  C   UNL     1      -1.418   2.297  -0.658  0.00  0.00    +0.025 A 
ATOM     16  C   UNL     1      -1.195   1.216   0.185  0.00  0.00    +0.051 A 
ATOM     17  C   UNL     1      -2.218   0.757   1.006  0.00  0.00    -0.028 A 
ATOM     18  C   UNL     1      -3.449   1.383   0.988  0.00  0.00    +0.008 A 
ATOM     19  C   UNL     1      -1.982  -0.419   1.918  0.00  0.00    +0.046 C 
ENDBRANCH  10  16
ENDBRANCH   7  10
ENDBRANCH   1   7
BRANCH   4  20
ATOM     20  N   UNL     1       1.668   5.477   4.345  0.00  0.00    -0.220 N 
ATOM     21  H   UNL     1       0.875   5.669   4.870  0.00  0.00    +0.173 HD
BRANCH  20  22
ATOM     22  S   UNL     1       3.087   6.265   4.670  0.00  0.00    +0.047 S 
ATOM     23  O   UNL     1       2.776   7.145   5.742  0.00  0.00    -0.155 OA
ATOM     24  O   UNL     1       4.047   5.231   4.837  0.00  0.00    -0.155 OA
BRANCH  22  25
ATOM     25  C   UNL     1       3.447   7.215   3.167  0.00  0.00    +0.226 C 
BRANCH  25  26
ATOM     26  C   UNL     1       4.791   7.884   3.305  0.00  0.00    +0.012 A 
ATOM     27  C   UNL     1       4.879   9.155   3.844  0.00  0.00    +0.047 A 
ATOM     28  C   UNL     1       6.113   9.767   3.974  0.00  0.00    +0.020 A 
ATOM     29  C   UNL     1       7.256   9.112   3.557  0.00  0.00    +0.003 A 
ATOM     30  C   UNL     1       7.169   7.844   3.014  0.00  0.00    +0.020 A 
ATOM     31  C   UNL     1       5.936   7.229   2.887  0.00  0.00    +0.047 A 
ATOM     32 CL   UNL     1       5.826   5.637   2.204  0.00  0.00    -0.083 Cl
ATOM     33 CL   UNL     1       3.441   9.980   4.361  0.00  0.00    -0.083 Cl
ENDBRANCH  25  26
ENDBRANCH  22  25
ENDBRANCH  20  22
ENDBRANCH   4  20
TORSDOF 7
