REMARK  Name = ZINC06884400
REMARK  5 active torsions:
REMARK  status: ('A' for Active; 'I' for Inactive)
REMARK    1  A    between atoms: C_5  and  C_7
REMARK    2  A    between atoms: C_8  and  C_9
REMARK    3  A    between atoms: N_11  and  N_12
REMARK    4  A    between atoms: C_13  and  C_15
REMARK    5  A    between atoms: C_20  and  N_21
REMARK                            x       y       z     vdW  Elec       q    Type
REMARK                         _______ _______ _______ _____ _____    ______ ____
ROOT
ATOM      1  C   UNL     1      -5.938  -0.306   0.570  0.00  0.00    +0.253 C 
ATOM      2  O   UNL     1      -5.987  -1.517   0.680  0.00  0.00    -0.269 OA
ATOM      3  N   UNL     1      -4.751   0.306   0.384  0.00  0.00    -0.231 N 
ATOM      4  H   UNL     1      -4.711   1.271   0.297  0.00  0.00    +0.173 HD
ENDROOT
BRANCH   3   5
ATOM      5  N   UNL     1      -3.575  -0.453   0.317  0.00  0.00    -0.230 N 
ATOM      6  C   UNL     1      -2.388   0.159   0.131  0.00  0.00    +0.262 C 
ATOM      7  O   UNL     1      -2.339   1.369   0.022  0.00  0.00    -0.269 OA
ATOM      8  H   UNL     1      -3.615  -1.418   0.405  0.00  0.00    +0.173 HD
BRANCH   6   9
ATOM      9  C   UNL     1      -1.147  -0.641   0.060  0.00  0.00    +0.068 A 
ATOM     10  C   UNL     1      -0.815  -1.513   1.099  0.00  0.00    +0.015 A 
ATOM     11  C   UNL     1       0.345  -2.256   1.026  0.00  0.00    +0.001 A 
ATOM     12  C   UNL     1       1.178  -2.139  -0.072  0.00  0.00    +0.002 A 
ATOM     13  C   UNL     1       0.852  -1.281  -1.107  0.00  0.00    +0.033 A 
ATOM     14  C   UNL     1      -0.303  -0.528  -1.045  0.00  0.00    +0.138 A 
BRANCH  14  15
ATOM     15  N   UNL     1      -0.647   0.394  -2.151  0.00  0.00    +0.057 N 
ATOM     16  O   UNL     1       0.143   0.578  -3.059  0.00  0.00    -0.126 OA
ATOM     17  O   UNL     1      -1.724   0.964  -2.155  0.00  0.00    -0.126 OA
ENDBRANCH  14  15
ENDBRANCH   6   9
ENDBRANCH   3   5
BRANCH   1  19
ATOM     18  C   UNL     1      -8.354  -0.126   0.827  0.00  0.00    +0.014 C 
ATOM     19  C   UNL     1      -7.166   0.486   0.641  0.00  0.00    +0.069 C 
BRANCH  18  24
ATOM     20  C   UNL     1     -10.698   2.802   0.839  0.00  0.00    +0.001 A 
ATOM     21  C   UNL     1     -11.915   2.170   1.029  0.00  0.00    +0.001 A 
ATOM     22  C   UNL     1     -11.977   0.794   1.155  0.00  0.00    +0.020 A 
ATOM     23  C   UNL     1     -10.823   0.039   1.085  0.00  0.00    +0.048 A 
ATOM     24  C   UNL     1      -9.589   0.670   0.897  0.00  0.00    -0.007 A 
ATOM     25  C   UNL     1      -9.536   2.063   0.772  0.00  0.00    +0.009 A 
ATOM     26 CL   UNL     1     -10.904  -1.689   1.235  0.00  0.00    -0.083 Cl
ENDBRANCH  18  24
ENDBRANCH   1  19
TORSDOF 5
