REMARK  Name = ZINC36545122
REMARK  15 active torsions:
REMARK  status: ('A' for Active; 'I' for Inactive)
REMARK    1  A    between atoms: C_1  and  C_2
REMARK    2  A    between atoms: C_5  and  C_8
REMARK    3  A    between atoms: C_8  and  C_10
REMARK    4  A    between atoms: C_8  and  N_21
REMARK    5  A    between atoms: N_12  and  C_13
REMARK    6  A    between atoms: C_13  and  C_14
REMARK    7  A    between atoms: C_13  and  C_15
REMARK    8  A    between atoms: C_13  and  C_16
REMARK    9  A    between atoms: C_16  and  C_17
REMARK   10  A    between atoms: C_17  and  C_18
REMARK   11  A    between atoms: C_17  and  C_19
REMARK   12  A    between atoms: C_17  and  C_20
REMARK   13  A    between atoms: N_21  and  C_22
REMARK   14  A    between atoms: C_29  and  C_31
REMARK   15  A    between atoms: C_34  and  O_37
REMARK                            x       y       z     vdW  Elec       q    Type
REMARK                         _______ _______ _______ _____ _____    ______ ____
ROOT
ATOM      1  C   UNL     1       1.437  -4.126   0.148  0.00  0.00    +0.198 C 
ENDROOT
BRANCH   1   6
ATOM      2  C   UNL     1       0.546   1.581   0.007  0.00  0.00    +0.044 C 
ATOM      3  C   UNL     1       0.778   0.093   0.044  0.00  0.00    -0.050 A 
ATOM      4  C   UNL     1      -0.110  -0.761  -0.583  0.00  0.00    +0.004 A 
ATOM      5  C   UNL     1       0.103  -2.126  -0.549  0.00  0.00    +0.006 A 
ATOM      6  C   UNL     1       1.205  -2.638   0.110  0.00  0.00    -0.018 A 
ATOM      7  C   UNL     1       2.094  -1.784   0.736  0.00  0.00    +0.006 A 
ATOM      8  C   UNL     1       1.883  -0.418   0.699  0.00  0.00    +0.004 A 
ENDBRANCH   1   6
BRANCH   1   9
ATOM      9  C   UNL     1       2.810  -4.435  -0.391  0.00  0.00    +0.239 C 
ATOM     10  O   UNL     1       3.597  -5.067   0.281  0.00  0.00    -0.273 OA
ATOM     11  N   UNL     1       3.164  -4.007  -1.619  0.00  0.00    -0.308 N 
ATOM     12  H   UNL     1       2.535  -3.501  -2.156  0.00  0.00    +0.149 HD
BRANCH  11  13
ATOM     13  C   UNL     1       4.499  -4.307  -2.142  0.00  0.00    +0.030 C 
ATOM     14  C   UNL     1       5.521  -3.363  -1.504  0.00  0.00    +0.031 C 
ATOM     15  C   UNL     1       4.865  -5.754  -1.808  0.00  0.00    +0.031 C 
BRANCH  13  16
ATOM     16  C   UNL     1       4.507  -4.116  -3.660  0.00  0.00    +0.031 C 
BRANCH  16  17
ATOM     17  C   UNL     1       3.216  -4.686  -4.252  0.00  0.00    -0.036 C 
ATOM     18  C   UNL     1       2.020  -3.887  -3.731  0.00  0.00    +0.010 C 
ATOM     19  C   UNL     1       3.268  -4.588  -5.778  0.00  0.00    +0.010 C 
ATOM     20  C   UNL     1       3.070  -6.152  -3.839  0.00  0.00    +0.010 C 
ENDBRANCH  16  17
ENDBRANCH  13  16
ENDBRANCH  11  13
ENDBRANCH   1   9
BRANCH   1  21
ATOM     21  N   UNL     1       1.336  -4.602   1.530  0.00  0.00    -0.250 N 
ATOM     22  C   UNL     1       0.509  -5.622   1.833  0.00  0.00    +0.252 C 
ATOM     23  O   UNL     1      -0.175  -6.129   0.965  0.00  0.00    -0.270 OA
BRANCH  21  24
ATOM     24  C   UNL     1       2.098  -3.997   2.535  0.00  0.00    +0.056 A 
ATOM     25  C   UNL     1       3.337  -4.521   2.880  0.00  0.00    +0.025 A 
ATOM     26  C   UNL     1       4.087  -3.921   3.873  0.00  0.00    +0.002 A 
ATOM     27  C   UNL     1       3.606  -2.800   4.524  0.00  0.00    +0.002 A 
ATOM     28  C   UNL     1       2.373  -2.275   4.183  0.00  0.00    +0.022 A 
ATOM     29  C   UNL     1       1.620  -2.866   3.187  0.00  0.00    +0.062 A 
ATOM     30 CL   UNL     1       0.075  -2.202   2.755  0.00  0.00    -0.082 Cl
ENDBRANCH  21  24
BRANCH  22  31
ATOM     31  C   UNL     1       0.434  -6.124   3.219  0.00  0.00    +0.037 A 
ATOM     32  C   UNL     1       0.265  -5.230   4.280  0.00  0.00    +0.016 A 
ATOM     33  C   UNL     1       0.195  -5.702   5.571  0.00  0.00    +0.046 A 
ATOM     34  C   UNL     1       0.292  -7.066   5.821  0.00  0.00    +0.117 A 
ATOM     35  C   UNL     1       0.460  -7.959   4.768  0.00  0.00    +0.046 A 
ATOM     36  C   UNL     1       0.525  -7.495   3.473  0.00  0.00    +0.016 A 
BRANCH  34  37
ATOM     37  O   UNL     1       0.222  -7.528   7.095  0.00  0.00    -0.507 OA
ATOM     38  H   UNL     1      -0.675  -7.738   7.389  0.00  0.00    +0.292 HD
ENDBRANCH  34  37
ENDBRANCH  22  31
ENDBRANCH   1  21
TORSDOF 9
