REMARK  Name = ZINC36116404
REMARK  11 active torsions:
REMARK  status: ('A' for Active; 'I' for Inactive)
REMARK    1  A    between atoms: C_1  and  C_2
REMARK    2  A    between atoms: C_5  and  N_8
REMARK    3  A    between atoms: N_11  and  C_12
REMARK    4  A    between atoms: N_11  and  C_16
REMARK    5  A    between atoms: C_12  and  C_13
REMARK    6  A    between atoms: C_13  and  O_14
REMARK    7  A    between atoms: O_14  and  C_15
REMARK    8  A    between atoms: C_16  and  C_17
REMARK    9  A    between atoms: C_27  and  C_29
REMARK   10  A    between atoms: C_29  and  O_30
REMARK   11  A    between atoms: O_30  and  C_31
REMARK                            x       y       z     vdW  Elec       q    Type
REMARK                         _______ _______ _______ _____ _____    ______ ____
ROOT
ATOM      1  C   UNL     1      -0.950  -7.308   2.882  0.00  0.00    +0.234 C 
ATOM      2  O   UNL     1      -1.935  -6.993   2.249  0.00  0.00    -0.274 OA
ATOM      3  N   UNL     1      -1.080  -7.997   4.033  0.00  0.00    -0.289 N 
ATOM      4  C   UNL     1       0.107  -8.379   4.812  0.00  0.00    +0.114 C 
ATOM      5  C   UNL     1       0.056  -7.644   6.160  0.00  0.00    +0.061 C 
ATOM      6  C   UNL     1      -1.340  -7.710   6.689  0.00  0.00    -0.004 A 
ATOM      7  C   UNL     1      -2.477  -8.024   6.011  0.00  0.00    -0.014 A 
ATOM      8  C   UNL     1      -3.665  -8.005   6.739  0.00  0.00    +0.013 A 
ATOM      9  C   UNL     1      -3.647  -7.691   8.055  0.00  0.00    +0.046 A 
ATOM     10  S   UNL     1      -1.908  -7.398   8.340  0.00  0.00    -0.101 S 
ATOM     11  C   UNL     1      -2.411  -8.373   4.530  0.00  0.00    +0.144 C 
ENDROOT
BRANCH   1  12
ATOM     12  C   UNL     1       0.420  -6.929   2.382  0.00  0.00    +0.205 C 
BRANCH  12  16
ATOM     13  N   UNL     1       0.058  -4.170  -0.021  0.00  0.00    -0.269 N 
ATOM     14  C   UNL     1       0.174  -4.849   1.138  0.00  0.00    +0.307 C 
ATOM     15  O   UNL     1       0.172  -4.250   2.196  0.00  0.00    -0.252 OA
ATOM     16  N   UNL     1       0.294  -6.191   1.123  0.00  0.00    -0.274 N 
ATOM     17  H   UNL     1      -0.007  -4.651  -0.861  0.00  0.00    +0.156 HD
BRANCH  13  22
ATOM     18  C   UNL     1      -0.050   1.502   0.014  0.00  0.00    +0.044 C 
ATOM     19  C   UNL     1      -0.022  -0.004   0.005  0.00  0.00    -0.050 A 
ATOM     20  C   UNL     1      -0.608  -0.712   1.038  0.00  0.00    +0.005 A 
ATOM     21  C   UNL     1      -0.583  -2.093   1.032  0.00  0.00    +0.023 A 
ATOM     22  C   UNL     1       0.031  -2.771  -0.012  0.00  0.00    +0.035 A 
ATOM     23  C   UNL     1       0.619  -2.057  -1.049  0.00  0.00    +0.023 A 
ATOM     24  C   UNL     1       0.586  -0.676  -1.040  0.00  0.00    +0.005 A 
ENDBRANCH  13  22
BRANCH  16  25
ATOM     25  C   UNL     1       0.297  -6.912  -0.152  0.00  0.00    +0.138 C 
BRANCH  25  26
ATOM     26  C   UNL     1       1.733  -7.035  -0.665  0.00  0.00    +0.178 C 
BRANCH  26  27
ATOM     27  O   UNL     1       2.491  -7.850   0.232  0.00  0.00    -0.381 OA
ATOM     28  C   UNL     1       3.854  -8.029  -0.157  0.00  0.00    +0.194 C 
ENDBRANCH  26  27
ENDBRANCH  25  26
ENDBRANCH  16  25
ENDBRANCH  12  16
ENDBRANCH   1  12
BRANCH  11  29
ATOM     29  C   UNL     1      -2.628  -9.876   4.346  0.00  0.00    +0.256 C 
BRANCH  29  30
ATOM     30  O   UNL     1      -1.706 -10.594   5.168  0.00  0.00    -0.490 OA
BRANCH  30  31
ATOM     31  C   UNL     1      -1.766 -11.951   5.122  0.00  0.00    +0.121 A 
ATOM     32  C   UNL     1      -2.689 -12.578   4.299  0.00  0.00    +0.047 A 
ATOM     33  C   UNL     1      -2.749 -13.958   4.254  0.00  0.00    +0.023 A 
ATOM     34  C   UNL     1      -1.888 -14.714   5.030  0.00  0.00    +0.041 A 
ATOM     35  C   UNL     1      -0.966 -14.090   5.852  0.00  0.00    +0.023 A 
ATOM     36  C   UNL     1      -0.899 -12.711   5.894  0.00  0.00    +0.047 A 
ATOM     37 CL   UNL     1      -1.965 -16.447   4.972  0.00  0.00    -0.084 Cl
ENDBRANCH  30  31
ENDBRANCH  29  30
ENDBRANCH  11  29
TORSDOF 9
