REMARK  Name = ZINC13978615
REMARK  11 active torsions:
REMARK  status: ('A' for Active; 'I' for Inactive)
REMARK    1  A    between atoms: C_1  and  C_2
REMARK    2  A    between atoms: C_2  and  C_3
REMARK    3  A    between atoms: C_6  and  O_10
REMARK    4  A    between atoms: O_10  and  C_11
REMARK    5  A    between atoms: C_11  and  C_12
REMARK    6  A    between atoms: N_14  and  C_15
REMARK    7  A    between atoms: C_15  and  N_17
REMARK    8  A    between atoms: N_17  and  N_18
REMARK    9  A    between atoms: C_19  and  C_21
REMARK   10  A    between atoms: C_24  and  N_27
REMARK   11  A    between atoms: C_28  and  C_30
REMARK                            x       y       z     vdW  Elec       q    Type
REMARK                         _______ _______ _______ _____ _____    ______ ____
ROOT
ATOM      1  N   UNL     1       5.380  -4.041  -0.042  0.00  0.00    -0.245 N 
ATOM      2  H   UNL     1       6.281  -4.401  -0.045  0.00  0.00    +0.172 HD
ENDROOT
BRANCH   1   3
ATOM      3  N   UNL     1       4.279  -4.907  -0.043  0.00  0.00    -0.231 N 
ATOM      4  C   UNL     1       4.471  -6.241  -0.049  0.00  0.00    +0.260 C 
ATOM      5  O   UNL     1       5.600  -6.693  -0.053  0.00  0.00    -0.269 OA
ATOM      6  H   UNL     1       3.379  -4.546  -0.040  0.00  0.00    +0.173 HD
BRANCH   4   7
ATOM      7  C   UNL     1       3.311  -7.153  -0.050  0.00  0.00    +0.038 A 
ATOM      8  C   UNL     1       2.013  -6.636  -0.040  0.00  0.00    +0.015 A 
ATOM      9  C   UNL     1       0.933  -7.489  -0.046  0.00  0.00    +0.024 A 
ATOM     10  C   UNL     1       1.133  -8.866  -0.052  0.00  0.00    +0.033 A 
ATOM     11  C   UNL     1       2.424  -9.385  -0.057  0.00  0.00    +0.024 A 
ATOM     12  C   UNL     1       3.508  -8.537  -0.056  0.00  0.00    +0.015 A 
BRANCH  10  13
ATOM     13  N   UNL     1       0.036  -9.728  -0.053  0.00  0.00    -0.285 N 
ATOM     14  C   UNL     1       0.095 -10.892  -0.730  0.00  0.00    +0.220 C 
ATOM     15  O   UNL     1       1.128 -11.229  -1.269  0.00  0.00    -0.275 OA
ATOM     16  H   UNL     1      -0.768  -9.490   0.434  0.00  0.00    +0.155 HD
BRANCH  14  17
ATOM     17  C   UNL     1      -1.123 -11.775  -0.817  0.00  0.00    +0.075 C 
ATOM     18  C   UNL     1      -1.082 -13.111  -0.072  0.00  0.00    +0.013 C 
ATOM     19  C   UNL     1      -0.993 -13.083  -1.600  0.00  0.00    +0.013 C 
ENDBRANCH  14  17
ENDBRANCH  10  13
ENDBRANCH   4   7
ENDBRANCH   1   3
BRANCH   1  20
ATOM     20  C   UNL     1       5.189  -2.707  -0.036  0.00  0.00    +0.153 C 
ATOM     21  S   UNL     1       6.534  -1.649  -0.034  0.00  0.00    -0.017 S 
BRANCH  20  24
ATOM     22  C   UNL     1       3.745  -0.872  -0.025  0.00  0.00    +0.256 C 
ATOM     23  O   UNL     1       4.699  -0.122  -0.024  0.00  0.00    -0.272 OA
ATOM     24  N   UNL     1       3.937  -2.206  -0.031  0.00  0.00    -0.264 N 
ATOM     25  H   UNL     1       3.175  -2.806  -0.032  0.00  0.00    +0.157 HD
BRANCH  22  26
ATOM     26  C   UNL     1       2.346  -0.312  -0.021  0.00  0.00    +0.325 C 
BRANCH  26  27
ATOM     27  O   UNL     1       2.405   1.116  -0.015  0.00  0.00    -0.482 OA
BRANCH  27  31
ATOM     28  C   UNL     1      -1.192   3.138  -0.001  0.00  0.00    -0.046 A 
ATOM     29  C   UNL     1      -1.177   1.755  -0.012  0.00  0.00    +0.007 A 
ATOM     30  C   UNL     1       0.026   1.076  -0.010  0.00  0.00    +0.047 A 
ATOM     31  C   UNL     1       1.220   1.782  -0.010  0.00  0.00    +0.135 A 
ATOM     32  C   UNL     1       1.203   3.170  -0.005  0.00  0.00    +0.060 A 
ATOM     33  C   UNL     1      -0.004   3.845   0.000  0.00  0.00    +0.022 A 
ATOM     34 BR   UNL     1       2.828   4.137  -0.004  0.00  0.00    -0.047 Br
BRANCH  28  36
ATOM     35  C   UNL     1      -2.952   4.131  -1.437  0.00  0.00    +0.009 C 
ATOM     36  C   UNL     1      -2.506   3.876   0.004  0.00  0.00    +0.032 C 
ENDBRANCH  28  36
ENDBRANCH  27  31
ENDBRANCH  26  27
ENDBRANCH  22  26
ENDBRANCH  20  24
ENDBRANCH   1  20
TORSDOF 10
