REMARK  Name = ZINC49067629
REMARK  9 active torsions:
REMARK  status: ('A' for Active; 'I' for Inactive)
REMARK    1  A    between atoms: C_8  and  C_10
REMARK    2  A    between atoms: C_10  and  N_11
REMARK    3  A    between atoms: N_11  and  C_12
REMARK    4  A    between atoms: N_11  and  C_28
REMARK    5  A    between atoms: C_12  and  C_13
REMARK    6  A    between atoms: C_16  and  C_19
REMARK    7  A    between atoms: C_19  and  N_20
REMARK    8  A    between atoms: N_20  and  C_21
REMARK    9  A    between atoms: C_21  and  C_22
REMARK                            x       y       z     vdW  Elec       q    Type
REMARK                         _______ _______ _______ _____ _____    ______ ____
ROOT
ATOM      1  N   UNL     1       3.371  -4.410  -1.404  0.00  0.00    -0.284 NA
ENDROOT
BRANCH   1   2
ATOM      2  C   UNL     1       2.095  -4.112  -2.068  0.00  0.00    +0.106 C 
ATOM      3  C   UNL     1       0.956  -4.266  -1.064  0.00  0.00    +0.025 C 
ATOM      4  C   UNL     1      -0.334  -3.748  -1.710  0.00  0.00    +0.007 C 
ATOM      5  C   UNL     1      -0.229  -2.229  -1.844  0.00  0.00    +0.037 C 
ATOM      6  C   UNL     1       1.065  -1.847  -2.512  0.00  0.00    -0.025 A 
ATOM      7  C   UNL     1       2.135  -2.706  -2.612  0.00  0.00    +0.062 A 
ATOM      8  N   UNL     1       3.252  -2.309  -3.207  0.00  0.00    -0.258 NA
ATOM      9  C   UNL     1       3.388  -1.105  -3.720  0.00  0.00    +0.111 A 
ATOM     10  C   UNL     1       2.353  -0.192  -3.657  0.00  0.00    +0.020 A 
ATOM     11  C   UNL     1       1.171  -0.566  -3.044  0.00  0.00    +0.007 A 
ENDBRANCH   1   2
BRANCH   1  12
ATOM     12  C   UNL     1       3.451  -3.745  -0.096  0.00  0.00    +0.148 C 
BRANCH  12  20
ATOM     13  C   UNL     1       2.705   2.343  -0.695  0.00  0.00    +0.002 A 
ATOM     14  C   UNL     1       4.061   2.542  -0.916  0.00  0.00    +0.001 A 
ATOM     15  C   UNL     1       4.917   1.457  -0.914  0.00  0.00    +0.017 A 
ATOM     16  C   UNL     1       4.410   0.200  -0.694  0.00  0.00    +0.039 A 
ATOM     17  C   UNL     1       3.035  -0.031  -0.467  0.00  0.00    +0.079 A 
ATOM     18  C   UNL     1       2.193   1.101  -0.476  0.00  0.00    +0.029 A 
ATOM     19  N   UNL     1       2.735  -1.332  -0.272  0.00  0.00    -0.243 NA
ATOM     20  C   UNL     1       3.643  -2.264  -0.296  0.00  0.00    +0.094 A 
ATOM     21  S   UNL     1       5.079  -1.441  -0.601  0.00  0.00    -0.071 S 
ENDBRANCH  12  20
ENDBRANCH   1  12
BRANCH   1  22
ATOM     22  C   UNL     1       3.569  -5.859  -1.271  0.00  0.00    +0.120 C 
BRANCH  22  23
ATOM     23  C   UNL     1       3.889  -6.448  -2.620  0.00  0.00    -0.033 A 
ATOM     24  C   UNL     1       2.881  -6.999  -3.390  0.00  0.00    +0.005 A 
ATOM     25  C   UNL     1       3.174  -7.540  -4.628  0.00  0.00    +0.002 A 
ATOM     26  C   UNL     1       4.475  -7.529  -5.097  0.00  0.00    -0.064 A 
ATOM     27  C   UNL     1       5.482  -6.977  -4.327  0.00  0.00    +0.002 A 
ATOM     28  C   UNL     1       5.188  -6.433  -3.091  0.00  0.00    +0.005 A 
BRANCH  26  29
ATOM     29  C   UNL     1       4.794  -8.119  -6.446  0.00  0.00    -0.046 C 
BRANCH  29  30
ATOM     30  N   UNL     1       4.787  -7.056  -7.460  0.00  0.00    +0.385 N 
ATOM     31  H   UNL     1       3.901  -6.574  -7.435  0.00  0.00    -0.085 HD
ATOM     32  H   UNL     1       5.531  -6.402  -7.266  0.00  0.00    -0.085 HD
BRANCH  30  33
ATOM     33  C   UNL     1       4.987  -7.646  -8.790  0.00  0.00    -0.026 C 
BRANCH  33  34
ATOM     34  C   UNL     1       4.980  -6.556  -9.830  0.00  0.00    +0.024 A 
ATOM     35  C   UNL     1       6.176  -6.012 -10.258  0.00  0.00    +0.021 A 
ATOM     36  C   UNL     1       6.159  -5.009 -11.214  0.00  0.00    +0.003 A 
ATOM     37  C   UNL     1       4.933  -4.589 -11.707  0.00  0.00    +0.020 A 
ATOM     38  C   UNL     1       3.777  -5.179 -11.232  0.00  0.00    +0.111 A 
ATOM     39  N   UNL     1       3.833  -6.135 -10.325  0.00  0.00    -0.262 NA
ENDBRANCH  33  34
ENDBRANCH  30  33
ENDBRANCH  29  30
ENDBRANCH  26  29
ENDBRANCH  22  23
ENDBRANCH   1  22
TORSDOF 9
