REMARK  Name = ZINC20756318
REMARK  9 active torsions:
REMARK  status: ('A' for Active; 'I' for Inactive)
REMARK    1  A    between atoms: C_1  and  O_2
REMARK    2  A    between atoms: O_2  and  C_3
REMARK    3  A    between atoms: C_13  and  C_18
REMARK    4  A    between atoms: N_25  and  C_28
REMARK    5  A    between atoms: C_28  and  C_29
REMARK    6  A    between atoms: C_31  and  O_37
REMARK    7  A    between atoms: C_33  and  O_35
REMARK    8  A    between atoms: O_35  and  C_36
REMARK    9  A    between atoms: O_37  and  C_38
REMARK                            x       y       z     vdW  Elec       q    Type
REMARK                         _______ _______ _______ _____ _____    ______ ____
ROOT
ATOM      1  C   UNL     1       2.798   3.531   0.975  0.00  0.00    +0.073 A 
ATOM      2  C   UNL     1       2.610   3.327   2.353  0.00  0.00    +0.260 A 
ATOM      3  O   UNL     1       1.523   2.975   2.779  0.00  0.00    -0.267 OA
ATOM      4  N   UNL     1       3.641   3.518   3.200  0.00  0.00    -0.275 N 
ATOM      5  H   UNL     1       3.495   3.350   4.278  0.00  0.00    +0.173 HD
ATOM      6  C   UNL     1       4.841   3.912   2.737  0.00  0.00    +0.332 A 
ATOM      7  O   UNL     1       5.757   4.084   3.517  0.00  0.00    -0.246 OA
ATOM      8  N   UNL     1       5.042   4.119   1.422  0.00  0.00    -0.256 N 
ATOM      9  C   UNL     1       4.021   3.930   0.525  0.00  0.00    +0.263 A 
ATOM     10  O   UNL     1       4.227   4.138  -0.793  0.00  0.00    -0.267 OA
ENDROOT
BRANCH   1  21
ATOM     11  C   UNL     1      -0.611  -2.296  -0.003  0.00  0.00    +0.121 A 
ATOM     12  C   UNL     1       0.731  -2.657  -0.019  0.00  0.00    +0.047 A 
ATOM     13  C   UNL     1       1.746  -1.717  -0.025  0.00  0.00    +0.030 A 
ATOM     14  C   UNL     1       1.371  -0.376  -0.014  0.00  0.00    +0.047 A 
ATOM     15  C   UNL     1       0.002  -0.004   0.002  0.00  0.00    +0.006 A 
ATOM     16  C   UNL     1      -1.012  -0.968   0.008  0.00  0.00    +0.056 A 
ATOM     17  C   UNL     1      -0.018   1.442   0.010  0.00  0.00    -0.022 A 
ATOM     18  C   UNL     1       1.269   1.859  -0.000  0.00  0.00    +0.011 A 
ATOM     19  N   UNL     1       2.107   0.778  -0.016  0.00  0.00    -0.359 N 
ATOM     20  H   UNL     1       3.205   0.730  -0.029  0.00  0.00    +0.166 HD
ATOM     21  C   UNL     1       1.661   3.318   0.009  0.00  0.00    +0.018 C 
ATOM     22  N   UNL     1       0.494   4.112   0.429  0.00  0.00    +0.388 N 
ATOM     23  C   UNL     1      -0.695   3.778  -0.367  0.00  0.00    -0.076 C 
ATOM     24  C   UNL     1      -1.197   2.381   0.021  0.00  0.00    +0.018 C 
ATOM     25  H   UNL     1       0.275   3.909   1.487  0.00  0.00    -0.084 HD
ATOM     26  H   UNL     1       0.713   5.182   0.298  0.00  0.00    -0.084 HD
BRANCH  11  28
ATOM     27  C   UNL     1      -1.096  -4.624  -0.008  0.00  0.00    +0.277 C 
ATOM     28  O   UNL     1      -1.558  -3.272   0.003  0.00  0.00    -0.495 OA
ENDBRANCH  11  28
ENDBRANCH   1  21
BRANCH   8  29
ATOM     29  C   UNL     1       6.359   4.548   0.946  0.00  0.00    +0.165 C 
BRANCH  29  30
ATOM     30  C   UNL     1       6.424   6.053   0.938  0.00  0.00    -0.021 A 
ATOM     31  C   UNL     1       6.049   6.753  -0.193  0.00  0.00    +0.051 A 
ATOM     32  C   UNL     1       6.104   8.140  -0.202  0.00  0.00    +0.124 A 
ATOM     33  C   UNL     1       6.545   8.822   0.922  0.00  0.00    +0.091 A 
ATOM     34  C   UNL     1       6.925   8.117   2.053  0.00  0.00    +0.124 A 
ATOM     35  C   UNL     1       6.864   6.731   2.059  0.00  0.00    +0.051 A 
BRANCH  34  36
ATOM     36  O   UNL     1       7.358   8.783   3.156  0.00  0.00    -0.495 OA
ATOM     37  C   UNL     1       7.395  10.210   3.080  0.00  0.00    +0.277 C 
ENDBRANCH  34  36
BRANCH  32  38
ATOM     38  O   UNL     1       5.730   8.828  -1.312  0.00  0.00    -0.495 OA
ATOM     39  C   UNL     1       5.817  10.254  -1.252  0.00  0.00    +0.277 C 
ENDBRANCH  32  38
ENDBRANCH  29  30
ENDBRANCH   8  29
TORSDOF 6
