REMARK  Name = ZINC38905175
REMARK  6 active torsions:
REMARK  status: ('A' for Active; 'I' for Inactive)
REMARK    1  A    between atoms: C_6  and  C_7
REMARK    2  A    between atoms: C_7  and  N_8
REMARK    3  A    between atoms: C_9  and  C_11
REMARK    4  A    between atoms: N_16  and  C_18
REMARK    5  A    between atoms: C_18  and  C_19
REMARK    6  A    between atoms: C_21  and  C_24
REMARK                            x       y       z     vdW  Elec       q    Type
REMARK                         _______ _______ _______ _____ _____    ______ ____
ROOT
ATOM      1  C   UNL     1      -3.313  -1.943  -3.024  0.00  0.00    +0.058 C 
ATOM      2  C   UNL     1      -3.523  -0.604  -3.737  0.00  0.00    +0.009 C 
ATOM      3  C   UNL     1      -4.051  -0.867  -5.151  0.00  0.00    -0.018 C 
ATOM      4  C   UNL     1      -5.340  -1.687  -5.064  0.00  0.00    -0.078 C 
ATOM      5  N   UNL     1      -5.067  -2.965  -4.396  0.00  0.00    +0.386 N 
ATOM      6  C   UNL     1      -4.629  -2.724  -3.016  0.00  0.00    -0.065 C 
ATOM      7  H   UNL     1      -4.342  -3.457  -4.897  0.00  0.00    -0.081 HD
ENDROOT
BRANCH   1   9
ATOM      8  N   UNL     1      -1.726  -1.017  -1.368  0.00  0.00    -0.311 N 
ATOM      9  C   UNL     1      -2.867  -1.694  -1.606  0.00  0.00    +0.215 C 
ATOM     10  O   UNL     1      -3.535  -2.102  -0.680  0.00  0.00    -0.276 OA
ATOM     11  H   UNL     1      -1.192  -0.691  -2.108  0.00  0.00    +0.149 HD
BRANCH   8  12
ATOM     12  C   UNL     1      -1.293  -0.775   0.011  0.00  0.00    +0.139 C 
BRANCH  12  18
ATOM     13  C   UNL     1      -0.017   1.378   0.010  0.00  0.00    +0.006 A 
ATOM     14  C   UNL     1       1.171   2.086   0.002  0.00  0.00    +0.020 A 
ATOM     15  C   UNL     1       2.378   1.410  -0.013  0.00  0.00    +0.041 A 
ATOM     16  C   UNL     1       2.396   0.027  -0.021  0.00  0.00    +0.020 A 
ATOM     17  C   UNL     1       1.208  -0.679  -0.013  0.00  0.00    +0.006 A 
ATOM     18  C   UNL     1       0.002  -0.004   0.002  0.00  0.00    -0.030 A 
ATOM     19 CL   UNL     1       3.870   2.298  -0.023  0.00  0.00    -0.084 Cl
ENDBRANCH  12  18
ENDBRANCH   8  12
ENDBRANCH   1   9
BRANCH   5  20
ATOM     20  C   UNL     1      -6.289  -3.780  -4.385  0.00  0.00    +0.022 C 
BRANCH  20  21
ATOM     21  C   UNL     1      -6.666  -4.141  -5.799  0.00  0.00    +0.211 A 
ATOM     22  N   UNL     1      -6.274  -5.202  -6.444  0.00  0.00    -0.193 NA
ATOM     23  C   UNL     1      -6.799  -5.209  -7.682  0.00  0.00    +0.202 A 
ATOM     24  N   UNL     1      -7.536  -4.136  -7.830  0.00  0.00    -0.056 NA
ATOM     25  O   UNL     1      -7.464  -3.426  -6.602  0.00  0.00    -0.340 OA
BRANCH  23  26
ATOM     26  C   UNL     1      -6.579  -6.256  -8.710  0.00  0.00    +0.023 A 
ATOM     27  C   UNL     1      -5.773  -7.357  -8.426  0.00  0.00    +0.013 A 
ATOM     28  C   UNL     1      -5.572  -8.328  -9.385  0.00  0.00    +0.016 A 
ATOM     29  C   UNL     1      -6.169  -8.210 -10.628  0.00  0.00    +0.018 A 
ATOM     30  C   UNL     1      -6.970  -7.119 -10.916  0.00  0.00    +0.016 A 
ATOM     31  C   UNL     1      -7.183  -6.145  -9.961  0.00  0.00    +0.013 A 
ATOM     32 BR   UNL     1      -5.889  -9.545 -11.938  0.00  0.00    -0.050 Br
ENDBRANCH  23  26
ENDBRANCH  20  21
ENDBRANCH   5  20
TORSDOF 6
