REMARK  Name = ZINC44245452
REMARK  8 active torsions:
REMARK  status: ('A' for Active; 'I' for Inactive)
REMARK    1  A    between atoms: C_1  and  C_2
REMARK    2  A    between atoms: C_2  and  N_3
REMARK    3  A    between atoms: C_5  and  N_8
REMARK    4  A    between atoms: N_8  and  S_9
REMARK    5  A    between atoms: S_9  and  C_12
REMARK    6  A    between atoms: C_14  and  C_18
REMARK    7  A    between atoms: C_19  and  C_20
REMARK    8  A    between atoms: C_20  and  O_21
REMARK                            x       y       z     vdW  Elec       q    Type
REMARK                         _______ _______ _______ _____ _____    ______ ____
ROOT
ATOM      1  S   UNL     1      -5.081  -3.459  -0.311  0.00  0.00    +0.074 S 
ATOM      2  O   UNL     1      -5.907  -4.136  -1.248  0.00  0.00    -0.150 OA
ATOM      3  O   UNL     1      -4.223  -4.149   0.588  0.00  0.00    -0.150 OA
ENDROOT
BRANCH   1   4
ATOM      4  C   UNL     1      -6.150  -2.465   0.677  0.00  0.00    +0.128 A 
ATOM      5  C   UNL     1      -5.764  -2.072   1.947  0.00  0.00    +0.048 A 
ATOM      6  C   UNL     1      -6.646  -1.284   2.693  0.00  0.00    +0.045 A 
ATOM      7  C   UNL     1      -7.873  -0.927   2.131  0.00  0.00    +0.127 A 
ATOM      8  N   UNL     1      -8.195  -1.327   0.918  0.00  0.00    -0.260 NA
ATOM      9  C   UNL     1      -7.380  -2.065   0.189  0.00  0.00    +0.139 A 
BRANCH   6  10
ATOM     10  C   UNL     1      -6.297  -0.851   4.013  0.00  0.00    -0.062 C 
ATOM     11  C   UNL     1      -6.011  -0.495   5.095  0.00  0.00    -0.069 C 
BRANCH  11  12
ATOM     12  C   UNL     1      -5.652  -0.050   6.451  0.00  0.00    +0.244 C 
BRANCH  12  13
ATOM     13  O   UNL     1      -6.716   0.735   6.992  0.00  0.00    -0.383 OA
ATOM     14  H   UNL     1      -6.548   1.063   7.886  0.00  0.00    +0.211 HD
ENDBRANCH  12  13
ENDBRANCH  11  12
ENDBRANCH   6  10
ENDBRANCH   1   4
BRANCH   1  15
ATOM     15  N   UNL     1      -4.122  -2.429  -1.183  0.00  0.00    -0.213 N 
ATOM     16  H   UNL     1      -4.194  -2.401  -2.150  0.00  0.00    +0.174 HD
BRANCH  15  19
ATOM     17  N   UNL     1      -1.372  -0.511   0.012  0.00  0.00    -0.270 N 
ATOM     18  C   UNL     1      -1.912  -1.379  -0.884  0.00  0.00    +0.132 A 
ATOM     19  C   UNL     1      -3.202  -1.593  -0.521  0.00  0.00    +0.085 A 
ATOM     20  C   UNL     1      -3.457  -0.834   0.630  0.00  0.00    +0.158 A 
ATOM     21  N   UNL     1      -2.362  -0.193   0.951  0.00  0.00    -0.178 NA
BRANCH  17  23
ATOM     22  C   UNL     1      -0.019   1.526   0.010  0.00  0.00    +0.029 C 
ATOM     23  C   UNL     1       0.002  -0.004   0.002  0.00  0.00    +0.140 C 
ENDBRANCH  17  23
ENDBRANCH  15  19
ENDBRANCH   1  15
TORSDOF 7
