REMARK  Name = ZINC39668164
REMARK  5 active torsions:
REMARK  status: ('A' for Active; 'I' for Inactive)
REMARK    1  A    between atoms: C_6  and  C_7
REMARK    2  A    between atoms: C_7  and  N_8
REMARK    3  A    between atoms: C_9  and  C_11
REMARK    4  A    between atoms: C_22  and  C_24
REMARK    5  A    between atoms: C_30  and  C_32
REMARK                            x       y       z     vdW  Elec       q    Type
REMARK                         _______ _______ _______ _____ _____    ______ ____
ROOT
ATOM      1  C   UNL     1      -3.319  -1.951  -3.012  0.00  0.00    +0.100 C 
ATOM      2  C   UNL     1      -3.732  -0.624  -3.688  0.00  0.00    +0.121 C 
ATOM      3  N   UNL     1      -4.899  -0.980  -4.529  0.00  0.00    -0.299 N 
ATOM      4  C   UNL     1      -5.668  -1.943  -3.705  0.00  0.00    +0.115 C 
ATOM      5  C   UNL     1      -4.593  -2.813  -3.025  0.00  0.00    -0.004 C 
ATOM      6  C   UNL     1      -5.015  -3.153  -1.599  0.00  0.00    -0.010 C 
ATOM      7  C   UNL     1      -6.248  -4.059  -1.638  0.00  0.00    -0.082 C 
ATOM      8  N   UNL     1      -5.934  -5.285  -2.382  0.00  0.00    +0.379 N 
ATOM      9  C   UNL     1      -5.619  -4.957  -3.778  0.00  0.00    -0.082 C 
ATOM     10  C   UNL     1      -4.359  -4.089  -3.829  0.00  0.00    -0.010 C 
ATOM     11  C   UNL     1      -5.194  -0.529  -5.765  0.00  0.00    +0.236 C 
ATOM     12  O   UNL     1      -6.196  -0.918  -6.328  0.00  0.00    -0.274 OA
ATOM     13  H   UNL     1      -5.139  -5.740  -1.958  0.00  0.00    -0.086 HD
ATOM     14  H   UNL     1      -6.728  -5.907  -2.355  0.00  0.00    -0.086 HD
ENDROOT
BRANCH  11  15
ATOM     15  C   UNL     1      -4.280   0.457  -6.446  0.00  0.00    +0.162 C 
ATOM     16  C   UNL     1      -4.556   1.880  -5.917  0.00  0.00    +0.033 C 
ATOM     17  C   UNL     1      -4.418   2.756  -7.190  0.00  0.00    +0.021 C 
ATOM     18  C   UNL     1      -4.997   1.819  -8.278  0.00  0.00    +0.109 C 
ATOM     19  N   UNL     1      -4.545   0.466  -7.892  0.00  0.00    -0.283 N 
ATOM     20  C   UNL     1      -4.397  -0.584  -8.725  0.00  0.00    +0.320 C 
ATOM     21  O   UNL     1      -4.017  -1.651  -8.293  0.00  0.00    -0.266 OA
BRANCH  20  22
ATOM     22  C   UNL     1      -4.706  -0.431 -10.192  0.00  0.00    +0.470 C 
ATOM     23  F   UNL     1      -4.479  -1.647 -10.845  0.00  0.00    -0.162 F 
ATOM     24  F   UNL     1      -6.045  -0.059 -10.351  0.00  0.00    -0.162 F 
ATOM     25  F   UNL     1      -3.879   0.555 -10.742  0.00  0.00    -0.162 F 
ENDBRANCH  20  22
ENDBRANCH  11  15
BRANCH   1  27
ATOM     26  N   UNL     1      -1.966  -2.520  -1.021  0.00  0.00    -0.311 N 
ATOM     27  C   UNL     1      -2.869  -1.700  -1.596  0.00  0.00    +0.218 C 
ATOM     28  O   UNL     1      -3.319  -0.762  -0.974  0.00  0.00    -0.275 OA
ATOM     29  H   UNL     1      -1.607  -3.271  -1.519  0.00  0.00    +0.149 HD
BRANCH  26  30
ATOM     30  C   UNL     1      -1.529  -2.276   0.356  0.00  0.00    +0.139 C 
BRANCH  30  36
ATOM     31  C   UNL     1       0.824  -3.117   0.537  0.00  0.00    +0.009 A 
ATOM     32  C   UNL     1       1.747  -4.073   0.907  0.00  0.00    +0.046 A 
ATOM     33  C   UNL     1       1.328  -5.259   1.503  0.00  0.00    +0.124 A 
ATOM     34  C   UNL     1      -0.031  -5.462   1.712  0.00  0.00    -0.002 A 
ATOM     35  C   UNL     1      -0.950  -4.504   1.347  0.00  0.00    +0.012 A 
ATOM     36  C   UNL     1      -0.525  -3.326   0.757  0.00  0.00    -0.030 A 
ATOM     37  C   UNL     1      -0.183  -6.831   2.345  0.00  0.00    +0.080 C 
ATOM     38  C   UNL     1       1.201  -7.465   2.075  0.00  0.00    +0.234 C 
ATOM     39  O   UNL     1       2.058  -6.317   1.951  0.00  0.00    -0.491 OA
ENDBRANCH  30  36
ENDBRANCH  26  30
ENDBRANCH   1  27
TORSDOF 5
