REMARK  Name = ZINC07010264
REMARK  6 active torsions:
REMARK  status: ('A' for Active; 'I' for Inactive)
REMARK    1  A    between atoms: C_1  and  C_2
REMARK    2  A    between atoms: C_2  and  C_26
REMARK    3  A    between atoms: C_7  and  C_11
REMARK    4  A    between atoms: N_13  and  N_14
REMARK    5  A    between atoms: C_15  and  C_17
REMARK    6  A    between atoms: C_20  and  N_23
REMARK                            x       y       z     vdW  Elec       q    Type
REMARK                         _______ _______ _______ _____ _____    ______ ____
ROOT
ATOM      1  C   UNL     1      -6.348   7.791  -0.471  0.00  0.00    +0.239 C 
ATOM      2  O   UNL     1      -5.320   8.432  -0.415  0.00  0.00    -0.273 OA
ATOM      3  N   UNL     1      -6.308   6.477  -0.766  0.00  0.00    -0.233 N 
ATOM      4  H   UNL     1      -7.131   5.964  -0.811  0.00  0.00    +0.173 HD
ENDROOT
BRANCH   1  10
ATOM      5  C   UNL     1      -9.238   9.553   2.743  0.00  0.00    +0.016 C 
ATOM      6  C   UNL     1      -9.468   9.051   1.316  0.00  0.00    -0.010 C 
ATOM      7  C   UNL     1      -9.163  10.182   0.287  0.00  0.00    +0.000 C 
ATOM      8  C   UNL     1      -9.666   9.611  -1.075  0.00  0.00    +0.006 C 
ATOM      9  C   UNL     1      -8.678   8.467  -1.402  0.00  0.00    +0.021 C 
ATOM     10  C   UNL     1      -7.671   8.465  -0.212  0.00  0.00    +0.070 C 
ATOM     11  C   UNL     1      -7.612   9.998   0.122  0.00  0.00    +0.025 C 
ATOM     12  C   UNL     1      -8.466   7.938   0.990  0.00  0.00    -0.056 C 
ATOM     13  C   UNL     1      -8.328   6.780   1.589  0.00  0.00    +0.009 C 
ATOM     14  C   UNL     1     -10.906   8.555   1.150  0.00  0.00    +0.016 C 
ENDBRANCH   1  10
BRANCH   3  15
ATOM     15  N   UNL     1      -5.079   5.850  -1.007  0.00  0.00    -0.230 N 
ATOM     16  C   UNL     1      -5.039   4.535  -1.301  0.00  0.00    +0.260 C 
ATOM     17  O   UNL     1      -6.069   3.893  -1.358  0.00  0.00    -0.269 OA
ATOM     18  H   UNL     1      -4.256   6.362  -0.962  0.00  0.00    +0.173 HD
BRANCH  16  19
ATOM     19  C   UNL     1      -3.741   3.874  -1.556  0.00  0.00    +0.038 A 
ATOM     20  C   UNL     1      -3.696   2.513  -1.861  0.00  0.00    +0.015 A 
ATOM     21  C   UNL     1      -2.482   1.901  -2.097  0.00  0.00    +0.033 A 
ATOM     22  C   UNL     1      -1.311   2.635  -2.031  0.00  0.00    +0.126 A 
ATOM     23  C   UNL     1      -1.348   3.983  -1.724  0.00  0.00    +0.033 A 
ATOM     24  C   UNL     1      -2.556   4.608  -1.492  0.00  0.00    +0.015 A 
BRANCH  22  25
ATOM     25  N   UNL     1      -0.012   1.972  -2.285  0.00  0.00    +0.056 N 
ATOM     26  O   UNL     1       0.024   0.784  -2.551  0.00  0.00    -0.126 OA
ATOM     27  O   UNL     1       1.021   2.616  -2.233  0.00  0.00    -0.126 OA
ENDBRANCH  22  25
ENDBRANCH  16  19
ENDBRANCH   3  15
TORSDOF 4
