REMARK  Name = ZINC12434171
REMARK  7 active torsions:
REMARK  status: ('A' for Active; 'I' for Inactive)
REMARK    1  A    between atoms: C_4  and  C_7
REMARK    2  A    between atoms: C_7  and  C_8
REMARK    3  A    between atoms: C_8  and  C_27
REMARK    4  A    between atoms: N_12  and  C_14
REMARK    5  A    between atoms: C_14  and  C_15
REMARK    6  A    between atoms: C_20  and  C_21
REMARK    7  A    between atoms: C_27  and  O_28
REMARK                            x       y       z     vdW  Elec       q    Type
REMARK                         _______ _______ _______ _____ _____    ______ ____
ROOT
ATOM      1  C   UNL     1      -4.228   4.194  -3.123  0.00  0.00    -0.017 C 
ATOM      2  C   UNL     1      -5.517   3.992  -3.924  0.00  0.00    +0.006 C 
ATOM      3  C   UNL     1      -6.708   4.468  -3.087  0.00  0.00    -0.018 C 
ATOM      4  C   UNL     1      -6.738   3.696  -1.766  0.00  0.00    -0.078 C 
ATOM      5  N   UNL     1      -5.483   3.922  -1.038  0.00  0.00    +0.383 N 
ATOM      6  C   UNL     1      -4.330   3.430  -1.801  0.00  0.00    -0.069 C 
ATOM      7  H   UNL     1      -5.361   5.008  -0.908  0.00  0.00    -0.081 HD
ENDROOT
BRANCH   1   8
ATOM      8  C   UNL     1      -3.039   3.666  -3.928  0.00  0.00    +0.042 C 
BRANCH   8  12
ATOM      9  C   UNL     1      -2.765   5.789  -7.625  0.00  0.00    +0.000 A 
ATOM     10  C   UNL     1      -2.098   6.257  -6.508  0.00  0.00    +0.000 A 
ATOM     11  C   UNL     1      -2.187   5.570  -5.312  0.00  0.00    +0.003 A 
ATOM     12  C   UNL     1      -2.942   4.415  -5.232  0.00  0.00    -0.047 A 
ATOM     13  C   UNL     1      -3.605   3.944  -6.351  0.00  0.00    +0.003 A 
ATOM     14  C   UNL     1      -3.520   4.634  -7.545  0.00  0.00    +0.000 A 
ENDBRANCH   8  12
ENDBRANCH   1   8
BRANCH   5  15
ATOM     15  C   UNL     1      -5.532   3.309   0.297  0.00  0.00    -0.040 C 
BRANCH  15  16
ATOM     16  C   UNL     1      -5.649   1.813   0.158  0.00  0.00    -0.023 A 
ATOM     17  C   UNL     1      -6.800   1.101   0.169  0.00  0.00    +0.107 A 
ATOM     18  N   UNL     1      -6.479  -0.201   0.019  0.00  0.00    -0.284 N 
ATOM     19  H   UNL     1      -7.271  -0.964   0.004  0.00  0.00    +0.188 HD
ATOM     20  N   UNL     1      -5.085  -0.291  -0.092  0.00  0.00    -0.178 NA
ATOM     21  C   UNL     1      -4.589   0.916  -0.003  0.00  0.00    +0.067 A 
BRANCH  21  22
ATOM     22  C   UNL     1      -3.127   1.277  -0.068  0.00  0.00    +0.040 C 
ATOM     23  C   UNL     1      -2.526   0.734  -1.366  0.00  0.00    +0.010 C 
ATOM     24  C   UNL     1      -1.042   1.101  -1.433  0.00  0.00    +0.001 C 
ATOM     25  C   UNL     1      -0.311   0.489  -0.236  0.00  0.00    +0.000 C 
ATOM     26  C   UNL     1      -0.912   1.032   1.061  0.00  0.00    +0.001 C 
ATOM     27  C   UNL     1      -2.396   0.665   1.128  0.00  0.00    +0.010 C 
ENDBRANCH  21  22
ENDBRANCH  15  16
ENDBRANCH   5  15
BRANCH   1  28
ATOM     28  C   UNL     1      -4.031   5.684  -2.839  0.00  0.00    +0.161 C 
BRANCH  28  29
ATOM     29  O   UNL     1      -3.940   6.397  -4.075  0.00  0.00    -0.395 OA
ATOM     30  H   UNL     1      -3.796   7.487  -4.072  0.00  0.00    +0.209 HD
ENDBRANCH  28  29
ENDBRANCH   1  28
TORSDOF 7
