REMARK  Name = ZINC15912592
REMARK  9 active torsions:
REMARK  status: ('A' for Active; 'I' for Inactive)
REMARK    1  A    between atoms: C_6  and  C_7
REMARK    2  A    between atoms: N_9  and  C_10
REMARK    3  A    between atoms: C_10  and  C_11
REMARK    4  A    between atoms: C_11  and  C_12
REMARK    5  A    between atoms: N_14  and  N_15
REMARK    6  A    between atoms: N_15  and  C_16
REMARK    7  A    between atoms: C_16  and  N_18
REMARK    8  A    between atoms: N_18  and  C_19
REMARK    9  A    between atoms: C_19  and  C_20
REMARK                            x       y       z     vdW  Elec       q    Type
REMARK                         _______ _______ _______ _____ _____    ______ ____
ROOT
ATOM      1  C   UNL     1      -4.034   0.021   5.255  0.00  0.00    +0.231 C 
ATOM      2  O   UNL     1      -5.055  -0.593   5.478  0.00  0.00    -0.274 OA
ATOM      3  N   UNL     1      -3.654   0.258   3.984  0.00  0.00    -0.235 N 
ATOM      4  H   UNL     1      -2.837   0.749   3.805  0.00  0.00    +0.173 HD
ENDROOT
BRANCH   3   5
ATOM      5  N   UNL     1      -4.440  -0.204   2.920  0.00  0.00    -0.246 N 
ATOM      6  H   UNL     1      -5.258  -0.695   3.099  0.00  0.00    +0.172 HD
BRANCH   5   7
ATOM      7  C   UNL     1      -4.061   0.034   1.649  0.00  0.00    +0.147 C 
ATOM      8  S   UNL     1      -5.021  -0.530   0.349  0.00  0.00    -0.017 S 
BRANCH   7   9
ATOM      9  N   UNL     1      -2.925   0.716   1.401  0.00  0.00    -0.321 N 
ATOM     10  H   UNL     1      -2.381   1.036   2.138  0.00  0.00    +0.148 HD
BRANCH   9  11
ATOM     11  C   UNL     1      -2.513   0.975   0.019  0.00  0.00    +0.138 C 
BRANCH  11  12
ATOM     12  C   UNL     1      -1.220   1.749   0.017  0.00  0.00    -0.027 A 
ATOM     13  C   UNL     1      -0.013   1.076   0.008  0.00  0.00    +0.009 A 
ATOM     14  C   UNL     1       1.176   1.782   0.000  0.00  0.00    +0.050 A 
ATOM     15  C   UNL     1       1.160   3.167   0.008  0.00  0.00    +0.166 A 
ATOM     16  C   UNL     1      -0.057   3.845   0.022  0.00  0.00    +0.167 A 
ATOM     17  C   UNL     1      -1.244   3.131   0.031  0.00  0.00    +0.054 A 
ATOM     18  O   UNL     1       0.192   5.188   0.026  0.00  0.00    -0.453 OA
ATOM     19  C   UNL     1       1.561   5.326  -0.398  0.00  0.00    +0.466 C 
ATOM     20  O   UNL     1       2.171   4.084   0.002  0.00  0.00    -0.453 OA
ENDBRANCH  11  12
ENDBRANCH   9  11
ENDBRANCH   7   9
ENDBRANCH   5   7
ENDBRANCH   3   5
BRANCH   1  21
ATOM     21  C   UNL     1      -3.188   0.517   6.399  0.00  0.00    +0.116 C 
BRANCH  21  22
ATOM     22  C   UNL     1      -3.838   0.117   7.725  0.00  0.00    +0.114 C 
BRANCH  22  25
ATOM     23  C   UNL     1      -3.396   0.362  10.109  0.00  0.00    +0.244 C 
ATOM     24  O   UNL     1      -4.420  -0.253  10.332  0.00  0.00    -0.270 OA
ATOM     25  N   UNL     1      -3.016   0.600   8.838  0.00  0.00    -0.311 N 
ATOM     26  H   UNL     1      -2.199   1.091   8.659  0.00  0.00    +0.149 HD
BRANCH  23  32
ATOM     27  C   UNL     1      -1.387   1.552  10.977  0.00  0.00    +0.014 A 
ATOM     28  C   UNL     1      -0.620   2.010  12.029  0.00  0.00    +0.016 A 
ATOM     29  C   UNL     1      -1.012   1.763  13.334  0.00  0.00    +0.018 A 
ATOM     30  C   UNL     1      -2.179   1.063  13.591  0.00  0.00    +0.016 A 
ATOM     31  C   UNL     1      -2.957   0.605  12.549  0.00  0.00    +0.014 A 
ATOM     32  C   UNL     1      -2.566   0.850  11.231  0.00  0.00    +0.037 A 
ATOM     33 BR   UNL     1       0.049   2.387  14.769  0.00  0.00    -0.050 Br
ENDBRANCH  23  32
ENDBRANCH  22  25
ENDBRANCH  21  22
ENDBRANCH   1  21
TORSDOF 9
