REMARK  Name = ZINC39899678
REMARK  10 active torsions:
REMARK  status: ('A' for Active; 'I' for Inactive)
REMARK    1  A    between atoms: C_1  and  C_2
REMARK    2  A    between atoms: C_5  and  S_8
REMARK    3  A    between atoms: S_8  and  N_11
REMARK    4  A    between atoms: N_11  and  C_12
REMARK    5  A    between atoms: C_15  and  N_18
REMARK    6  A    between atoms: C_19  and  O_21
REMARK    7  A    between atoms: O_21  and  C_22
REMARK    8  A    between atoms: C_22  and  C_23
REMARK    9  A    between atoms: C_23  and  C_24
REMARK   10  A    between atoms: C_23  and  C_25
REMARK                            x       y       z     vdW  Elec       q    Type
REMARK                         _______ _______ _______ _____ _____    ______ ____
ROOT
ATOM      1  C   UNL     1       2.411  -4.598   1.206  0.00  0.00    +0.048 A 
ATOM      2  C   UNL     1       2.313  -3.345   1.798  0.00  0.00    +0.026 A 
ATOM      3  C   UNL     1       3.030  -3.066   2.945  0.00  0.00    +0.025 A 
ATOM      4  C   UNL     1       3.847  -4.037   3.507  0.00  0.00    +0.037 A 
ATOM      5  C   UNL     1       3.945  -5.289   2.915  0.00  0.00    +0.025 A 
ATOM      6  C   UNL     1       3.224  -5.571   1.771  0.00  0.00    +0.026 A 
ENDROOT
BRANCH   4   7
ATOM      7  N   UNL     1       4.575  -3.753   4.671  0.00  0.00    -0.251 N 
ATOM      8  C   UNL     1       4.061  -2.925   5.601  0.00  0.00    +0.405 C 
ATOM      9  O   UNL     1       2.930  -2.499   5.478  0.00  0.00    -0.226 OA
ATOM     10  H   UNL     1       5.448  -4.153   4.807  0.00  0.00    +0.158 HD
BRANCH   8  11
ATOM     11  O   UNL     1       4.801  -2.568   6.668  0.00  0.00    -0.450 OA
BRANCH  11  12
ATOM     12  C   UNL     1       4.194  -1.687   7.615  0.00  0.00    +0.236 C 
BRANCH  12  13
ATOM     13  C   UNL     1       5.179  -1.398   8.749  0.00  0.00    +0.021 C 
ATOM     14  C   UNL     1       4.576  -0.359   9.696  0.00  0.00    +0.010 C 
ATOM     15  C   UNL     1       5.462  -2.688   9.520  0.00  0.00    +0.010 C 
ENDBRANCH  12  13
ENDBRANCH  11  12
ENDBRANCH   8  11
ENDBRANCH   4   7
BRANCH   1  16
ATOM     16  N   UNL     1       1.684  -4.881   0.045  0.00  0.00    -0.216 N 
ATOM     17  H   UNL     1       2.117  -5.325  -0.701  0.00  0.00    +0.174 HD
BRANCH  16  18
ATOM     18  S   UNL     1       0.086  -4.458  -0.057  0.00  0.00    +0.072 S 
ATOM     19  O   UNL     1      -0.389  -4.962  -1.297  0.00  0.00    -0.150 OA
ATOM     20  O   UNL     1       0.008  -3.081   0.286  0.00  0.00    -0.150 OA
BRANCH  18  25
ATOM     21  C   UNL     1      -2.840  -7.481   4.268  0.00  0.00    +0.044 C 
ATOM     22  C   UNL     1      -2.109  -6.726   3.188  0.00  0.00    -0.050 A 
ATOM     23  C   UNL     1      -1.509  -5.514   3.476  0.00  0.00    +0.005 A 
ATOM     24  C   UNL     1      -0.838  -4.822   2.486  0.00  0.00    +0.029 A 
ATOM     25  C   UNL     1      -0.767  -5.341   1.206  0.00  0.00    +0.109 A 
ATOM     26  C   UNL     1      -1.367  -6.553   0.918  0.00  0.00    +0.029 A 
ATOM     27  C   UNL     1      -2.034  -7.247   1.910  0.00  0.00    +0.005 A 
ENDBRANCH  18  25
ENDBRANCH  16  18
ENDBRANCH   1  16
TORSDOF 7
