REMARK  Name = ZINC09095208
REMARK  7 active torsions:
REMARK  status: ('A' for Active; 'I' for Inactive)
REMARK    1  A    between atoms: C_1  and  C_2
REMARK    2  A    between atoms: C_5  and  C_8
REMARK    3  A    between atoms: C_9  and  C_18
REMARK    4  A    between atoms: N_28  and  C_29
REMARK    5  A    between atoms: C_29  and  C_30
REMARK    6  A    between atoms: C_30  and  C_31
REMARK    7  A    between atoms: N_33  and  C_34
REMARK                            x       y       z     vdW  Elec       q    Type
REMARK                         _______ _______ _______ _____ _____    ______ ____
ROOT
ATOM      1  C   UNL     1       2.943   3.886  -1.786  0.00  0.00    +0.140 C 
ATOM      2  C   UNL     1       4.339   4.110  -1.261  0.00  0.00    -0.010 A 
ATOM      3  C   UNL     1       5.022   3.635  -0.165  0.00  0.00    +0.006 A 
ATOM      4  C   UNL     1       6.330   4.030   0.059  0.00  0.00    +0.000 A 
ATOM      5  C   UNL     1       6.953   4.903  -0.815  0.00  0.00    +0.001 A 
ATOM      6  C   UNL     1       6.277   5.386  -1.916  0.00  0.00    +0.013 A 
ATOM      7  C   UNL     1       4.958   4.992  -2.150  0.00  0.00    +0.042 A 
ATOM      8  C   UNL     1       3.994   5.328  -3.215  0.00  0.00    +0.248 C 
ATOM      9  O   UNL     1       4.222   6.074  -4.147  0.00  0.00    -0.270 OA
ATOM     10  N   UNL     1       2.829   4.691  -3.007  0.00  0.00    -0.286 N 
ENDROOT
BRANCH   1  12
ATOM     11  C   UNL     1       1.151   3.548   0.008  0.00  0.00    +0.053 A 
ATOM     12  C   UNL     1       1.928   4.342  -0.769  0.00  0.00    +0.010 A 
ATOM     13  C   UNL     1       1.592   5.726  -0.435  0.00  0.00    +0.006 A 
ATOM     14  C   UNL     1       2.043   6.968  -0.890  0.00  0.00    +0.010 A 
ATOM     15  C   UNL     1       1.521   8.114  -0.361  0.00  0.00    +0.001 A 
ATOM     16  C   UNL     1       0.545   8.055   0.625  0.00  0.00    +0.002 A 
ATOM     17  C   UNL     1       0.086   6.842   1.088  0.00  0.00    +0.026 A 
ATOM     18  C   UNL     1       0.603   5.661   0.565  0.00  0.00    +0.047 A 
ATOM     19  N   UNL     1       0.355   4.329   0.814  0.00  0.00    -0.354 N 
ATOM     20  H   UNL     1      -0.285   3.993   1.461  0.00  0.00    +0.166 HD
BRANCH  11  25
ATOM     21  C   UNL     1       1.192  -2.207  -0.042  0.00  0.00    +0.044 C 
ATOM     22  C   UNL     1       1.181  -0.700  -0.029  0.00  0.00    -0.050 A 
ATOM     23  C   UNL     1      -0.024  -0.019  -0.016  0.00  0.00    +0.004 A 
ATOM     24  C   UNL     1      -0.040   1.360  -0.004  0.00  0.00    +0.010 A 
ATOM     25  C   UNL     1       1.161   2.069  -0.004  0.00  0.00    -0.001 A 
ATOM     26  C   UNL     1       2.373   1.377  -0.016  0.00  0.00    +0.010 A 
ATOM     27  C   UNL     1       2.376  -0.002  -0.029  0.00  0.00    +0.004 A 
ENDBRANCH  11  25
ENDBRANCH   1  12
BRANCH  10  28
ATOM     28  C   UNL     1       1.642   4.784  -3.861  0.00  0.00    +0.118 C 
BRANCH  28  29
ATOM     29  C   UNL     1       0.756   5.934  -3.378  0.00  0.00    +0.115 C 
BRANCH  29  30
ATOM     30  C   UNL     1      -0.465   6.029  -4.255  0.00  0.00    +0.219 C 
ATOM     31  O   UNL     1      -0.613   5.254  -5.176  0.00  0.00    -0.275 OA
ATOM     32  N   UNL     1      -1.394   6.977  -4.017  0.00  0.00    -0.284 N 
ATOM     33  H   UNL     1      -1.311   7.553  -3.241  0.00  0.00    +0.155 HD
BRANCH  32  34
ATOM     34  C   UNL     1      -2.478   7.129  -4.889  0.00  0.00    +0.052 A 
ATOM     35  C   UNL     1      -3.046   6.020  -5.511  0.00  0.00    +0.026 A 
ATOM     36  C   UNL     1      -4.117   6.221  -6.365  0.00  0.00    +0.021 A 
ATOM     37  C   UNL     1      -4.584   7.506  -6.571  0.00  0.00    +0.111 A 
ATOM     38  N   UNL     1      -4.024   8.536  -5.967  0.00  0.00    -0.261 NA
ATOM     39  C   UNL     1      -3.007   8.388  -5.142  0.00  0.00    +0.134 A 
ENDBRANCH  32  34
ENDBRANCH  29  30
ENDBRANCH  28  29
ENDBRANCH  10  28
TORSDOF 6
