REMARK  Name = ZINC21325418
REMARK  10 active torsions:
REMARK  status: ('A' for Active; 'I' for Inactive)
REMARK    1  A    between atoms: C_1  and  C_2
REMARK    2  A    between atoms: C_2  and  C_29
REMARK    3  A    between atoms: N_3  and  N_4
REMARK    4  A    between atoms: C_8  and  S_11
REMARK    5  A    between atoms: N_9  and  N_10
REMARK    6  A    between atoms: S_11  and  C_12
REMARK    7  A    between atoms: C_12  and  C_13
REMARK    8  A    between atoms: C_19  and  S_21
REMARK    9  A    between atoms: S_21  and  C_22
REMARK   10  A    between atoms: C_22  and  C_23
REMARK                            x       y       z     vdW  Elec       q    Type
REMARK                         _______ _______ _______ _____ _____    ______ ____
ROOT
ATOM      1  S   UNL     1      -0.890   1.687  -1.462  0.00  0.00    -0.075 S 
ENDROOT
BRANCH   1   6
ATOM      2  N   UNL     1       0.811   0.512  -6.241  0.00  0.00    -0.204 N 
ATOM      3  C   UNL     1       0.730   0.570  -4.858  0.00  0.00    +0.254 A 
ATOM      4  N   UNL     1       1.557   0.003  -4.013  0.00  0.00    -0.109 NA
ATOM      5  N   UNL     1       1.127   0.307  -2.715  0.00  0.00    -0.119 NA
ATOM      6  C   UNL     1       0.045   1.043  -2.809  0.00  0.00    +0.210 A 
ATOM      7  N   UNL     1      -0.226   1.228  -4.135  0.00  0.00    -0.211 N 
ATOM      8  H   UNL     1       0.060   1.026  -6.858  0.00  0.00    +0.178 HD
BRANCH   2  11
ATOM      9  C   UNL     1       0.896   0.448  -8.996  0.00  0.00    +0.068 C 
ATOM     10  C   UNL     1       1.925  -0.257  -8.150  0.00  0.00    +0.070 C 
ATOM     11  N   UNL     1       1.850  -0.202  -6.853  0.00  0.00    -0.184 NA
BRANCH  10  12
ATOM     12  C   UNL     1       3.013  -1.004  -8.791  0.00  0.00    +0.035 A 
ATOM     13  C   UNL     1       4.047  -1.713  -8.206  0.00  0.00    +0.017 A 
ATOM     14  C   UNL     1       4.957  -2.340  -9.027  0.00  0.00    +0.008 A 
ATOM     15  C   UNL     1       4.814  -2.243 -10.374  0.00  0.00    +0.046 A 
ATOM     16  S   UNL     1       3.343  -1.244 -10.529  0.00  0.00    -0.095 S 
ENDBRANCH  10  12
ENDBRANCH   2  11
BRANCH   7  17
ATOM     17  N   UNL     1      -1.269   1.944  -4.649  0.00  0.00    -0.294 N 
ATOM     18  H   UNL     1      -1.984   2.436  -3.974  0.00  0.00    +0.163 HD
ATOM     19  H   UNL     1      -1.394   2.029  -5.739  0.00  0.00    +0.163 HD
ENDBRANCH   7  17
ENDBRANCH   1   6
BRANCH   1  20
ATOM     20  C   UNL     1      -0.013   1.086   0.008  0.00  0.00    +0.173 C 
BRANCH  20  21
ATOM     21  C   UNL     1      -0.718   1.572   1.248  0.00  0.00    +0.229 C 
ATOM     22  O   UNL     1      -1.715   2.256   1.150  0.00  0.00    -0.275 OA
ATOM     23  N   UNL     1      -0.242   1.246   2.466  0.00  0.00    -0.263 N 
ATOM     24  C   UNL     1      -0.893   1.695   3.612  0.00  0.00    +0.189 A 
ATOM     25  N   UNL     1      -1.979   2.441   3.735  0.00  0.00    -0.125 NA
ATOM     26  N   UNL     1      -2.445   2.762   4.862  0.00  0.00    -0.133 NA
ATOM     27  C   UNL     1      -1.875   2.371   5.993  0.00  0.00    +0.160 A 
ATOM     28  S   UNL     1      -0.506   1.422   5.338  0.00  0.00    -0.024 S 
ATOM     29  H   UNL     1       0.662   0.625   2.555  0.00  0.00    +0.157 HD
BRANCH  27  30
ATOM     30  S   UNL     1      -2.337   2.689   7.663  0.00  0.00    -0.092 S 
BRANCH  30  31
ATOM     31  C   UNL     1      -3.828   3.712   7.519  0.00  0.00    +0.111 C 
BRANCH  31  32
ATOM     32  C   UNL     1      -4.334   4.060   8.896  0.00  0.00    -0.037 A 
ATOM     33  C   UNL     1      -5.247   3.236   9.525  0.00  0.00    +0.004 A 
ATOM     34  C   UNL     1      -5.707   3.552  10.790  0.00  0.00    +0.000 A 
ATOM     35  C   UNL     1      -5.262   4.698  11.420  0.00  0.00    +0.000 A 
ATOM     36  C   UNL     1      -4.353   5.526  10.789  0.00  0.00    +0.000 A 
ATOM     37  C   UNL     1      -3.888   5.207   9.526  0.00  0.00    +0.004 A 
ENDBRANCH  31  32
ENDBRANCH  30  31
ENDBRANCH  27  30
ENDBRANCH  20  21
ENDBRANCH   1  20
TORSDOF 9
