REMARK  Name = ZINC39684227
REMARK  10 active torsions:
REMARK  status: ('A' for Active; 'I' for Inactive)
REMARK    1  A    between atoms: C_1  and  C_2
REMARK    2  A    between atoms: C_2  and  C_3
REMARK    3  A    between atoms: C_3  and  C_5
REMARK    4  A    between atoms: C_3  and  C_6
REMARK    5  A    between atoms: C_6  and  C_7
REMARK    6  A    between atoms: C_11  and  C_20
REMARK    7  A    between atoms: N_22  and  C_23
REMARK    8  A    between atoms: C_23  and  C_24
REMARK    9  A    between atoms: C_24  and  C_25
REMARK   10  A    between atoms: C_30  and  C_34
REMARK                            x       y       z     vdW  Elec       q    Type
REMARK                         _______ _______ _______ _____ _____    ______ ____
ROOT
ATOM      1  C   UNL     1      -2.986  -2.594   0.242  0.00  0.00    +0.216 C 
ATOM      2  O   UNL     1      -3.931  -1.836   0.301  0.00  0.00    -0.276 OA
ATOM      3  N   UNL     1      -3.176  -3.920   0.393  0.00  0.00    -0.300 N 
ATOM      4  C   UNL     1      -2.155  -4.994   0.360  0.00  0.00    +0.121 C 
ATOM      5  C   UNL     1      -2.586  -5.978   1.470  0.00  0.00    +0.100 C 
ATOM      6  C   UNL     1      -4.096  -5.738   1.642  0.00  0.00    -0.004 C 
ATOM      7  C   UNL     1      -4.453  -4.633   0.637  0.00  0.00    +0.115 C 
ATOM      8  C   UNL     1      -4.398  -5.269   3.062  0.00  0.00    -0.010 C 
ATOM      9  C   UNL     1      -5.910  -5.093   3.225  0.00  0.00    -0.082 C 
ATOM     10  N   UNL     1      -6.585  -6.368   2.955  0.00  0.00    +0.379 N 
ATOM     11  C   UNL     1      -6.366  -6.766   1.559  0.00  0.00    -0.082 C 
ATOM     12  C   UNL     1      -4.873  -7.012   1.325  0.00  0.00    -0.010 C 
ATOM     13  H   UNL     1      -6.216  -7.079   3.568  0.00  0.00    -0.086 HD
ATOM     14  H   UNL     1      -7.575  -6.265   3.122  0.00  0.00    -0.086 HD
ENDROOT
BRANCH   5  15
ATOM     15  C   UNL     1      -2.323  -7.399   1.043  0.00  0.00    +0.218 C 
ATOM     16  O   UNL     1      -2.379  -7.699  -0.131  0.00  0.00    -0.275 OA
ATOM     17  N   UNL     1      -2.026  -8.335   1.965  0.00  0.00    -0.315 N 
ATOM     18  H   UNL     1      -1.982  -8.095   2.904  0.00  0.00    +0.149 HD
BRANCH  17  19
ATOM     19  C   UNL     1      -1.770  -9.717   1.550  0.00  0.00    +0.109 C 
BRANCH  19  20
ATOM     20  C   UNL     1      -1.460 -10.570   2.781  0.00  0.00    +0.056 C 
BRANCH  20  21
ATOM     21  C   UNL     1      -1.197 -11.991   2.354  0.00  0.00    -0.021 A 
ATOM     22  C   UNL     1       0.081 -12.540   1.892  0.00  0.00    +0.003 A 
ATOM     23  C   UNL     1       1.356 -12.005   1.705  0.00  0.00    +0.010 A 
ATOM     24  C   UNL     1       2.367 -12.803   1.248  0.00  0.00    +0.001 A 
ATOM     25  C   UNL     1       2.135 -14.142   0.966  0.00  0.00    +0.005 A 
ATOM     26  C   UNL     1       0.884 -14.691   1.143  0.00  0.00    -0.027 A 
ATOM     27  C   UNL     1      -0.160 -13.897   1.608  0.00  0.00    +0.050 A 
ATOM     28  N   UNL     1      -1.487 -14.141   1.882  0.00  0.00    -0.360 N 
ATOM     29  C   UNL     1      -2.087 -12.996   2.330  0.00  0.00    +0.087 A 
ATOM     30  C   UNL     1       0.646 -16.146   0.832  0.00  0.00    +0.046 C 
ATOM     31  H   UNL     1      -1.929 -14.997   1.776  0.00  0.00    +0.165 HD
ENDBRANCH  20  21
ENDBRANCH  19  20
ENDBRANCH  17  19
ENDBRANCH   5  15
BRANCH   1  32
ATOM     32  C   UNL     1      -1.600  -2.054  -0.000  0.00  0.00    +0.099 C 
BRANCH  32  33
ATOM     33  C   UNL     1      -1.663  -0.532  -0.135  0.00  0.00    -0.006 C 
ATOM     34  C   UNL     1      -2.465  -0.163  -1.384  0.00  0.00    +0.008 C 
BRANCH  33  36
ATOM     35  C   UNL     1      -0.298   1.557  -0.266  0.00  0.00    +0.004 C 
ATOM     36  C   UNL     1      -0.244   0.028  -0.257  0.00  0.00    +0.000 C 
ENDBRANCH  33  36
ENDBRANCH  32  33
ENDBRANCH   1  32
TORSDOF 7
