REMARK  Name = ZINC20151148
REMARK  13 active torsions:
REMARK  status: ('A' for Active; 'I' for Inactive)
REMARK    1  A    between atoms: C_1  and  C_2
REMARK    2  A    between atoms: C_2  and  O_3
REMARK    3  A    between atoms: O_3  and  C_4
REMARK    4  A    between atoms: C_7  and  C_12
REMARK    5  A    between atoms: C_9  and  O_10
REMARK    6  A    between atoms: O_10  and  C_11
REMARK    7  A    between atoms: C_13  and  C_14
REMARK    8  A    between atoms: N_16  and  C_17
REMARK    9  A    between atoms: C_20  and  O_30
REMARK   10  A    between atoms: C_21  and  C_23
REMARK   11  A    between atoms: C_26  and  C_28
REMARK   12  A    between atoms: C_28  and  O_29
REMARK   13  A    between atoms: O_30  and  C_31
REMARK                            x       y       z     vdW  Elec       q    Type
REMARK                         _______ _______ _______ _____ _____    ______ ____
ROOT
ATOM      1  C   UNL     1      -1.076  -8.321  -0.024  0.00  0.00    +0.241 C 
ATOM      2  O   UNL     1      -2.194  -8.804  -0.012  0.00  0.00    -0.270 OA
ATOM      3  N   UNL     1       0.005  -9.124  -0.036  0.00  0.00    -0.282 N 
ATOM      4  H   UNL     1       0.893  -8.741  -0.113  0.00  0.00    +0.155 HD
ENDROOT
BRANCH   3   5
ATOM      5  C   UNL     1      -0.152 -10.512   0.064  0.00  0.00    +0.035 A 
ATOM      6  C   UNL     1      -1.245 -11.131  -0.531  0.00  0.00    +0.027 A 
ATOM      7  C   UNL     1      -1.407 -12.500  -0.437  0.00  0.00    +0.048 A 
ATOM      8  C   UNL     1      -0.481 -13.265   0.251  0.00  0.00    +0.131 A 
ATOM      9  C   UNL     1       0.623 -12.649   0.853  0.00  0.00    +0.061 A 
ATOM     10  C   UNL     1       0.785 -11.267   0.751  0.00  0.00    +0.038 A 
BRANCH   9  11
ATOM     11  C   UNL     1       1.615 -13.460   1.589  0.00  0.00    +0.139 A 
ATOM     12  C   UNL     1       2.964 -13.409   1.428  0.00  0.00    +0.050 A 
ATOM     13  C   UNL     1       3.516 -14.345   2.327  0.00  0.00    +0.047 A 
ATOM     14  C   UNL     1       2.487 -14.913   2.985  0.00  0.00    +0.131 A 
ATOM     15  O   UNL     1       1.340 -14.372   2.541  0.00  0.00    -0.457 OA
BRANCH  14  16
ATOM     16  C   UNL     1       2.603 -15.976   4.047  0.00  0.00    +0.230 C 
BRANCH  16  17
ATOM     17  O   UNL     1       2.718 -15.356   5.330  0.00  0.00    -0.387 OA
ATOM     18  H   UNL     1       2.797 -15.982   6.063  0.00  0.00    +0.210 HD
ENDBRANCH  16  17
ENDBRANCH  14  16
ENDBRANCH   9  11
BRANCH   8  19
ATOM     19  O   UNL     1      -0.642 -14.611   0.342  0.00  0.00    -0.494 OA
ATOM     20  C   UNL     1      -1.792 -15.171  -0.296  0.00  0.00    +0.277 C 
ENDBRANCH   8  19
ENDBRANCH   3   5
BRANCH   1  22
ATOM     21  C   UNL     1      -1.992  -6.063  -0.015  0.00  0.00    +0.013 C 
ATOM     22  C   UNL     1      -0.908  -6.868  -0.026  0.00  0.00    +0.068 C 
BRANCH  21  26
ATOM     23  C   UNL     1      -1.498  -1.847  -0.023  0.00  0.00    +0.162 A 
ATOM     24  C   UNL     1      -0.384  -2.676  -0.034  0.00  0.00    +0.050 A 
ATOM     25  C   UNL     1      -0.539  -4.045  -0.031  0.00  0.00    +0.012 A 
ATOM     26  C   UNL     1      -1.823  -4.603  -0.017  0.00  0.00    -0.021 A 
ATOM     27  C   UNL     1      -2.945  -3.766  -0.006  0.00  0.00    +0.057 A 
ATOM     28  C   UNL     1      -2.780  -2.395  -0.003  0.00  0.00    +0.162 A 
BRANCH  28  29
ATOM     29  O   UNL     1      -3.868  -1.579   0.013  0.00  0.00    -0.491 OA
ATOM     30  C   UNL     1      -5.150  -2.209   0.033  0.00  0.00    +0.277 C 
ENDBRANCH  28  29
BRANCH  23  31
ATOM     31  O   UNL     1      -1.338  -0.498  -0.025  0.00  0.00    -0.489 OA
BRANCH  31  33
ATOM     32  C   UNL     1      -0.018   1.526  -0.044  0.00  0.00    +0.048 C 
ATOM     33  C   UNL     1       0.003  -0.004  -0.045  0.00  0.00    +0.226 C 
ENDBRANCH  31  33
ENDBRANCH  23  31
ENDBRANCH  21  26
ENDBRANCH   1  22
TORSDOF 10
