REMARK  Name = ZINC11619739
REMARK  6 active torsions:
REMARK  status: ('A' for Active; 'I' for Inactive)
REMARK    1  A    between atoms: C_4  and  S_7
REMARK    2  A    between atoms: S_7  and  C_8
REMARK    3  A    between atoms: C_13  and  N_14
REMARK    4  A    between atoms: N_14  and  C_15
REMARK    5  A    between atoms: C_15  and  C_16
REMARK    6  A    between atoms: N_18  and  N_19
REMARK                            x       y       z     vdW  Elec       q    Type
REMARK                         _______ _______ _______ _____ _____    ______ ____
ROOT
ATOM      1  C   UNL     1      -0.848   2.466   0.086  0.00  0.00    +0.247 C 
ATOM      2  O   UNL     1      -1.081   3.655   0.130  0.00  0.00    -0.273 OA
ATOM      3  N   UNL     1       0.427   2.028   0.093  0.00  0.00    -0.222 N 
ATOM      4  H   UNL     1       0.613   1.077   0.057  0.00  0.00    +0.174 HD
ENDROOT
BRANCH   3   5
ATOM      5  N   UNL     1       1.483   2.947   0.146  0.00  0.00    -0.137 N 
ATOM      6  C   UNL     1       2.228   3.184   1.245  0.00  0.00    +0.263 C 
ATOM      7  O   UNL     1       2.116   2.661   2.334  0.00  0.00    -0.271 OA
ATOM      8  C   UNL     1       3.232   4.236   0.834  0.00  0.00    +0.114 C 
ATOM      9  C   UNL     1       4.652   3.698   0.971  0.00  0.00    +0.035 C 
ATOM     10  C   UNL     1       5.651   4.768   0.523  0.00  0.00    +0.003 C 
ATOM     11  C   UNL     1       5.477   6.019   1.386  0.00  0.00    +0.000 C 
ATOM     12  C   UNL     1       4.056   6.561   1.219  0.00  0.00    +0.003 C 
ATOM     13  C   UNL     1       3.050   5.499   1.669  0.00  0.00    +0.035 C 
ATOM     14  N   UNL     1       2.914   4.500  -0.575  0.00  0.00    -0.284 N 
ATOM     15  C   UNL     1       1.881   3.696  -0.890  0.00  0.00    +0.326 C 
ATOM     16  O   UNL     1       1.367   3.656  -1.991  0.00  0.00    -0.251 OA
ATOM     17  H   UNL     1       3.363   5.128  -1.164  0.00  0.00    +0.151 HD
ENDBRANCH   3   5
BRANCH   1  18
ATOM     18  C   UNL     1      -1.984   1.477   0.023  0.00  0.00    +0.199 C 
BRANCH  18  19
ATOM     19  N   UNL     1      -3.259   2.198   0.027  0.00  0.00    -0.334 N 
ATOM     20  H   UNL     1      -3.268   3.167   0.067  0.00  0.00    +0.147 HD
BRANCH  19  26
ATOM     21  C   UNL     1      -5.680   2.173  -0.016  0.00  0.00    +0.034 A 
ATOM     22  C   UNL     1      -6.871   1.463  -0.073  0.00  0.00    +0.017 A 
ATOM     23  C   UNL     1      -6.850   0.082  -0.130  0.00  0.00    +0.001 A 
ATOM     24  C   UNL     1      -5.645  -0.596  -0.135  0.00  0.00    +0.002 A 
ATOM     25  C   UNL     1      -4.454   0.103  -0.083  0.00  0.00    +0.024 A 
ATOM     26  C   UNL     1      -4.464   1.488  -0.026  0.00  0.00    +0.041 A 
BRANCH  21  27
ATOM     27  S   UNL     1      -5.703   3.933   0.064  0.00  0.00    -0.088 S 
BRANCH  27  31
ATOM     28  C   UNL     1      -4.759   4.847   4.398  0.00  0.00    +0.000 A 
ATOM     29  C   UNL     1      -4.862   5.878   3.482  0.00  0.00    +0.001 A 
ATOM     30  C   UNL     1      -5.150   5.603   2.160  0.00  0.00    +0.015 A 
ATOM     31  C   UNL     1      -5.336   4.288   1.750  0.00  0.00    +0.013 A 
ATOM     32  C   UNL     1      -5.237   3.255   2.674  0.00  0.00    +0.015 A 
ATOM     33  C   UNL     1      -4.944   3.537   3.994  0.00  0.00    +0.001 A 
ENDBRANCH  27  31
ENDBRANCH  21  27
ENDBRANCH  19  26
ENDBRANCH  18  19
ENDBRANCH   1  18
TORSDOF 6
