REMARK  Name = ZINC44714402
REMARK  11 active torsions:
REMARK  status: ('A' for Active; 'I' for Inactive)
REMARK    1  A    between atoms: C_1  and  C_2
REMARK    2  A    between atoms: C_2  and  C_3
REMARK    3  A    between atoms: C_3  and  C_4
REMARK    4  A    between atoms: C_4  and  C_6
REMARK    5  A    between atoms: C_4  and  C_7
REMARK    6  A    between atoms: C_11  and  C_20
REMARK    7  A    between atoms: N_22  and  C_23
REMARK    8  A    between atoms: C_23  and  C_24
REMARK    9  A    between atoms: C_24  and  C_25
REMARK   10  A    between atoms: C_26  and  C_37
REMARK   11  A    between atoms: C_32  and  C_35
REMARK                            x       y       z     vdW  Elec       q    Type
REMARK                         _______ _______ _______ _____ _____    ______ ____
ROOT
ATOM      1  C   UNL     1      -2.739  -2.510  -0.421  0.00  0.00    +0.218 C 
ATOM      2  O   UNL     1      -3.692  -1.803  -0.669  0.00  0.00    -0.275 OA
ATOM      3  N   UNL     1      -2.911  -3.835  -0.241  0.00  0.00    -0.300 N 
ATOM      4  C   UNL     1      -1.900  -4.834   0.177  0.00  0.00    +0.121 C 
ATOM      5  C   UNL     1      -2.657  -5.778   1.137  0.00  0.00    +0.100 C 
ATOM      6  C   UNL     1      -4.137  -5.636   0.741  0.00  0.00    -0.004 C 
ATOM      7  C   UNL     1      -4.157  -4.620  -0.410  0.00  0.00    +0.115 C 
ATOM      8  C   UNL     1      -4.950  -5.106   1.918  0.00  0.00    -0.010 C 
ATOM      9  C   UNL     1      -6.426  -5.026   1.519  0.00  0.00    -0.082 C 
ATOM     10  N   UNL     1      -6.902  -6.360   1.130  0.00  0.00    +0.379 N 
ATOM     11  C   UNL     1      -6.177  -6.823  -0.060  0.00  0.00    -0.082 C 
ATOM     12  C   UNL     1      -4.691  -6.978   0.274  0.00  0.00    -0.010 C 
ATOM     13  H   UNL     1      -6.746  -7.005   1.890  0.00  0.00    -0.086 HD
ATOM     14  H   UNL     1      -7.889  -6.317   0.926  0.00  0.00    -0.086 HD
ENDROOT
BRANCH   5  15
ATOM     15  C   UNL     1      -2.451  -5.349   2.567  0.00  0.00    +0.218 C 
ATOM     16  O   UNL     1      -2.191  -4.192   2.821  0.00  0.00    -0.275 OA
ATOM     17  N   UNL     1      -2.554  -6.252   3.563  0.00  0.00    -0.315 N 
ATOM     18  H   UNL     1      -2.762  -7.177   3.359  0.00  0.00    +0.149 HD
BRANCH  17  19
ATOM     19  C   UNL     1      -2.353  -5.835   4.953  0.00  0.00    +0.109 C 
BRANCH  19  20
ATOM     20  C   UNL     1      -2.526  -7.041   5.877  0.00  0.00    +0.056 C 
BRANCH  20  21
ATOM     21  C   UNL     1      -2.319  -6.612   7.307  0.00  0.00    -0.018 A 
ATOM     22  C   UNL     1      -1.156  -6.597   7.976  0.00  0.00    +0.017 A 
ATOM     23  N   UNL     1      -1.357  -6.146   9.252  0.00  0.00    -0.358 N 
ATOM     24  H   UNL     1      -0.663  -6.048   9.924  0.00  0.00    +0.166 HD
ATOM     25  C   UNL     1      -2.687  -5.853   9.443  0.00  0.00    +0.047 A 
ATOM     26  C   UNL     1      -3.349  -6.127   8.230  0.00  0.00    +0.004 A 
ATOM     27  C   UNL     1      -4.721  -5.917   8.123  0.00  0.00    +0.029 A 
ATOM     28  C   UNL     1      -5.426  -5.433   9.222  0.00  0.00    +0.052 A 
ATOM     29  C   UNL     1      -4.755  -5.162  10.422  0.00  0.00    +0.021 A 
ATOM     30  C   UNL     1      -3.412  -5.373  10.531  0.00  0.00    +0.027 A 
ATOM     31  C   UNL     1       0.175  -7.014   7.406  0.00  0.00    +0.063 C 
BRANCH  28  32
ATOM     32  C   UNL     1      -6.838  -5.212   9.126  0.00  0.00    +0.099 C 
ATOM     33  N   UNL     1      -7.958  -5.037   9.049  0.00  0.00    -0.191 NA
ENDBRANCH  28  32
ENDBRANCH  20  21
ENDBRANCH  19  20
ENDBRANCH  17  19
ENDBRANCH   5  15
BRANCH   1  34
ATOM     34  C   UNL     1      -1.361  -1.909  -0.315  0.00  0.00    +0.072 C 
ATOM     35  C   UNL     1      -1.462  -0.506   0.289  0.00  0.00    +0.017 C 
BRANCH  34  36
ATOM     36  C   UNL     1      -0.734  -1.820  -1.708  0.00  0.00    +0.012 C 
BRANCH  36  38
ATOM     37  C   UNL     1       1.335  -1.238  -2.980  0.00  0.00    +0.004 C 
ATOM     38  C   UNL     1       0.709  -1.326  -1.587  0.00  0.00    -0.003 C 
ENDBRANCH  36  38
ENDBRANCH  34  36
ENDBRANCH   1  34
TORSDOF 8
