REMARK  Name = ZINC60361137
REMARK  10 active torsions:
REMARK  status: ('A' for Active; 'I' for Inactive)
REMARK    1  A    between atoms: C_1  and  C_2
REMARK    2  A    between atoms: C_2  and  C_3
REMARK    3  A    between atoms: C_2  and  C_4
REMARK    4  A    between atoms: N_6  and  C_7
REMARK    5  A    between atoms: C_7  and  C_8
REMARK    6  A    between atoms: N_13  and  C_15
REMARK    7  A    between atoms: C_15  and  C_16
REMARK    8  A    between atoms: N_18  and  C_19
REMARK    9  A    between atoms: C_20  and  C_34
REMARK   10  A    between atoms: N_23  and  C_24
REMARK                            x       y       z     vdW  Elec       q    Type
REMARK                         _______ _______ _______ _____ _____    ______ ____
ROOT
ATOM      1  C   UNL     1      -6.204  -7.841  -0.037  0.00  0.00    +0.202 C 
ATOM      2  O   UNL     1      -5.417  -8.376  -0.789  0.00  0.00    -0.278 OA
ATOM      3  N   UNL     1      -6.948  -8.588   0.802  0.00  0.00    -0.272 N 
ATOM      4  H   UNL     1      -7.521  -8.158   1.456  0.00  0.00    +0.156 HD
ENDROOT
BRANCH   3   5
ATOM      5  C   UNL     1      -6.895  -9.972   0.731  0.00  0.00    +0.128 A 
ATOM      6  C   UNL     1      -7.885 -10.803   0.220  0.00  0.00    +0.095 A 
ATOM      7  C   UNL     1      -7.374 -12.165   0.360  0.00  0.00    -0.007 A 
ATOM      8  C   UNL     1      -6.154 -12.075   0.926  0.00  0.00    +0.030 A 
ATOM      9  N   UNL     1      -5.861 -10.757   1.144  0.00  0.00    -0.300 N 
ATOM     10  C   UNL     1      -5.287 -13.271   1.243  0.00  0.00    +0.054 C 
ATOM     11  C   UNL     1      -6.166 -14.527   1.219  0.00  0.00    +0.006 C 
ATOM     12  C   UNL     1      -6.979 -14.559  -0.077  0.00  0.00    +0.005 C 
ATOM     13  C   UNL     1      -8.043 -13.454  -0.037  0.00  0.00    +0.038 C 
BRANCH   9  14
ATOM     14  C   UNL     1      -4.671 -10.283   1.713  0.00  0.00    +0.048 A 
ATOM     15  C   UNL     1      -3.469 -10.430   1.035  0.00  0.00    +0.026 A 
ATOM     16  C   UNL     1      -2.298  -9.961   1.598  0.00  0.00    +0.002 A 
ATOM     17  C   UNL     1      -2.322  -9.347   2.837  0.00  0.00    +0.000 A 
ATOM     18  C   UNL     1      -3.518  -9.199   3.515  0.00  0.00    +0.002 A 
ATOM     19  C   UNL     1      -4.693  -9.660   2.954  0.00  0.00    +0.026 A 
ENDBRANCH   9  14
BRANCH   6  20
ATOM     20  C   UNL     1      -9.146 -10.407  -0.329  0.00  0.00    +0.103 C 
ATOM     21  N   UNL     1     -10.147 -10.092  -0.765  0.00  0.00    -0.191 NA
ENDBRANCH   6  20
ENDBRANCH   3   5
BRANCH   1  22
ATOM     22  C   UNL     1      -6.349  -6.341  -0.041  0.00  0.00    +0.019 C 
BRANCH  22  27
ATOM     23  C   UNL     1      -4.476  -3.692  -1.928  0.00  0.00    -0.011 C 
ATOM     24  C   UNL     1      -4.826  -4.133  -3.352  0.00  0.00    +0.001 C 
ATOM     25  C   UNL     1      -4.846  -5.663  -3.412  0.00  0.00    -0.018 C 
ATOM     26  C   UNL     1      -5.841  -6.196  -2.378  0.00  0.00    -0.078 C 
ATOM     27  N   UNL     1      -5.436  -5.763  -1.036  0.00  0.00    +0.386 N 
ATOM     28  C   UNL     1      -5.483  -4.298  -0.949  0.00  0.00    -0.073 C 
ATOM     29  H   UNL     1      -4.496  -6.079  -0.850  0.00  0.00    -0.081 HD
BRANCH  23  30
ATOM     30  C   UNL     1      -4.529  -2.166  -1.837  0.00  0.00    +0.106 C 
BRANCH  30  33
ATOM     31  C   UNL     1      -3.342  -0.252  -2.766  0.00  0.00    +0.216 C 
ATOM     32  O   UNL     1      -4.079   0.475  -2.133  0.00  0.00    -0.276 OA
ATOM     33  N   UNL     1      -3.485  -1.589  -2.687  0.00  0.00    -0.315 N 
ATOM     34  H   UNL     1      -2.896  -2.170  -3.194  0.00  0.00    +0.149 HD
BRANCH  31  36
ATOM     35  C   UNL     1      -2.322   1.868  -3.550  0.00  0.00    +0.017 C 
ATOM     36  C   UNL     1      -2.268   0.342  -3.640  0.00  0.00    +0.069 C 
ATOM     37  C   UNL     1      -0.898  -0.149  -3.168  0.00  0.00    +0.017 C 
ENDBRANCH  31  36
ENDBRANCH  30  33
ENDBRANCH  23  30
ENDBRANCH  22  27
ENDBRANCH   1  22
TORSDOF 8
