REMARK  Name = ZINC59385153
REMARK  10 active torsions:
REMARK  status: ('A' for Active; 'I' for Inactive)
REMARK    1  A    between atoms: C_1  and  C_2
REMARK    2  A    between atoms: C_2  and  C_3
REMARK    3  A    between atoms: C_6  and  C_9
REMARK    4  A    between atoms: C_9  and  N_10
REMARK    5  A    between atoms: N_10  and  C_11
REMARK    6  A    between atoms: N_10  and  C_32
REMARK    7  A    between atoms: C_11  and  C_12
REMARK    8  A    between atoms: N_14  and  C_15
REMARK    9  A    between atoms: C_19  and  S_21
REMARK   10  A    between atoms: S_21  and  N_24
REMARK                            x       y       z     vdW  Elec       q    Type
REMARK                         _______ _______ _______ _____ _____    ______ ____
ROOT
ATOM      1  C   UNL     1       4.724  -0.143   7.315  0.00  0.00    +0.201 C 
ATOM      2  O   UNL     1       4.489   0.998   6.977  0.00  0.00    -0.278 OA
ATOM      3  N   UNL     1       5.593  -0.383   8.317  0.00  0.00    -0.287 N 
ATOM      4  H   UNL     1       5.729  -1.290   8.634  0.00  0.00    +0.155 HD
ENDROOT
BRANCH   3   5
ATOM      5  C   UNL     1       6.298   0.675   8.901  0.00  0.00    +0.035 A 
ATOM      6  C   UNL     1       5.693   1.916   9.050  0.00  0.00    +0.023 A 
ATOM      7  C   UNL     1       6.392   2.958   9.627  0.00  0.00    +0.004 A 
ATOM      8  C   UNL     1       7.693   2.768  10.054  0.00  0.00    +0.029 A 
ATOM      9  C   UNL     1       8.299   1.534   9.906  0.00  0.00    +0.114 A 
ATOM     10  C   UNL     1       7.603   0.485   9.336  0.00  0.00    +0.052 A 
BRANCH   9  11
ATOM     11  S   UNL     1       9.957   1.296  10.451  0.00  0.00    +0.100 S 
ATOM     12  O   UNL     1      10.478   0.206   9.704  0.00  0.00    -0.146 OA
ATOM     13  O   UNL     1      10.571   2.578  10.457  0.00  0.00    -0.146 OA
BRANCH  11  14
ATOM     14  N   UNL     1       9.887   0.798  12.029  0.00  0.00    -0.118 NA
ATOM     15  C   UNL     1      10.978   0.550  12.678  0.00  0.00    +0.117 C 
ATOM     16  C   UNL     1      10.915   0.085  14.131  0.00  0.00    +0.073 C 
ATOM     17  C   UNL     1      11.356  -1.363  14.159  0.00  0.00    +0.008 C 
ATOM     18  C   UNL     1      12.868  -1.536  14.316  0.00  0.00    +0.002 C 
ATOM     19  C   UNL     1      13.676  -0.567  13.452  0.00  0.00    +0.019 C 
ATOM     20  C   UNL     1      13.125  -0.415  12.051  0.00  0.00    +0.102 C 
ATOM     21  N   UNL     1      12.147   0.693  12.085  0.00  0.00    -0.331 N 
ATOM     22  H   UNL     1      12.371   1.538  11.665  0.00  0.00    +0.147 HD
ENDBRANCH  11  14
ENDBRANCH   9  11
ENDBRANCH   3   5
BRANCH   1  23
ATOM     23  C   UNL     1       4.044  -1.291   6.615  0.00  0.00    +0.020 C 
BRANCH  23  24
ATOM     24  N   UNL     1       3.269  -0.781   5.477  0.00  0.00    +0.390 N 
ATOM     25  H   UNL     1       2.650  -0.050   5.792  0.00  0.00    -0.080 HD
BRANCH  24  26
ATOM     26  C   UNL     1       2.481  -1.874   4.892  0.00  0.00    -0.068 C 
ATOM     27  C   UNL     1       1.011  -1.593   4.575  0.00  0.00    -0.017 C 
ATOM     28  C   UNL     1       1.379  -2.491   5.757  0.00  0.00    -0.017 C 
ENDBRANCH  24  26
BRANCH  24  29
ATOM     29  C   UNL     1       4.186  -0.242   4.463  0.00  0.00    -0.042 C 
BRANCH  29  33
ATOM     30  C   UNL     1       1.929   1.554   1.311  0.00  0.00    -0.048 A 
ATOM     31  C   UNL     1       2.319   2.310   2.401  0.00  0.00    +0.004 A 
ATOM     32  C   UNL     1       3.049   1.729   3.421  0.00  0.00    +0.002 A 
ATOM     33  C   UNL     1       3.389   0.391   3.351  0.00  0.00    -0.064 A 
ATOM     34  C   UNL     1       2.999  -0.366   2.262  0.00  0.00    +0.002 A 
ATOM     35  C   UNL     1       2.265   0.214   1.244  0.00  0.00    +0.004 A 
BRANCH  30  37
ATOM     36  C   UNL     1      -0.360   2.060   0.505  0.00  0.00    +0.009 C 
ATOM     37  C   UNL     1       1.134   2.187   0.200  0.00  0.00    +0.032 C 
ENDBRANCH  30  37
ENDBRANCH  29  33
ENDBRANCH  24  29
ENDBRANCH  23  24
ENDBRANCH   1  23
TORSDOF 9
