REMARK  Name = ZINC22840656
REMARK  8 active torsions:
REMARK  status: ('A' for Active; 'I' for Inactive)
REMARK    1  A    between atoms: C_1  and  C_2
REMARK    2  A    between atoms: C_5  and  C_9
REMARK    3  A    between atoms: C_12  and  C_14
REMARK    4  A    between atoms: C_15  and  C_16
REMARK    5  A    between atoms: N_18  and  C_19
REMARK    6  A    between atoms: C_19  and  N_21
REMARK    7  A    between atoms: N_21  and  C_22
REMARK    8  A    between atoms: C_25  and  N_29
REMARK                            x       y       z     vdW  Elec       q    Type
REMARK                         _______ _______ _______ _____ _____    ______ ____
ROOT
ATOM      1  C   UNL     1       0.640  -8.249  -3.902  0.00  0.00    +0.242 C 
ATOM      2  O   UNL     1       0.885  -9.353  -3.449  0.00  0.00    -0.270 OA
ATOM      3  N   UNL     1       0.376  -8.103  -5.215  0.00  0.00    -0.264 N 
ATOM      4  H   UNL     1       0.181  -7.223  -5.575  0.00  0.00    +0.157 HD
ENDROOT
BRANCH   1   6
ATOM      5  C   UNL     1       0.901  -7.269  -1.726  0.00  0.00    +0.051 C 
ATOM      6  C   UNL     1       0.634  -7.122  -3.050  0.00  0.00    +0.071 C 
BRANCH   5  10
ATOM      7  C   UNL     1       0.723  -4.065  -0.172  0.00  0.00    +0.136 A 
ATOM      8  C   UNL     1       1.038  -4.831   0.927  0.00  0.00    +0.050 A 
ATOM      9  C   UNL     1       1.149  -6.152   0.485  0.00  0.00    +0.050 A 
ATOM     10  C   UNL     1       0.895  -6.142  -0.874  0.00  0.00    +0.129 A 
ATOM     11  O   UNL     1       0.636  -4.871  -1.245  0.00  0.00    -0.455 OA
BRANCH   7  16
ATOM     12  C   UNL     1      -0.110   1.628  -0.175  0.00  0.00    +0.045 C 
ATOM     13  C   UNL     1       0.108   0.137  -0.174  0.00  0.00    -0.032 A 
ATOM     14  C   UNL     1      -0.011  -0.578  -1.353  0.00  0.00    +0.005 A 
ATOM     15  C   UNL     1       0.187  -1.942  -1.360  0.00  0.00    +0.012 A 
ATOM     16  C   UNL     1       0.510  -2.604  -0.172  0.00  0.00    +0.019 A 
ATOM     17  C   UNL     1       0.629  -1.878   1.014  0.00  0.00    +0.031 A 
ATOM     18  C   UNL     1       0.433  -0.512   1.006  0.00  0.00    +0.045 A 
ATOM     19 CL   UNL     1       0.586   0.395   2.479  0.00  0.00    -0.083 Cl
ENDBRANCH   7  16
ENDBRANCH   5  10
ENDBRANCH   1   6
BRANCH   3  20
ATOM     20  C   UNL     1       0.382  -9.178  -6.028  0.00  0.00    +0.141 C 
ATOM     21  S   UNL     1       0.726 -10.730  -5.392  0.00  0.00    -0.018 S 
BRANCH  20  22
ATOM     22  N   UNL     1       0.117  -9.031  -7.341  0.00  0.00    -0.297 N 
ATOM     23  H   UNL     1      -0.157  -8.167  -7.687  0.00  0.00    +0.154 HD
BRANCH  22  24
ATOM     24  C   UNL     1       0.236 -10.127  -8.206  0.00  0.00    +0.034 A 
ATOM     25  C   UNL     1      -0.718 -10.340  -9.193  0.00  0.00    +0.025 A 
ATOM     26  C   UNL     1      -0.601 -11.419 -10.046  0.00  0.00    +0.026 A 
ATOM     27  C   UNL     1       0.471 -12.293  -9.918  0.00  0.00    +0.048 A 
ATOM     28  C   UNL     1       1.426 -12.080  -8.931  0.00  0.00    +0.064 A 
ATOM     29  C   UNL     1       1.311 -10.996  -8.081  0.00  0.00    +0.045 A 
ATOM     30 CL   UNL     1       2.766 -13.171  -8.770  0.00  0.00    -0.082 Cl
BRANCH  27  31
ATOM     31  N   UNL     1       0.590 -13.387 -10.782  0.00  0.00    -0.324 N 
ATOM     32  C   UNL     1      -0.023 -14.684 -10.450  0.00  0.00    +0.133 C 
ATOM     33  C   UNL     1      -0.846 -15.152 -11.656  0.00  0.00    +0.178 C 
ATOM     34  O   UNL     1      -0.026 -15.118 -12.827  0.00  0.00    -0.377 OA
ATOM     35  C   UNL     1       0.440 -13.813 -13.177  0.00  0.00    +0.178 C 
ATOM     36  C   UNL     1       1.324 -13.274 -12.052  0.00  0.00    +0.133 C 
ENDBRANCH  27  31
ENDBRANCH  22  24
ENDBRANCH  20  22
ENDBRANCH   3  20
TORSDOF 7
