REMARK  Name = ZINC43213934
REMARK  15 active torsions:
REMARK  status: ('A' for Active; 'I' for Inactive)
REMARK    1  A    between atoms: C_1  and  C_2
REMARK    2  A    between atoms: C_2  and  C_3
REMARK    3  A    between atoms: C_3  and  C_5
REMARK    4  A    between atoms: C_3  and  C_6
REMARK    5  A    between atoms: C_6  and  C_8
REMARK    6  A    between atoms: C_6  and  N_39
REMARK    7  A    between atoms: C_10  and  C_13
REMARK    8  A    between atoms: N_15  and  C_16
REMARK    9  A    between atoms: C_16  and  C_18
REMARK   10  A    between atoms: C_16  and  C_27
REMARK   11  A    between atoms: C_18  and  S_19
REMARK   12  A    between atoms: S_19  and  C_20
REMARK   13  A    between atoms: C_20  and  C_21
REMARK   14  A    between atoms: N_29  and  C_30
REMARK   15  A    between atoms: C_33  and  N_36
REMARK                            x       y       z     vdW  Elec       q    Type
REMARK                         _______ _______ _______ _____ _____    ______ ____
ROOT
ATOM      1  C   UNL     1      -6.354  -5.256   3.445  0.00  0.00    +0.169 C 
ENDROOT
BRANCH   1   4
ATOM      2  C   UNL     1      -5.675  -4.187   1.363  0.00  0.00    +0.266 C 
ATOM      3  O   UNL     1      -6.786  -4.410   0.921  0.00  0.00    -0.268 OA
ATOM      4  N   UNL     1      -5.359  -4.571   2.616  0.00  0.00    -0.298 N 
ATOM      5  H   UNL     1      -4.473  -4.393   2.969  0.00  0.00    +0.150 HD
BRANCH   2   8
ATOM      6  C   UNL     1      -2.826  -2.583  -0.110  0.00  0.00    +0.182 A 
ATOM      7  N   UNL     1      -3.400  -3.184   0.889  0.00  0.00    -0.210 NA
ATOM      8  C   UNL     1      -4.674  -3.498   0.529  0.00  0.00    +0.163 A 
ATOM      9  C   UNL     1      -4.850  -3.056  -0.746  0.00  0.00    +0.230 A 
ATOM     10  O   UNL     1      -3.696  -2.487  -1.126  0.00  0.00    -0.449 OA
BRANCH   6  11
ATOM     11  C   UNL     1      -1.409  -2.070  -0.123  0.00  0.00    +0.016 C 
BRANCH  11  12
ATOM     12  N   UNL     1      -0.765  -2.442  -1.389  0.00  0.00    +0.386 N 
ATOM     13  H   UNL     1      -0.759  -3.447  -1.481  0.00  0.00    -0.089 HD
ATOM     14  H   UNL     1      -1.276  -2.037  -2.159  0.00  0.00    -0.089 HD
ATOM     15  H   UNL     1       0.184  -2.099  -1.397  0.00  0.00    -0.089 HD
ENDBRANCH  11  12
BRANCH  11  16
ATOM     16  C   UNL     1      -1.417  -0.546   0.017  0.00  0.00    -0.020 C 
ATOM     17  C   UNL     1      -2.089  -0.158   1.335  0.00  0.00    +0.006 C 
BRANCH  16  19
ATOM     18  C   UNL     1       0.009   1.504   0.018  0.00  0.00    +0.004 C 
ATOM     19  C   UNL     1       0.021  -0.025   0.004  0.00  0.00    -0.001 C 
ENDBRANCH  16  19
ENDBRANCH  11  16
ENDBRANCH   6  11
ENDBRANCH   2   8
ENDBRANCH   1   4
BRANCH   1  20
ATOM     20  C   UNL     1      -6.031  -5.037   4.901  0.00  0.00    +0.238 C 
ATOM     21  O   UNL     1      -5.066  -4.373   5.215  0.00  0.00    -0.273 OA
ATOM     22  N   UNL     1      -6.816  -5.577   5.854  0.00  0.00    -0.284 N 
ATOM     23  H   UNL     1      -7.625  -6.051   5.605  0.00  0.00    +0.155 HD
BRANCH  22  24
ATOM     24  C   UNL     1      -6.463  -5.456   7.203  0.00  0.00    +0.034 A 
ATOM     25  C   UNL     1      -6.730  -6.493   8.088  0.00  0.00    +0.025 A 
ATOM     26  C   UNL     1      -6.380  -6.370   9.418  0.00  0.00    +0.034 A 
ATOM     27  C   UNL     1      -5.766  -5.216   9.870  0.00  0.00    +0.126 A 
ATOM     28  C   UNL     1      -5.500  -4.182   8.991  0.00  0.00    +0.034 A 
ATOM     29  C   UNL     1      -5.841  -4.301   7.658  0.00  0.00    +0.025 A 
BRANCH  27  30
ATOM     30  N   UNL     1      -5.393  -5.088  11.296  0.00  0.00    +0.056 N 
ATOM     31  O   UNL     1      -5.626  -5.991  12.066  0.00  0.00    -0.126 OA
ATOM     32  O   UNL     1      -4.856  -4.080  11.692  0.00  0.00    -0.126 OA
ENDBRANCH  27  30
ENDBRANCH  22  24
ENDBRANCH   1  20
BRANCH   1  33
ATOM     33  C   UNL     1      -6.329  -6.754   3.138  0.00  0.00    +0.101 C 
BRANCH  33  34
ATOM     34  S   UNL     1      -6.718  -7.018   1.386  0.00  0.00    -0.154 S 
BRANCH  34  35
ATOM     35  C   UNL     1      -6.649  -8.820   1.187  0.00  0.00    +0.104 C 
BRANCH  35  36
ATOM     36  C   UNL     1      -6.956  -9.180  -0.243  0.00  0.00    -0.038 A 
ATOM     37  C   UNL     1      -8.262  -9.414  -0.631  0.00  0.00    +0.004 A 
ATOM     38  C   UNL     1      -8.544  -9.745  -1.944  0.00  0.00    +0.000 A 
ATOM     39  C   UNL     1      -7.521  -9.841  -2.868  0.00  0.00    +0.000 A 
ATOM     40  C   UNL     1      -6.215  -9.606  -2.480  0.00  0.00    +0.000 A 
ATOM     41  C   UNL     1      -5.933  -9.271  -1.168  0.00  0.00    +0.004 A 
ENDBRANCH  35  36
ENDBRANCH  34  35
ENDBRANCH  33  34
ENDBRANCH   1  33
TORSDOF 13
