REMARK  Name = ZINC22738465
REMARK  6 active torsions:
REMARK  status: ('A' for Active; 'I' for Inactive)
REMARK    1  A    between atoms: C_1  and  C_2
REMARK    2  A    between atoms: C_7  and  N_8
REMARK    3  A    between atoms: C_9  and  C_11
REMARK    4  A    between atoms: C_15  and  N_17
REMARK    5  A    between atoms: N_17  and  S_18
REMARK    6  A    between atoms: S_18  and  C_21
REMARK                            x       y       z     vdW  Elec       q    Type
REMARK                         _______ _______ _______ _____ _____    ______ ____
ROOT
ATOM      1  C   UNL     1      -2.719   1.475  -0.102  0.00  0.00    +0.039 A 
ATOM      2  C   UNL     1      -2.735   0.100   0.140  0.00  0.00    +0.014 A 
ATOM      3  C   UNL     1      -3.925  -0.537   0.425  0.00  0.00    +0.023 A 
ATOM      4  C   UNL     1      -5.108   0.181   0.462  0.00  0.00    +0.065 A 
ATOM      5  C   UNL     1      -5.103   1.551   0.216  0.00  0.00    +0.093 A 
ATOM      6  C   UNL     1      -3.911   2.200  -0.065  0.00  0.00    +0.041 A 
ATOM      7 CL   UNL     1      -6.602  -0.629   0.815  0.00  0.00    -0.082 Cl
ENDROOT
BRANCH   1   9
ATOM      8  N   UNL     1      -0.294   1.458  -0.436  0.00  0.00    -0.281 N 
ATOM      9  C   UNL     1      -1.445   2.160  -0.402  0.00  0.00    +0.248 C 
ATOM     10  O   UNL     1      -1.434   3.357  -0.617  0.00  0.00    -0.270 OA
ATOM     11  H   UNL     1      -0.313   0.366  -0.310  0.00  0.00    +0.155 HD
BRANCH   8  18
ATOM     12  C   UNL     1       2.015   0.441   0.877  0.00  0.00    +0.045 C 
ATOM     13  C   UNL     1       2.074   1.657  -0.012  0.00  0.00    -0.029 A 
ATOM     14  C   UNL     1       3.275   2.311  -0.208  0.00  0.00    +0.006 A 
ATOM     15  C   UNL     1       3.331   3.425  -1.024  0.00  0.00    +0.020 A 
ATOM     16  C   UNL     1       2.184   3.890  -1.646  0.00  0.00    +0.043 A 
ATOM     17  C   UNL     1       0.982   3.237  -1.457  0.00  0.00    +0.043 A 
ATOM     18  C   UNL     1       0.922   2.119  -0.634  0.00  0.00    +0.038 A 
ATOM     19 CL   UNL     1       2.259   5.291  -2.668  0.00  0.00    -0.083 Cl
ENDBRANCH   8  18
ENDBRANCH   1   9
BRANCH   5  20
ATOM     20  N   UNL     1      -6.300   2.272   0.255  0.00  0.00    -0.096 NA
BRANCH  20  21
ATOM     21  S   UNL     1      -6.540   3.533  -0.791  0.00  0.00    +0.092 S 
ATOM     22  O   UNL     1      -7.879   3.969  -0.600  0.00  0.00    -0.148 OA
ATOM     23  O   UNL     1      -5.427   4.403  -0.641  0.00  0.00    -0.148 OA
BRANCH  21  24
ATOM     24  C   UNL     1      -6.452   2.879  -2.425  0.00  0.00    +0.111 A 
ATOM     25  C   UNL     1      -5.239   2.836  -3.087  0.00  0.00    +0.031 A 
ATOM     26  C   UNL     1      -5.168   2.319  -4.367  0.00  0.00    +0.040 A 
ATOM     27  C   UNL     1      -6.314   1.853  -4.989  0.00  0.00    +0.124 A 
ATOM     28  C   UNL     1      -7.529   1.901  -4.327  0.00  0.00    +0.040 A 
ATOM     29  C   UNL     1      -7.596   2.414  -3.046  0.00  0.00    +0.031 A 
ATOM     30  F   UNL     1      -6.246   1.351  -6.242  0.00  0.00    -0.205 F 
ENDBRANCH  21  24
ENDBRANCH  20  21
ENDBRANCH   5  20
TORSDOF 5
