REMARK  Name = ZINC58883007
REMARK  7 active torsions:
REMARK  status: ('A' for Active; 'I' for Inactive)
REMARK    1  A    between atoms: C_3  and  O_20
REMARK    2  A    between atoms: C_6  and  C_7
REMARK    3  A    between atoms: N_8  and  N_9
REMARK    4  A    between atoms: C_10  and  C_12
REMARK    5  A    between atoms: O_20  and  C_21
REMARK    6  A    between atoms: C_21  and  C_22
REMARK    7  A    between atoms: N_24  and  C_25
REMARK                            x       y       z     vdW  Elec       q    Type
REMARK                         _______ _______ _______ _____ _____    ______ ____
ROOT
ATOM      1  C   UNL     1      -0.138   1.025   1.319  0.00  0.00    +0.013 A 
ATOM      2  C   UNL     1       1.028   1.624   1.743  0.00  0.00    +0.046 A 
ATOM      3  C   UNL     1       2.258   1.078   1.398  0.00  0.00    +0.121 A 
ATOM      4  C   UNL     1       2.318  -0.074   0.625  0.00  0.00    +0.046 A 
ATOM      5  C   UNL     1       1.157  -0.680   0.195  0.00  0.00    +0.013 A 
ATOM      6  C   UNL     1      -0.082  -0.134   0.540  0.00  0.00    -0.005 A 
ENDROOT
BRANCH   6   7
ATOM      7  C   UNL     1      -1.327  -0.779   0.084  0.00  0.00    +0.138 C 
ATOM      8  N   UNL     1      -2.453  -0.138   0.155  0.00  0.00    -0.187 NA
BRANCH   8   9
ATOM      9  N   UNL     1      -2.464   1.262   0.142  0.00  0.00    -0.203 N 
ATOM     10  C   UNL     1      -3.618   1.929   0.346  0.00  0.00    +0.265 C 
ATOM     11  O   UNL     1      -4.649   1.315   0.541  0.00  0.00    -0.268 OA
ATOM     12  H   UNL     1      -1.642   1.753  -0.013  0.00  0.00    +0.178 HD
BRANCH  10  13
ATOM     13  C   UNL     1      -3.630   3.406   0.333  0.00  0.00    +0.057 A 
ATOM     14  C   UNL     1      -2.448   4.114   0.103  0.00  0.00    +0.016 A 
ATOM     15  C   UNL     1      -2.465   5.492   0.092  0.00  0.00    +0.021 A 
ATOM     16  C   UNL     1      -3.651   6.176   0.307  0.00  0.00    +0.042 A 
ATOM     17  C   UNL     1      -4.826   5.481   0.536  0.00  0.00    +0.040 A 
ATOM     18  C   UNL     1      -4.824   4.100   0.544  0.00  0.00    +0.054 A 
ATOM     19 CL   UNL     1      -6.300   3.229   0.822  0.00  0.00    -0.083 Cl
ATOM     20 CL   UNL     1      -3.664   7.912   0.291  0.00  0.00    -0.083 Cl
ENDBRANCH  10  13
ENDBRANCH   8   9
ENDBRANCH   6   7
BRANCH   3  21
ATOM     21  O   UNL     1       3.405   1.672   1.819  0.00  0.00    -0.483 OA
BRANCH  21  22
ATOM     22  C   UNL     1       4.635   1.058   1.429  0.00  0.00    +0.324 C 
BRANCH  22  23
ATOM     23  C   UNL     1       5.790   1.851   1.983  0.00  0.00    +0.255 C 
ATOM     24  O   UNL     1       5.581   2.844   2.647  0.00  0.00    -0.272 OA
ATOM     25  N   UNL     1       7.056   1.456   1.741  0.00  0.00    -0.283 N 
ATOM     26  H   UNL     1       7.223   0.628   1.265  0.00  0.00    +0.155 HD
BRANCH  25  27
ATOM     27  C   UNL     1       8.130   2.243   2.176  0.00  0.00    +0.034 A 
ATOM     28  C   UNL     1       9.283   2.330   1.408  0.00  0.00    +0.026 A 
ATOM     29  C   UNL     1      10.341   3.106   1.839  0.00  0.00    +0.040 A 
ATOM     30  C   UNL     1      10.253   3.796   3.037  0.00  0.00    +0.124 A 
ATOM     31  C   UNL     1       9.103   3.710   3.804  0.00  0.00    +0.040 A 
ATOM     32  C   UNL     1       8.040   2.940   3.373  0.00  0.00    +0.026 A 
ATOM     33  F   UNL     1      11.289   4.554   3.457  0.00  0.00    -0.205 F 
ENDBRANCH  25  27
ENDBRANCH  22  23
ENDBRANCH  21  22
ENDBRANCH   3  21
TORSDOF 7
