REMARK  Name = ZINC59265082
REMARK  8 active torsions:
REMARK  status: ('A' for Active; 'I' for Inactive)
REMARK    1  A    between atoms: C_1  and  C_2
REMARK    2  A    between atoms: C_6  and  N_8
REMARK    3  A    between atoms: C_9  and  C_11
REMARK    4  A    between atoms: C_11  and  C_12
REMARK    5  A    between atoms: C_12  and  S_13
REMARK    6  A    between atoms: S_13  and  C_14
REMARK    7  A    between atoms: C_17  and  C_20
REMARK    8  A    between atoms: N_18  and  N_19
REMARK                            x       y       z     vdW  Elec       q    Type
REMARK                         _______ _______ _______ _____ _____    ______ ____
ROOT
ATOM      1  C   UNL     1      -0.414  -8.998   4.469  0.00  0.00    +0.209 A 
ATOM      2  N   UNL     1      -0.389  -9.451   3.235  0.00  0.00    -0.121 NA
ATOM      3  N   UNL     1      -0.471 -10.734   3.235  0.00  0.00    -0.127 NA
ATOM      4  C   UNL     1      -0.553 -11.178   4.468  0.00  0.00    +0.182 A 
ATOM      5  N   UNL     1      -0.513 -10.080   5.296  0.00  0.00    -0.224 N 
ENDROOT
BRANCH   4   6
ATOM      6  C   UNL     1      -0.662 -12.591   4.887  0.00  0.00    +0.021 A 
ATOM      7  C   UNL     1      -1.058 -12.908   6.187  0.00  0.00    +0.013 A 
ATOM      8  C   UNL     1      -1.158 -14.229   6.573  0.00  0.00    +0.016 A 
ATOM      9  C   UNL     1      -0.865 -15.239   5.673  0.00  0.00    +0.018 A 
ATOM     10  C   UNL     1      -0.470 -14.931   4.382  0.00  0.00    +0.016 A 
ATOM     11  C   UNL     1      -0.373 -13.615   3.983  0.00  0.00    +0.013 A 
ATOM     12 BR   UNL     1      -1.003 -17.047   6.209  0.00  0.00    -0.050 Br
ENDBRANCH   4   6
BRANCH   5  13
ATOM     13  N   UNL     1      -0.565 -10.073   6.661  0.00  0.00    -0.295 N 
ATOM     14  H   UNL     1      -1.518 -10.013   6.986  0.00  0.00    +0.163 HD
ATOM     15  H   UNL     1      -0.103 -10.884   7.044  0.00  0.00    +0.163 HD
ENDBRANCH   5  13
BRANCH   1  16
ATOM     16  S   UNL     1      -0.328  -7.309   4.963  0.00  0.00    -0.084 S 
BRANCH  16  17
ATOM     17  C   UNL     1      -0.211  -6.399   3.398  0.00  0.00    +0.086 C 
BRANCH  17  18
ATOM     18  C   UNL     1      -0.129  -4.898   3.686  0.00  0.00    +0.107 C 
BRANCH  18  20
ATOM     19  N   UNL     1       0.052  -2.797   2.393  0.00  0.00    -0.285 N 
ATOM     20  C   UNL     1      -0.031  -4.143   2.385  0.00  0.00    +0.218 C 
ATOM     21  O   UNL     1      -0.028  -4.745   1.333  0.00  0.00    -0.275 OA
ATOM     22  H   UNL     1       0.127  -2.321   3.234  0.00  0.00    +0.155 HD
BRANCH  19  28
ATOM     23  C   UNL     1       1.524   1.061  -0.275  0.00  0.00    +0.044 C 
ATOM     24  C   UNL     1       0.735  -0.215  -0.134  0.00  0.00    -0.049 A 
ATOM     25  C   UNL     1      -0.011  -0.687  -1.199  0.00  0.00    +0.003 A 
ATOM     26  C   UNL     1      -0.736  -1.857  -1.074  0.00  0.00    +0.002 A 
ATOM     27  C   UNL     1      -0.717  -2.559   0.116  0.00  0.00    +0.023 A 
ATOM     28  C   UNL     1       0.031  -2.089   1.186  0.00  0.00    +0.034 A 
ATOM     29  C   UNL     1       0.763  -0.915   1.056  0.00  0.00    +0.026 A 
ENDBRANCH  19  28
ENDBRANCH  18  20
ENDBRANCH  17  18
ENDBRANCH  16  17
ENDBRANCH   1  16
TORSDOF 7
