REMARK  Name = ZINC00883648
REMARK  6 active torsions:
REMARK  status: ('A' for Active; 'I' for Inactive)
REMARK    1  A    between atoms: C_7  and  C_20
REMARK    2  A    between atoms: N_9  and  C_10
REMARK    3  A    between atoms: C_10  and  C_11
REMARK    4  A    between atoms: N_13  and  C_14
REMARK    5  A    between atoms: C_14  and  C_15
REMARK    6  A    between atoms: N_27  and  C_30
REMARK                            x       y       z     vdW  Elec       q    Type
REMARK                         _______ _______ _______ _____ _____    ______ ____
ROOT
ATOM      1  C   UNL     1      -7.106  -1.772  -6.359  0.00  0.00    +0.001 A 
ATOM      2  C   UNL     1      -6.458  -0.787  -5.630  0.00  0.00    +0.002 A 
ATOM      3  C   UNL     1      -5.684  -1.116  -4.538  0.00  0.00    +0.026 A 
ATOM      4  C   UNL     1      -5.548  -2.447  -4.159  0.00  0.00    +0.050 A 
ATOM      5  C   UNL     1      -6.206  -3.442  -4.898  0.00  0.00    +0.007 A 
ATOM      6  C   UNL     1      -6.984  -3.097  -5.998  0.00  0.00    +0.010 A 
ATOM      7  C   UNL     1      -5.863  -4.723  -4.246  0.00  0.00    +0.001 A 
ATOM      8  C   UNL     1      -5.034  -4.402  -3.184  0.00  0.00    +0.095 A 
ATOM      9  N   UNL     1      -4.859  -3.069  -3.137  0.00  0.00    -0.337 N 
ENDROOT
BRANCH   7  10
ATOM     10  C   UNL     1      -6.290  -6.011  -4.629  0.00  0.00    +0.028 C 
ATOM     11  C   UNL     1      -5.375  -7.052  -4.700  0.00  0.00    +0.100 C 
ATOM     12  C   UNL     1      -3.926  -6.814  -4.575  0.00  0.00    +0.255 C 
ATOM     13  O   UNL     1      -3.490  -5.690  -4.406  0.00  0.00    -0.270 OA
ATOM     14  N   UNL     1      -3.096  -7.875  -4.649  0.00  0.00    -0.263 N 
ATOM     15  C   UNL     1      -3.563  -9.117  -4.841  0.00  0.00    +0.150 C 
ATOM     16  S   UNL     1      -2.435 -10.402  -4.929  0.00  0.00    -0.018 S 
ATOM     17  N   UNL     1      -4.866  -9.406  -4.967  0.00  0.00    -0.217 N 
ATOM     18  C   UNL     1      -5.810  -8.444  -4.909  0.00  0.00    +0.262 C 
ATOM     19  O   UNL     1      -6.990  -8.720  -5.024  0.00  0.00    -0.269 OA
ATOM     20  H   UNL     1      -2.140  -7.735  -4.566  0.00  0.00    +0.157 HD
BRANCH  17  21
ATOM     21  C   UNL     1      -5.255 -10.737  -5.165  0.00  0.00    +0.043 A 
ATOM     22  C   UNL     1      -5.452 -11.220  -6.452  0.00  0.00    +0.025 A 
ATOM     23  C   UNL     1      -5.831 -12.534  -6.645  0.00  0.00    +0.022 A 
ATOM     24  C   UNL     1      -6.025 -13.366  -5.556  0.00  0.00    +0.041 A 
ATOM     25  C   UNL     1      -5.835 -12.886  -4.272  0.00  0.00    +0.022 A 
ATOM     26  C   UNL     1      -5.451 -11.574  -4.075  0.00  0.00    +0.025 A 
ATOM     27 CL   UNL     1      -6.509 -15.015  -5.801  0.00  0.00    -0.084 Cl
ENDBRANCH  17  21
ENDBRANCH   7  10
BRANCH   9  28
ATOM     28  C   UNL     1      -4.042  -2.372  -2.139  0.00  0.00    +0.217 C 
BRANCH  28  29
ATOM     29  C   UNL     1      -4.922  -1.900  -1.011  0.00  0.00    +0.233 C 
ATOM     30  O   UNL     1      -6.114  -2.124  -1.037  0.00  0.00    -0.274 OA
ATOM     31  N   UNL     1      -4.385  -1.230   0.027  0.00  0.00    -0.307 N 
ATOM     32  H   UNL     1      -3.432  -1.051   0.048  0.00  0.00    +0.149 HD
BRANCH  31  33
ATOM     33  C   UNL     1      -5.240  -0.770   1.125  0.00  0.00    +0.178 C 
BRANCH  33  34
ATOM     34  C   UNL     1      -4.400  -0.054   2.150  0.00  0.00    +0.122 A 
ATOM     35  C   UNL     1      -4.127   1.263   2.162  0.00  0.00    +0.046 A 
ATOM     36  C   UNL     1      -3.312   1.502   3.292  0.00  0.00    +0.041 A 
ATOM     37  C   UNL     1      -3.135   0.317   3.903  0.00  0.00    +0.195 A 
ATOM     38  O   UNL     1      -3.797  -0.622   3.207  0.00  0.00    -0.466 OA
ENDBRANCH  33  34
ENDBRANCH  31  33
ENDBRANCH  28  29
ENDBRANCH   9  28
TORSDOF 6
