REMARK  Name = ZINC12497389
REMARK  10 active torsions:
REMARK  status: ('A' for Active; 'I' for Inactive)
REMARK    1  A    between atoms: C_1  and  C_2
REMARK    2  A    between atoms: C_5  and  N_8
REMARK    3  A    between atoms: C_13  and  C_30
REMARK    4  A    between atoms: C_15  and  C_20
REMARK    5  A    between atoms: C_15  and  C_26
REMARK    6  A    between atoms: C_26  and  O_28
REMARK    7  A    between atoms: O_28  and  C_29
REMARK    8  A    between atoms: C_33  and  O_38
REMARK    9  A    between atoms: C_34  and  O_36
REMARK   10  A    between atoms: O_36  and  C_37
REMARK                            x       y       z     vdW  Elec       q    Type
REMARK                         _______ _______ _______ _____ _____    ______ ____
ROOT
ATOM      1  N   UNL     1      -1.660  -0.166   0.143  0.00  0.00    -0.210 N 
ATOM      2  C   UNL     1      -2.990   0.174   0.177  0.00  0.00    +0.229 C 
ATOM      3  O   UNL     1      -3.473   1.245   0.474  0.00  0.00    -0.275 OA
ATOM      4  C   UNL     1      -3.686  -1.025  -0.219  0.00  0.00    +0.078 C 
ATOM      5  C   UNL     1      -5.020  -1.644  -0.161  0.00  0.00    -0.026 C 
ATOM      6  C   UNL     1      -3.293  -3.323  -0.414  0.00  0.00    +0.070 C 
ATOM      7  C   UNL     1      -2.776  -2.149   0.419  0.00  0.00    +0.090 C 
ATOM      8  C   UNL     1      -1.462  -1.513   0.042  0.00  0.00    +0.229 C 
ATOM      9  O   UNL     1      -0.440  -2.079  -0.283  0.00  0.00    -0.275 OA
ATOM     10  N   UNL     1      -4.733  -3.033  -0.641  0.00  0.00    +0.398 N 
ATOM     11  H   UNL     1      -4.947  -3.104  -1.643  0.00  0.00    -0.083 HD
ATOM     12  H   UNL     1      -5.308  -3.705  -0.120  0.00  0.00    -0.083 HD
ENDROOT
BRANCH   1  17
ATOM     13  C   UNL     1       2.558   3.624   0.377  0.00  0.00    +0.044 C 
ATOM     14  C   UNL     1       1.438   2.618   0.315  0.00  0.00    -0.050 A 
ATOM     15  C   UNL     1       0.123   3.045   0.355  0.00  0.00    +0.005 A 
ATOM     16  C   UNL     1      -0.905   2.125   0.298  0.00  0.00    +0.024 A 
ATOM     17  C   UNL     1      -0.618   0.770   0.201  0.00  0.00    +0.044 A 
ATOM     18  C   UNL     1       0.702   0.345   0.161  0.00  0.00    +0.024 A 
ATOM     19  C   UNL     1       1.727   1.269   0.219  0.00  0.00    +0.005 A 
ENDBRANCH   1  17
BRANCH   6  20
ATOM     20  C   UNL     1      -2.557  -3.394  -1.728  0.00  0.00    -0.047 A 
ATOM     21  C   UNL     1      -3.039  -2.710  -2.828  0.00  0.00    +0.003 A 
ATOM     22  C   UNL     1      -2.361  -2.772  -4.031  0.00  0.00    +0.000 A 
ATOM     23  C   UNL     1      -1.208  -3.526  -4.137  0.00  0.00    +0.000 A 
ATOM     24  C   UNL     1      -0.729  -4.215  -3.038  0.00  0.00    +0.000 A 
ATOM     25  C   UNL     1      -1.404  -4.149  -1.833  0.00  0.00    +0.003 A 
ENDBRANCH   6  20
BRANCH   5  26
ATOM     26  C   UNL     1      -5.981  -0.937  -1.082  0.00  0.00    -0.057 A 
ATOM     27  C   UNL     1      -6.173  -1.405  -2.369  0.00  0.00    +0.006 A 
ATOM     28  C   UNL     1      -7.054  -0.760  -3.217  0.00  0.00    +0.049 A 
ATOM     29  C   UNL     1      -7.747   0.357  -2.779  0.00  0.00    +0.158 A 
ATOM     30  C   UNL     1      -7.553   0.827  -1.483  0.00  0.00    +0.161 A 
ATOM     31  C   UNL     1      -6.673   0.173  -0.636  0.00  0.00    +0.051 A 
BRANCH  30  32
ATOM     32  O   UNL     1      -8.231   1.923  -1.048  0.00  0.00    -0.491 OA
ATOM     33  C   UNL     1      -7.982   2.349   0.293  0.00  0.00    +0.277 C 
ENDBRANCH  30  32
BRANCH  29  34
ATOM     34  O   UNL     1      -8.614   0.992  -3.612  0.00  0.00    -0.503 OA
ATOM     35  H   UNL     1      -9.520   0.657  -3.567  0.00  0.00    +0.292 HD
ENDBRANCH  29  34
ENDBRANCH   5  26
BRANCH   6  36
ATOM     36  C   UNL     1      -3.129  -4.614   0.345  0.00  0.00    +0.301 C 
ATOM     37  O   UNL     1      -2.281  -4.708   1.201  0.00  0.00    -0.252 OA
BRANCH  36  38
ATOM     38  O   UNL     1      -3.925  -5.660   0.071  0.00  0.00    -0.469 OA
ATOM     39  C   UNL     1      -3.711  -6.871   0.843  0.00  0.00    +0.280 C 
ENDBRANCH  36  38
ENDBRANCH   6  36
TORSDOF 7
