REMARK  Name = ZINC23571972
REMARK  10 active torsions:
REMARK  status: ('A' for Active; 'I' for Inactive)
REMARK    1  A    between atoms: C_1  and  C_2
REMARK    2  A    between atoms: C_2  and  O_3
REMARK    3  A    between atoms: O_3  and  C_4
REMARK    4  A    between atoms: C_7  and  C_10
REMARK    5  A    between atoms: C_10  and  N_11
REMARK    6  A    between atoms: N_11  and  C_12
REMARK    7  A    between atoms: C_13  and  C_15
REMARK    8  A    between atoms: C_15  and  C_16
REMARK    9  A    between atoms: C_16  and  C_17
REMARK   10  A    between atoms: C_17  and  N_18
REMARK                            x       y       z     vdW  Elec       q    Type
REMARK                         _______ _______ _______ _____ _____    ______ ____
ROOT
ATOM      1  C   UNL     1      -2.353  -7.438  -2.693  0.00  0.00    +0.097 C 
ENDROOT
BRANCH   1   4
ATOM      2  N   UNL     1      -0.052  -6.535  -2.591  0.00  0.00    -0.300 N 
ATOM      3  C   UNL     1      -0.011  -6.601  -4.053  0.00  0.00    +0.132 C 
ATOM      4  C   UNL     1      -1.158  -6.929  -1.929  0.00  0.00    +0.216 C 
ATOM      5  O   UNL     1      -1.192  -6.873  -0.718  0.00  0.00    -0.276 OA
BRANCH   2   6
ATOM      6  C   UNL     1       1.109  -6.040  -1.847  0.00  0.00    +0.142 C 
BRANCH   6  10
ATOM      7  C   UNL     1       0.777  -1.810  -1.336  0.00  0.00    +0.121 A 
ATOM      8  C   UNL     1       0.243  -2.669  -0.386  0.00  0.00    +0.046 A 
ATOM      9  C   UNL     1       0.351  -4.036  -0.554  0.00  0.00    +0.009 A 
ATOM     10  C   UNL     1       0.992  -4.548  -1.667  0.00  0.00    -0.030 A 
ATOM     11  C   UNL     1       1.525  -3.694  -2.615  0.00  0.00    +0.009 A 
ATOM     12  C   UNL     1       1.414  -2.327  -2.455  0.00  0.00    +0.046 A 
BRANCH   7  13
ATOM     13  O   UNL     1       0.671  -0.465  -1.174  0.00  0.00    -0.492 OA
BRANCH  13  15
ATOM     14  C   UNL     1      -0.019   1.526   0.010  0.00  0.00    +0.048 C 
ATOM     15  C   UNL     1       0.002  -0.004   0.002  0.00  0.00    +0.225 C 
ENDBRANCH  13  15
ENDBRANCH   7  13
ENDBRANCH   6  10
ENDBRANCH   2   6
ENDBRANCH   1   4
BRANCH   1  16
ATOM     16  C   UNL     1      -3.464  -7.815  -1.711  0.00  0.00    +0.029 C 
BRANCH  16  17
ATOM     17  C   UNL     1      -4.677  -8.332  -2.488  0.00  0.00    +0.118 C 
BRANCH  17  18
ATOM     18  N   UNL     1      -5.740  -8.694  -1.547  0.00  0.00    -0.224 N 
ATOM     19  C   UNL     1      -5.883  -9.919  -0.997  0.00  0.00    +0.246 C 
ATOM     20  O   UNL     1      -5.184 -10.893  -1.179  0.00  0.00    -0.273 OA
ATOM     21  C   UNL     1      -7.097  -9.817  -0.109  0.00  0.00    +0.113 C 
ATOM     22  C   UNL     1      -6.739 -10.124   1.351  0.00  0.00    +0.035 C 
ATOM     23  C   UNL     1      -7.994 -10.850   1.900  0.00  0.00    +0.003 C 
ATOM     24  C   UNL     1      -8.452 -11.707   0.693  0.00  0.00    +0.003 C 
ATOM     25  C   UNL     1      -8.182 -10.809  -0.534  0.00  0.00    +0.035 C 
ATOM     26  N   UNL     1      -7.549  -8.433  -0.263  0.00  0.00    -0.285 N 
ATOM     27  C   UNL     1      -6.689  -7.849  -1.122  0.00  0.00    +0.309 C 
ATOM     28  O   UNL     1      -6.767  -6.688  -1.473  0.00  0.00    -0.252 OA
ATOM     29  H   UNL     1      -8.312  -8.018   0.168  0.00  0.00    +0.151 HD
ENDBRANCH  17  18
ENDBRANCH  16  17
ENDBRANCH   1  16
TORSDOF 8
