REMARK  Name = ZINC25389743
REMARK  8 active torsions:
REMARK  status: ('A' for Active; 'I' for Inactive)
REMARK    1  A    between atoms: C_1  and  C_2
REMARK    2  A    between atoms: N_11  and  C_15
REMARK    3  A    between atoms: C_15  and  C_16
REMARK    4  A    between atoms: N_18  and  C_19
REMARK    5  A    between atoms: C_19  and  C_21
REMARK    6  A    between atoms: C_19  and  C_22
REMARK    7  A    between atoms: C_22  and  C_23
REMARK    8  A    between atoms: C_23  and  C_24
REMARK                            x       y       z     vdW  Elec       q    Type
REMARK                         _______ _______ _______ _____ _____    ______ ____
ROOT
ATOM      1  C   UNL     1      -0.002   1.056   2.507  0.00  0.00    +0.010 C 
ATOM      2  C   UNL     1      -0.730   1.580   1.267  0.00  0.00    +0.018 C 
ATOM      3  C   UNL     1      -0.013   1.086   0.008  0.00  0.00    +0.006 C 
ATOM      4  C   UNL     1      -0.753   1.593  -1.231  0.00  0.00    +0.000 C 
ATOM      5  C   UNL     1      -2.186   1.056  -1.227  0.00  0.00    +0.003 C 
ATOM      6  C   UNL     1      -2.911   1.550   0.027  0.00  0.00    +0.035 C 
ATOM      7  C   UNL     1      -2.167   1.069   1.268  0.00  0.00    +0.115 C 
ATOM      8  C   UNL     1      -2.885   1.517   2.521  0.00  0.00    +0.247 C 
ATOM      9  O   UNL     1      -3.102   2.655   2.875  0.00  0.00    -0.273 OA
ATOM     10  N   UNL     1      -3.233   0.381   3.161  0.00  0.00    -0.215 N 
ATOM     11  C   UNL     1      -2.836  -0.706   2.489  0.00  0.00    +0.310 C 
ATOM     12  O   UNL     1      -3.035  -1.844   2.866  0.00  0.00    -0.252 OA
ATOM     13  N   UNL     1      -2.191  -0.397   1.347  0.00  0.00    -0.285 N 
ATOM     14  H   UNL     1      -1.730  -0.998   0.550  0.00  0.00    +0.151 HD
ENDROOT
BRANCH  10  15
ATOM     15  C   UNL     1      -3.956   0.343   4.435  0.00  0.00    +0.213 C 
BRANCH  15  16
ATOM     16  C   UNL     1      -2.969   0.347   5.573  0.00  0.00    +0.231 C 
ATOM     17  O   UNL     1      -1.778   0.378   5.343  0.00  0.00    -0.274 OA
ATOM     18  N   UNL     1      -3.409   0.315   6.847  0.00  0.00    -0.311 N 
ATOM     19  H   UNL     1      -4.488   0.287   7.055  0.00  0.00    +0.149 HD
BRANCH  18  20
ATOM     20  C   UNL     1      -2.449   0.319   7.953  0.00  0.00    +0.070 C 
ATOM     21  C   UNL     1      -2.053   1.760   8.280  0.00  0.00    +0.028 C 
BRANCH  20  22
ATOM     22  C   UNL     1      -3.087  -0.327   9.185  0.00  0.00    +0.029 C 
BRANCH  22  23
ATOM     23  C   UNL     1      -3.370  -1.803   8.898  0.00  0.00    +0.076 C 
BRANCH  23  24
ATOM     24  C   UNL     1      -3.999  -2.439  10.111  0.00  0.00    +0.105 A 
ATOM     25  C   UNL     1      -5.317  -2.508  10.368  0.00  0.00    +0.044 A 
ATOM     26  C   UNL     1      -5.459  -3.183  11.602  0.00  0.00    +0.041 A 
ATOM     27  C   UNL     1      -4.219  -3.485  12.026  0.00  0.00    +0.195 A 
ATOM     28  O   UNL     1      -3.339  -3.037  11.116  0.00  0.00    -0.468 OA
ENDBRANCH  23  24
ENDBRANCH  22  23
ENDBRANCH  20  22
ENDBRANCH  18  20
ENDBRANCH  15  16
ENDBRANCH  10  15
TORSDOF 6
