REMARK  Name = ZINC39956512
REMARK  10 active torsions:
REMARK  status: ('A' for Active; 'I' for Inactive)
REMARK    1  A    between atoms: C_1  and  C_2
REMARK    2  A    between atoms: C_2  and  C_3
REMARK    3  A    between atoms: C_2  and  C_4
REMARK    4  A    between atoms: C_4  and  C_5
REMARK    5  A    between atoms: C_7  and  C_11
REMARK    6  A    between atoms: C_18  and  C_20
REMARK    7  A    between atoms: C_20  and  O_21
REMARK    8  A    between atoms: O_21  and  C_22
REMARK    9  A    between atoms: C_27  and  O_28
REMARK   10  A    between atoms: O_28  and  C_29
REMARK                            x       y       z     vdW  Elec       q    Type
REMARK                         _______ _______ _______ _____ _____    ______ ____
ROOT
ATOM      1  C   UNL     1       5.392  -0.621  -1.886  0.00  0.00    +0.230 C 
ATOM      2  N   UNL     1       4.852  -0.629  -3.254  0.00  0.00    -0.242 N 
ATOM      3  N   UNL     1       5.738   0.134  -4.025  0.00  0.00    -0.161 NA
ATOM      4  C   UNL     1       6.709   0.582  -3.311  0.00  0.00    +0.201 C 
ATOM      5  N   UNL     1       6.629   0.196  -1.976  0.00  0.00    -0.175 N 
ATOM      6  N   UNL     1       7.648   0.644  -1.144  0.00  0.00    -0.170 NA
ATOM      7  C   UNL     1       8.616   1.378  -1.589  0.00  0.00    +0.137 C 
ATOM      8  S   UNL     1       8.205   1.549  -3.324  0.00  0.00    -0.031 S 
ATOM      9  H   UNL     1       4.046  -1.072  -3.560  0.00  0.00    +0.170 HD
ENDROOT
BRANCH   1  12
ATOM     10  C   UNL     1       2.165  -0.079  -1.208  0.00  0.00    +0.062 C 
ATOM     11  C   UNL     1       3.162  -0.848  -0.763  0.00  0.00    +0.030 C 
ATOM     12  C   UNL     1       4.395   0.024  -0.922  0.00  0.00    +0.194 C 
ATOM     13  N   UNL     1       3.849   1.269  -1.487  0.00  0.00    -0.176 NA
ATOM     14  N   UNL     1       2.631   1.122  -1.615  0.00  0.00    -0.159 NA
BRANCH  10  15
ATOM     15  C   UNL     1       0.718  -0.497  -1.257  0.00  0.00    +0.060 C 
BRANCH  15  17
ATOM     16  C   UNL     1      -0.019   1.526   0.010  0.00  0.00    +0.007 C 
ATOM     17  C   UNL     1       0.002  -0.004   0.002  0.00  0.00    -0.011 C 
ATOM     18  C   UNL     1      -1.433  -0.534   0.013  0.00  0.00    +0.007 C 
ENDBRANCH  15  17
ENDBRANCH  10  15
ENDBRANCH   1  12
BRANCH   7  19
ATOM     19  C   UNL     1       9.792   1.947  -0.836  0.00  0.00    +0.293 C 
BRANCH  19  20
ATOM     20  O   UNL     1       9.714   1.555   0.535  0.00  0.00    -0.482 OA
BRANCH  20  21
ATOM     21  C   UNL     1      10.706   1.988   1.359  0.00  0.00    +0.162 A 
ATOM     22  C   UNL     1      11.729   2.778   0.858  0.00  0.00    +0.049 A 
ATOM     23  C   UNL     1      12.736   3.217   1.696  0.00  0.00    +0.004 A 
ATOM     24  C   UNL     1      12.727   2.871   3.034  0.00  0.00    +0.004 A 
ATOM     25  C   UNL     1      11.710   2.082   3.540  0.00  0.00    +0.049 A 
ATOM     26  C   UNL     1      10.694   1.643   2.707  0.00  0.00    +0.162 A 
BRANCH  26  27
ATOM     27  O   UNL     1       9.690   0.873   3.204  0.00  0.00    -0.491 OA
ATOM     28  C   UNL     1       9.742   0.559   4.597  0.00  0.00    +0.277 C 
ENDBRANCH  26  27
ENDBRANCH  20  21
ENDBRANCH  19  20
ENDBRANCH   7  19
TORSDOF 7
