REMARK  Name = ZINC39658870
REMARK  6 active torsions:
REMARK  status: ('A' for Active; 'I' for Inactive)
REMARK    1  A    between atoms: C_1  and  C_2
REMARK    2  A    between atoms: C_2  and  C_33
REMARK    3  A    between atoms: C_5  and  C_8
REMARK    4  A    between atoms: C_8  and  N_9
REMARK    5  A    between atoms: C_10  and  C_12
REMARK    6  A    between atoms: C_23  and  C_25
REMARK                            x       y       z     vdW  Elec       q    Type
REMARK                         _______ _______ _______ _____ _____    ______ ____
ROOT
ATOM      1  C   UNL     1       3.737  -1.475   5.258  0.00  0.00    +0.100 C 
ATOM      2  C   UNL     1       2.388  -1.063   5.888  0.00  0.00    +0.121 C 
ATOM      3  N   UNL     1       1.964  -2.248   6.670  0.00  0.00    -0.296 N 
ATOM      4  C   UNL     1       3.217  -2.757   7.277  0.00  0.00    +0.115 C 
ATOM      5  C   UNL     1       4.280  -2.584   6.175  0.00  0.00    -0.004 C 
ATOM      6  C   UNL     1       5.612  -2.160   6.786  0.00  0.00    -0.010 C 
ATOM      7  C   UNL     1       6.159  -3.302   7.647  0.00  0.00    -0.082 C 
ATOM      8  N   UNL     1       6.338  -4.500   6.818  0.00  0.00    +0.379 N 
ATOM      9  C   UNL     1       5.038  -4.955   6.309  0.00  0.00    -0.082 C 
ATOM     10  C   UNL     1       4.443  -3.884   5.392  0.00  0.00    -0.010 C 
ATOM     11  C   UNL     1       0.719  -2.749   6.801  0.00  0.00    +0.248 C 
ATOM     12  O   UNL     1      -0.198  -2.274   6.160  0.00  0.00    -0.270 OA
ATOM     13  H   UNL     1       6.944  -4.283   6.041  0.00  0.00    -0.086 HD
ATOM     14  H   UNL     1       6.756  -5.232   7.373  0.00  0.00    -0.086 HD
ENDROOT
BRANCH  11  15
ATOM     15  C   UNL     1       0.470  -3.875   7.724  0.00  0.00    +0.055 A 
ATOM     16  C   UNL     1       1.181  -3.971   8.922  0.00  0.00    +0.016 A 
ATOM     17  C   UNL     1       0.944  -5.024   9.779  0.00  0.00    +0.021 A 
ATOM     18  C   UNL     1       0.002  -5.987   9.455  0.00  0.00    +0.042 A 
ATOM     19  C   UNL     1      -0.707  -5.900   8.269  0.00  0.00    +0.040 A 
ATOM     20  C   UNL     1      -0.483  -4.846   7.405  0.00  0.00    +0.054 A 
ATOM     21 CL   UNL     1      -1.378  -4.732   5.921  0.00  0.00    -0.083 Cl
ATOM     22 CL   UNL     1      -0.290  -7.311  10.540  0.00  0.00    -0.083 Cl
ENDBRANCH  11  15
BRANCH   1  24
ATOM     23  N   UNL     1       4.486  -1.850   2.930  0.00  0.00    -0.312 N 
ATOM     24  C   UNL     1       3.525  -2.004   3.863  0.00  0.00    +0.218 C 
ATOM     25  O   UNL     1       2.490  -2.569   3.579  0.00  0.00    -0.275 OA
ATOM     26  H   UNL     1       5.314  -1.398   3.156  0.00  0.00    +0.149 HD
BRANCH  23  27
ATOM     27  C   UNL     1       4.279  -2.365   1.574  0.00  0.00    +0.138 C 
BRANCH  27  32
ATOM     28  C   UNL     1       7.873  -0.354  -0.433  0.00  0.00    +0.074 C 
ATOM     29  C   UNL     1       6.383  -0.528  -0.736  0.00  0.00    +0.165 C 
ATOM     30  O   UNL     1       6.184  -1.725  -1.499  0.00  0.00    -0.347 OA
ATOM     31  C   UNL     1       5.330  -2.591  -0.724  0.00  0.00    +0.196 C 
ATOM     32  C   UNL     1       5.512  -2.061   0.720  0.00  0.00    +0.164 C 
ATOM     33  O   UNL     1       5.649  -0.637   0.495  0.00  0.00    -0.342 OA
ATOM     34  C   UNL     1       5.876   0.676  -1.532  0.00  0.00    +0.074 C 
ENDBRANCH  27  32
ENDBRANCH  23  27
ENDBRANCH   1  24
TORSDOF 4
