REMARK  Name = ZINC33277165
REMARK  8 active torsions:
REMARK  status: ('A' for Active; 'I' for Inactive)
REMARK    1  A    between atoms: C_6  and  C_7
REMARK    2  A    between atoms: C_7  and  C_8
REMARK    3  A    between atoms: C_8  and  N_9
REMARK    4  A    between atoms: C_10  and  C_12
REMARK    5  A    between atoms: C_12  and  S_13
REMARK    6  A    between atoms: S_13  and  C_14
REMARK    7  A    between atoms: C_23  and  C_26
REMARK    8  A    between atoms: N_28  and  C_29
REMARK                            x       y       z     vdW  Elec       q    Type
REMARK                         _______ _______ _______ _____ _____    ______ ____
ROOT
ATOM      1  C   UNL     1       2.516   4.647   0.003  0.00  0.00    +0.120 A 
ATOM      2  C   UNL     1       2.632   6.038   0.009  0.00  0.00    +0.040 A 
ATOM      3  C   UNL     1       3.904   6.583   0.001  0.00  0.00    +0.048 A 
ATOM      4  C   UNL     1       4.991   5.707  -0.014  0.00  0.00    +0.144 A 
ATOM      5  N   UNL     1       4.784   4.401  -0.019  0.00  0.00    -0.133 NA
ATOM      6  N   UNL     1       3.605   3.895  -0.006  0.00  0.00    -0.141 NA
ATOM      7  N   UNL     1       6.291   6.209  -0.024  0.00  0.00    -0.314 N 
ATOM      8  C   UNL     1       6.515   7.112   1.113  0.00  0.00    +0.107 C 
ATOM      9  C   UNL     1       7.899   7.754   0.990  0.00  0.00    +0.031 C 
ATOM     10  C   UNL     1       8.966   6.657   0.968  0.00  0.00    +0.078 C 
ATOM     11  C   UNL     1       8.681   5.702  -0.195  0.00  0.00    +0.031 C 
ATOM     12  C   UNL     1       7.275   5.119  -0.038  0.00  0.00    +0.107 C 
ENDROOT
BRANCH  10  13
ATOM     13  C   UNL     1      10.326   7.280   0.787  0.00  0.00    +0.216 C 
ATOM     14  O   UNL     1      11.002   6.990  -0.177  0.00  0.00    -0.276 OA
ATOM     15  N   UNL     1      10.791   8.159   1.697  0.00  0.00    -0.312 N 
ATOM     16  H   UNL     1      10.177   8.422   2.571  0.00  0.00    +0.149 HD
BRANCH  15  17
ATOM     17  C   UNL     1      12.113   8.765   1.521  0.00  0.00    +0.073 C 
ATOM     18  C   UNL     1      13.018   8.857   2.752  0.00  0.00    +0.024 C 
ATOM     19  C   UNL     1      12.363  10.120   2.186  0.00  0.00    +0.024 C 
ENDBRANCH  15  17
ENDBRANCH  10  13
BRANCH   1  20
ATOM     20  S   UNL     1       0.923   3.893   0.014  0.00  0.00    -0.095 S 
BRANCH  20  21
ATOM     21  C   UNL     1       1.278   2.115   0.001  0.00  0.00    +0.171 C 
BRANCH  21  23
ATOM     22  N   UNL     1       0.002  -0.004   0.002  0.00  0.00    -0.314 N 
ATOM     23  C   UNL     1      -0.016   1.344   0.009  0.00  0.00    +0.223 C 
ATOM     24  O   UNL     1      -1.075   1.936   0.018  0.00  0.00    -0.275 OA
ATOM     25  H   UNL     1       0.962  -0.541  -0.010  0.00  0.00    +0.149 HD
BRANCH  22  26
ATOM     26  C   UNL     1      -1.256  -0.754   0.010  0.00  0.00    +0.109 C 
BRANCH  26  27
ATOM     27  C   UNL     1      -0.957  -2.254  -0.001  0.00  0.00    +0.054 C 
BRANCH  27  33
ATOM     28  C   UNL     1      -2.830  -3.390   1.208  0.00  0.00    +0.005 A 
ATOM     29  C   UNL     1      -4.021  -4.093   1.217  0.00  0.00    +0.020 A 
ATOM     30  C   UNL     1      -4.627  -4.440   0.022  0.00  0.00    +0.041 A 
ATOM     31  C   UNL     1      -4.044  -4.080  -1.179  0.00  0.00    +0.020 A 
ATOM     32  C   UNL     1      -2.856  -3.372  -1.186  0.00  0.00    +0.005 A 
ATOM     33  C   UNL     1      -2.251  -3.025   0.007  0.00  0.00    -0.046 A 
ATOM     34 CL   UNL     1      -6.119  -5.328   0.032  0.00  0.00    -0.084 Cl
ENDBRANCH  27  33
ENDBRANCH  26  27
ENDBRANCH  22  26
ENDBRANCH  21  23
ENDBRANCH  20  21
ENDBRANCH   1  20
TORSDOF 8
