REMARK  Name = ZINC36217333
REMARK  11 active torsions:
REMARK  status: ('A' for Active; 'I' for Inactive)
REMARK    1  A    between atoms: C_1  and  C_2
REMARK    2  A    between atoms: C_6  and  C_8
REMARK    3  A    between atoms: C_8  and  N_9
REMARK    4  A    between atoms: C_10  and  C_29
REMARK    5  A    between atoms: C_12  and  C_17
REMARK    6  A    between atoms: C_20  and  N_23
REMARK    7  A    between atoms: C_24  and  C_26
REMARK    8  A    between atoms: C_26  and  C_27
REMARK    9  A    between atoms: C_26  and  C_28
REMARK   10  A    between atoms: N_31  and  C_32
REMARK   11  A    between atoms: C_32  and  C_33
REMARK                            x       y       z     vdW  Elec       q    Type
REMARK                         _______ _______ _______ _____ _____    ______ ____
ROOT
ATOM      1  N   UNL     1       1.307  -2.872   3.103  0.00  0.00    -0.248 N 
ATOM      2  C   UNL     1       2.233  -3.980   2.799  0.00  0.00    +0.210 C 
ATOM      3  C   UNL     1       3.615  -3.330   3.047  0.00  0.00    +0.238 C 
ATOM      4  O   UNL     1       3.286  -2.266   3.962  0.00  0.00    -0.440 OA
ATOM      5  C   UNL     1       2.005  -1.920   3.751  0.00  0.00    +0.405 C 
ATOM      6  O   UNL     1       1.527  -0.862   4.109  0.00  0.00    -0.226 OA
ENDROOT
BRANCH   3   7
ATOM      7  C   UNL     1       4.566  -4.311   3.681  0.00  0.00    -0.005 A 
ATOM      8  C   UNL     1       4.494  -4.563   5.038  0.00  0.00    +0.009 A 
ATOM      9  C   UNL     1       5.364  -5.463   5.622  0.00  0.00    +0.024 A 
ATOM     10  C   UNL     1       6.313  -6.114   4.845  0.00  0.00    +0.033 A 
ATOM     11  C   UNL     1       6.382  -5.859   3.481  0.00  0.00    +0.024 A 
ATOM     12  C   UNL     1       5.506  -4.962   2.902  0.00  0.00    +0.009 A 
BRANCH  10  13
ATOM     13  N   UNL     1       7.196  -7.026   5.434  0.00  0.00    -0.285 N 
ATOM     14  C   UNL     1       6.793  -7.777   6.477  0.00  0.00    +0.220 C 
ATOM     15  O   UNL     1       5.639  -7.732   6.847  0.00  0.00    -0.275 OA
ATOM     16  H   UNL     1       8.099  -7.116   5.090  0.00  0.00    +0.155 HD
BRANCH  14  17
ATOM     17  C   UNL     1       7.777  -8.673   7.185  0.00  0.00    +0.069 C 
ATOM     18  C   UNL     1       7.068  -9.410   8.323  0.00  0.00    +0.017 C 
ATOM     19  C   UNL     1       8.343  -9.691   6.193  0.00  0.00    +0.017 C 
ENDBRANCH  14  17
ENDBRANCH  10  13
ENDBRANCH   3   7
BRANCH   2  20
ATOM     20  C   UNL     1       2.091  -4.420   1.365  0.00  0.00    +0.238 C 
ATOM     21  O   UNL     1       1.712  -3.632   0.524  0.00  0.00    -0.274 OA
ATOM     22  N   UNL     1       2.386  -5.688   1.016  0.00  0.00    -0.311 N 
ATOM     23  H   UNL     1       2.689  -6.318   1.689  0.00  0.00    +0.149 HD
BRANCH  22  24
ATOM     24  C   UNL     1       2.248  -6.115  -0.378  0.00  0.00    +0.135 C 
BRANCH  24  25
ATOM     25  C   UNL     1       2.642  -7.588  -0.502  0.00  0.00    +0.135 C 
ATOM     26  C   UNL     1       2.616  -8.015  -1.985  0.00  0.00    +0.035 C 
ATOM     27  C   UNL     1       2.021  -9.447  -1.906  0.00  0.00    +0.031 C 
ATOM     28  C   UNL     1       1.039  -9.292  -0.718  0.00  0.00    +0.160 C 
ATOM     29  O   UNL     1       1.699  -8.405   0.202  0.00  0.00    -0.375 OA
ENDBRANCH  24  25
ENDBRANCH  22  24
ENDBRANCH   2  20
BRANCH   1  30
ATOM     30  C   UNL     1      -0.116  -2.814   2.757  0.00  0.00    +0.147 C 
BRANCH  30  36
ATOM     31  C   UNL     1      -2.488  -6.544   5.104  0.00  0.00    +0.044 C 
ATOM     32  C   UNL     1      -2.072  -5.097   5.041  0.00  0.00    -0.050 A 
ATOM     33  C   UNL     1      -2.442  -4.227   6.049  0.00  0.00    +0.003 A 
ATOM     34  C   UNL     1      -2.060  -2.900   5.992  0.00  0.00    +0.001 A 
ATOM     35  C   UNL     1      -1.307  -2.443   4.926  0.00  0.00    +0.005 A 
ATOM     36  C   UNL     1      -0.936  -3.313   3.919  0.00  0.00    -0.030 A 
ATOM     37  C   UNL     1      -1.315  -4.641   3.978  0.00  0.00    +0.008 A 
ENDBRANCH  30  36
ENDBRANCH   1  30
TORSDOF 8
