REMARK  Name = ZINC06446200
REMARK  9 active torsions:
REMARK  status: ('A' for Active; 'I' for Inactive)
REMARK    1  A    between atoms: C_4  and  C_7
REMARK    2  A    between atoms: C_7  and  N_8
REMARK    3  A    between atoms: N_8  and  C_9
REMARK    4  A    between atoms: C_9  and  C_11
REMARK    5  A    between atoms: C_9  and  C_17
REMARK    6  A    between atoms: N_19  and  C_20
REMARK    7  A    between atoms: C_26  and  C_28
REMARK    8  A    between atoms: C_31  and  C_33
REMARK    9  A    between atoms: C_33  and  N_76
REMARK                            x       y       z     vdW  Elec       q    Type
REMARK                         _______ _______ _______ _____ _____    ______ ____
ROOT
ATOM      1  N   UNL     1      -5.197   2.834   0.653  0.00  0.00    -0.275 N 
ATOM      2  C   UNL     1      -6.283   2.075   0.896  0.00  0.00    +0.283 C 
ATOM      3  O   UNL     1      -6.944   1.644  -0.030  0.00  0.00    -0.267 OA
ENDROOT
BRANCH   2   4
ATOM      4  C   UNL     1      -6.669   1.768   2.277  0.00  0.00    +0.190 A 
ATOM      5  C   UNL     1      -7.825   1.157   2.671  0.00  0.00    +0.055 A 
ATOM      6  C   UNL     1      -7.774   1.059   4.070  0.00  0.00    +0.043 A 
ATOM      7  C   UNL     1      -6.606   1.612   4.465  0.00  0.00    +0.090 A 
ATOM      8  O   UNL     1      -5.945   2.041   3.382  0.00  0.00    -0.457 OA
BRANCH   7   9
ATOM      9  C   UNL     1      -6.127   1.727   5.889  0.00  0.00    -0.003 C 
BRANCH   9  15
ATOM     10  C   UNL     1      -6.200  -0.665   6.249  0.00  0.00    -0.078 C 
ATOM     11  C   UNL     1      -5.334  -1.907   6.477  0.00  0.00    -0.019 C 
ATOM     12  C   UNL     1      -4.598  -1.772   7.813  0.00  0.00    -0.004 C 
ATOM     13  C   UNL     1      -3.758  -0.492   7.797  0.00  0.00    -0.019 C 
ATOM     14  C   UNL     1      -4.670   0.708   7.531  0.00  0.00    -0.078 C 
ATOM     15  N   UNL     1      -5.329   0.529   6.221  0.00  0.00    +0.384 N 
ATOM     16  H   UNL     1      -4.609   0.398   5.500  0.00  0.00    -0.081 HD
ENDBRANCH   9  15
ENDBRANCH   7   9
ENDBRANCH   2   4
BRANCH   1  17
ATOM     17  C   UNL     1      -4.302   3.207   1.752  0.00  0.00    +0.144 C 
BRANCH  17  21
ATOM     18  C   UNL     1      -5.996   6.474   3.920  0.00  0.00    +0.000 A 
ATOM     19  C   UNL     1      -5.196   5.554   4.571  0.00  0.00    +0.000 A 
ATOM     20  C   UNL     1      -4.648   4.496   3.869  0.00  0.00    +0.005 A 
ATOM     21  C   UNL     1      -4.900   4.359   2.517  0.00  0.00    -0.030 A 
ATOM     22  C   UNL     1      -5.695   5.283   1.865  0.00  0.00    +0.005 A 
ATOM     23  C   UNL     1      -6.247   6.338   2.567  0.00  0.00    +0.000 A 
ENDBRANCH  17  21
ENDBRANCH   1  17
BRANCH   1  24
ATOM     24  C   UNL     1      -4.910   3.287  -0.711  0.00  0.00    +0.193 C 
BRANCH  24  25
ATOM     25  C   UNL     1      -3.819   2.433  -1.304  0.00  0.00    -0.015 A 
ATOM     26  C   UNL     1      -2.705   2.083  -0.557  0.00  0.00    +0.025 A 
ATOM     27  C   UNL     1      -1.727   1.295  -1.134  0.00  0.00    +0.111 A 
ATOM     28  N   UNL     1      -1.841   0.885  -2.382  0.00  0.00    -0.263 NA
ATOM     29  C   UNL     1      -2.884   1.203  -3.124  0.00  0.00    +0.111 A 
ATOM     30  C   UNL     1      -3.903   1.983  -2.613  0.00  0.00    +0.025 A 
ENDBRANCH  24  25
BRANCH  24  31
ATOM     31  C   UNL     1      -4.460   4.725  -0.678  0.00  0.00    +0.238 C 
ATOM     32  O   UNL     1      -3.389   5.014  -0.189  0.00  0.00    -0.273 OA
ATOM     33  N   UNL     1      -5.249   5.689  -1.192  0.00  0.00    -0.311 N 
ATOM     34  H   UNL     1      -6.106   5.457  -1.583  0.00  0.00    +0.149 HD
BRANCH  33  35
ATOM     35  C   UNL     1      -4.812   7.087  -1.161  0.00  0.00    +0.073 C 
ATOM     36  C   UNL     1      -5.183   7.707   0.188  0.00  0.00    +0.022 C 
ATOM     37  C   UNL     1      -4.727   9.167   0.221  0.00  0.00    +0.002 C 
ATOM     38  C   UNL     1      -5.416   9.942  -0.904  0.00  0.00    +0.000 C 
ATOM     39  C   UNL     1      -5.045   9.322  -2.253  0.00  0.00    +0.002 C 
ATOM     40  C   UNL     1      -5.502   7.862  -2.285  0.00  0.00    +0.022 C 
ENDBRANCH  33  35
ENDBRANCH  24  31
ENDBRANCH   1  24
TORSDOF 9
