REMARK  Name = ZINC39711422
REMARK  13 active torsions:
REMARK  status: ('A' for Active; 'I' for Inactive)
REMARK    1  A    between atoms: C_1  and  C_2
REMARK    2  A    between atoms: C_2  and  O_3
REMARK    3  A    between atoms: O_3  and  C_4
REMARK    4  A    between atoms: C_11  and  C_16
REMARK    5  A    between atoms: C_16  and  C_18
REMARK    6  A    between atoms: C_16  and  N_28
REMARK    7  A    between atoms: N_23  and  C_24
REMARK    8  A    between atoms: C_24  and  C_25
REMARK    9  A    between atoms: C_24  and  C_26
REMARK   10  A    between atoms: C_24  and  C_27
REMARK   11  A    between atoms: N_31  and  C_34
REMARK   12  A    between atoms: C_38  and  C_41
REMARK   13  A    between atoms: C_39  and  C_40
REMARK                            x       y       z     vdW  Elec       q    Type
REMARK                         _______ _______ _______ _____ _____    ______ ____
ROOT
ATOM      1  C   UNL     1       3.947  -6.246   3.079  0.00  0.00    -0.009 C 
ENDROOT
BRANCH   1   9
ATOM      2  C   UNL     1      -0.851  -9.488   2.336  0.00  0.00    +0.121 A 
ATOM      3  C   UNL     1      -0.838  -9.898   3.674  0.00  0.00    +0.047 A 
ATOM      4  C   UNL     1      -0.048  -9.311   4.611  0.00  0.00    +0.027 A 
ATOM      5  C   UNL     1       0.804  -8.246   4.264  0.00  0.00    +0.041 A 
ATOM      6  N   UNL     1       1.574  -7.681   5.194  0.00  0.00    -0.285 N 
ATOM      7  C   UNL     1       2.397  -6.678   4.938  0.00  0.00    +0.223 C 
ATOM      8  O   UNL     1       3.075  -6.202   5.828  0.00  0.00    -0.275 OA
ATOM      9  C   UNL     1       2.491  -6.125   3.533  0.00  0.00    +0.088 C 
ATOM     10  C   UNL     1       1.618  -6.765   2.472  0.00  0.00    -0.006 C 
ATOM     11  C   UNL     1       0.812  -7.793   2.862  0.00  0.00    -0.004 A 
ATOM     12  C   UNL     1      -0.058  -8.470   1.900  0.00  0.00    +0.055 A 
ATOM     13  H   UNL     1       1.528  -8.020   6.101  0.00  0.00    +0.155 HD
BRANCH   2  14
ATOM     14  O   UNL     1      -1.667 -10.121   1.453  0.00  0.00    -0.492 OA
BRANCH  14  16
ATOM     15  C   UNL     1      -3.323 -11.769   0.832  0.00  0.00    +0.048 C 
ATOM     16  C   UNL     1      -2.478 -11.181   1.964  0.00  0.00    +0.225 C 
ENDBRANCH  14  16
ENDBRANCH   2  14
ENDBRANCH   1   9
BRANCH   1  17
ATOM     17  N   UNL     1       4.318  -7.665   2.995  0.00  0.00    +0.387 N 
ATOM     18  C   UNL     1       5.760  -7.779   2.744  0.00  0.00    -0.059 C 
ATOM     19  C   UNL     1       6.167  -9.256   2.771  0.00  0.00    +0.086 C 
ATOM     20  N   UNL     1       5.324  -9.989   1.814  0.00  0.00    -0.333 N 
ATOM     21  C   UNL     1       3.867  -9.805   1.890  0.00  0.00    +0.086 C 
ATOM     22  C   UNL     1       3.568  -8.302   1.905  0.00  0.00    -0.059 C 
ATOM     23  H   UNL     1       4.094  -8.121   3.867  0.00  0.00    -0.081 HD
BRANCH  20  24
ATOM     24  C   UNL     1       5.892 -10.838   0.861  0.00  0.00    +0.033 A 
ATOM     25  C   UNL     1       6.093 -12.181   1.156  0.00  0.00    +0.023 A 
ATOM     26  C   UNL     1       6.654 -13.017   0.211  0.00  0.00    +0.002 A 
ATOM     27  C   UNL     1       7.015 -12.519  -1.028  0.00  0.00    +0.004 A 
ATOM     28  C   UNL     1       6.817 -11.184  -1.324  0.00  0.00    -0.046 A 
ATOM     29  C   UNL     1       6.251 -10.343  -0.386  0.00  0.00    -0.027 A 
ATOM     30  C   UNL     1       6.029  -8.888  -0.712  0.00  0.00    +0.046 C 
ATOM     31  C   UNL     1       7.214 -10.645  -2.675  0.00  0.00    +0.044 C 
ENDBRANCH  20  24
ENDBRANCH   1  17
BRANCH   1  32
ATOM     32  C   UNL     1       4.857  -5.540   4.086  0.00  0.00    +0.205 C 
ATOM     33  N   UNL     1       4.621  -6.057   5.441  0.00  0.00    -0.152 NA
ATOM     34  N   UNL     1       4.229  -5.133   6.157  0.00  0.00    -0.070 NA
ATOM     35  N   UNL     1       4.135  -3.920   5.476  0.00  0.00    -0.179 N 
ATOM     36  N   UNL     1       4.516  -4.104   4.170  0.00  0.00    -0.183 NA
ATOM     37  H   UNL     1       3.846  -3.079   5.863  0.00  0.00    +0.191 HD
BRANCH  36  38
ATOM     38  C   UNL     1       3.423  -3.767   3.249  0.00  0.00    +0.035 C 
ATOM     39  C   UNL     1       2.084  -3.896   3.978  0.00  0.00    +0.029 C 
ATOM     40  C   UNL     1       3.597  -2.330   2.753  0.00  0.00    +0.029 C 
ATOM     41  C   UNL     1       3.448  -4.725   2.056  0.00  0.00    +0.029 C 
ENDBRANCH  36  38
ENDBRANCH   1  32
TORSDOF 7
