REMARK  Name = ZINC02099632
REMARK  6 active torsions:
REMARK  status: ('A' for Active; 'I' for Inactive)
REMARK    1  A    between atoms: C_4  and  O_36
REMARK    2  A    between atoms: C_5  and  C_7
REMARK    3  A    between atoms: C_7  and  C_8
REMARK    4  A    between atoms: C_7  and  C_22
REMARK    5  A    between atoms: C_15  and  O_21
REMARK    6  A    between atoms: C_29  and  O_35
REMARK                            x       y       z     vdW  Elec       q    Type
REMARK                         _______ _______ _______ _____ _____    ______ ____
ROOT
ATOM      1  C   UNL     1       3.919   2.002   1.788  0.00  0.00    +0.065 C 
ENDROOT
BRANCH   1   2
ATOM      2  C   UNL     1       3.748   1.852   0.275  0.00  0.00    +0.178 C 
ATOM      3  C   UNL     1       2.537   0.986  -0.033  0.00  0.00    +0.181 C 
ATOM      4  O   UNL     1       2.643  -0.201  -0.258  0.00  0.00    -0.291 OA
ATOM      5  C   UNL     1       1.230   1.663  -0.043  0.00  0.00    +0.061 A 
ATOM      6  C   UNL     1       0.049   0.914  -0.035  0.00  0.00    +0.018 A 
ATOM      7  C   UNL     1      -1.159   1.548  -0.069  0.00  0.00    +0.046 A 
ATOM      8  C   UNL     1      -1.221   2.939  -0.100  0.00  0.00    +0.120 A 
ATOM      9  C   UNL     1      -0.058   3.696  -0.103  0.00  0.00    +0.092 A 
ATOM     10  C   UNL     1       1.177   3.067  -0.069  0.00  0.00    +0.146 A 
ATOM     11  O   UNL     1       2.308   3.814  -0.054  0.00  0.00    -0.424 OA
ATOM     12  C   UNL     1       3.471   3.205  -0.354  0.00  0.00    +0.324 C 
ATOM     13  O   UNL     1       4.269   3.720  -1.102  0.00  0.00    -0.250 OA
BRANCH   8  14
ATOM     14  O   UNL     1      -2.427   3.559  -0.133  0.00  0.00    -0.507 OA
ATOM     15  H   UNL     1      -2.764   3.716  -1.026  0.00  0.00    +0.292 HD
ENDBRANCH   8  14
ENDBRANCH   1   2
BRANCH   1  16
ATOM     16  C   UNL     1       5.194   2.795   2.082  0.00  0.00    +0.178 C 
ATOM     17  C   UNL     1       5.007   4.250   1.685  0.00  0.00    +0.181 C 
ATOM     18  O   UNL     1       5.384   4.672   0.612  0.00  0.00    -0.291 OA
ATOM     19  C   UNL     1       4.345   5.119   2.670  0.00  0.00    +0.061 A 
ATOM     20  C   UNL     1       3.882   6.385   2.294  0.00  0.00    +0.018 A 
ATOM     21  C   UNL     1       3.287   7.194   3.219  0.00  0.00    +0.046 A 
ATOM     22  C   UNL     1       3.139   6.765   4.535  0.00  0.00    +0.120 A 
ATOM     23  C   UNL     1       3.587   5.510   4.921  0.00  0.00    +0.092 A 
ATOM     24  C   UNL     1       4.189   4.674   3.994  0.00  0.00    +0.146 A 
ATOM     25  O   UNL     1       4.613   3.445   4.377  0.00  0.00    -0.424 OA
ATOM     26  C   UNL     1       5.477   2.796   3.573  0.00  0.00    +0.324 C 
ATOM     27  O   UNL     1       6.445   2.231   4.024  0.00  0.00    -0.250 OA
BRANCH  22  28
ATOM     28  O   UNL     1       2.551   7.579   5.447  0.00  0.00    -0.507 OA
ATOM     29  H   UNL     1       1.592   7.472   5.510  0.00  0.00    +0.292 HD
ENDBRANCH  22  28
ENDBRANCH   1  16
BRANCH   1  34
ATOM     30  C   UNL     1       5.130  -1.474   2.631  0.00  0.00    +0.001 A 
ATOM     31  C   UNL     1       4.205  -1.870   3.578  0.00  0.00    +0.004 A 
ATOM     32  C   UNL     1       3.185  -1.016   3.950  0.00  0.00    +0.046 A 
ATOM     33  C   UNL     1       3.090   0.242   3.370  0.00  0.00    +0.120 A 
ATOM     34  C   UNL     1       4.019   0.637   2.420  0.00  0.00    -0.000 A 
ATOM     35  C   UNL     1       5.034  -0.224   2.048  0.00  0.00    +0.007 A 
BRANCH  33  36
ATOM     36  O   UNL     1       2.088   1.085   3.734  0.00  0.00    -0.506 OA
ATOM     37  H   UNL     1       1.286   0.996   3.201  0.00  0.00    +0.292 HD
ENDBRANCH  33  36
ENDBRANCH   1  34
TORSDOF 6
