REMARK  Name = ZINC27522698
REMARK  5 active torsions:
REMARK  status: ('A' for Active; 'I' for Inactive)
REMARK    1  A    between atoms: C_6  and  C_7
REMARK    2  A    between atoms: N_9  and  C_10
REMARK    3  A    between atoms: C_13  and  N_16
REMARK    4  A    between atoms: C_17  and  C_19
REMARK    5  A    between atoms: C_23  and  N_25
REMARK                            x       y       z     vdW  Elec       q    Type
REMARK                         _______ _______ _______ _____ _____    ______ ____
ROOT
ATOM      1  C   UNL     1       2.385  -4.210  -0.116  0.00  0.00    +0.034 A 
ATOM      2  C   UNL     1       1.170  -4.878  -0.196  0.00  0.00    +0.025 A 
ATOM      3  C   UNL     1       1.145  -6.254  -0.304  0.00  0.00    +0.025 A 
ATOM      4  C   UNL     1       2.334  -6.971  -0.323  0.00  0.00    +0.034 A 
ATOM      5  C   UNL     1       3.549  -6.303  -0.237  0.00  0.00    +0.025 A 
ATOM      6  C   UNL     1       3.574  -4.926  -0.134  0.00  0.00    +0.025 A 
ENDROOT
BRANCH   1   9
ATOM      7  C   UNL     1       3.396  -2.112  -0.604  0.00  0.00    +0.248 C 
ATOM      8  O   UNL     1       4.309  -2.694  -1.157  0.00  0.00    -0.270 OA
ATOM      9  N   UNL     1       2.410  -2.814  -0.012  0.00  0.00    -0.282 N 
ATOM     10  H   UNL     1       1.625  -2.290   0.553  0.00  0.00    +0.155 HD
BRANCH   7  16
ATOM     11  C   UNL     1       4.388   0.096  -1.194  0.00  0.00    +0.014 A 
ATOM     12  C   UNL     1       4.356   1.474  -1.169  0.00  0.00    +0.016 A 
ATOM     13  C   UNL     1       3.315   2.134  -0.538  0.00  0.00    +0.018 A 
ATOM     14  C   UNL     1       2.300   1.416   0.071  0.00  0.00    +0.016 A 
ATOM     15  C   UNL     1       2.321   0.037   0.053  0.00  0.00    +0.014 A 
ATOM     16  C   UNL     1       3.368  -0.634  -0.581  0.00  0.00    +0.037 A 
ATOM     17 BR   UNL     1       3.279   4.025  -0.508  0.00  0.00    -0.050 Br
ENDBRANCH   7  16
ENDBRANCH   1   9
BRANCH   4  18
ATOM     18  N   UNL     1       2.309  -8.367  -0.427  0.00  0.00    -0.282 N 
ATOM     19  C   UNL     1       1.362  -8.970  -1.173  0.00  0.00    +0.248 C 
ATOM     20  O   UNL     1       0.480  -8.308  -1.687  0.00  0.00    -0.270 OA
ATOM     21  H   UNL     1       3.062  -8.971   0.100  0.00  0.00    +0.155 HD
BRANCH  19  22
ATOM     22  C   UNL     1       1.396 -10.434  -1.367  0.00  0.00    +0.039 A 
ATOM     23  C   UNL     1       2.410 -11.195  -0.783  0.00  0.00    +0.014 A 
ATOM     24  C   UNL     1       2.433 -12.562  -0.962  0.00  0.00    +0.023 A 
ATOM     25  C   UNL     1       1.458 -13.179  -1.730  0.00  0.00    +0.071 A 
ATOM     26  C   UNL     1       0.453 -12.429  -2.316  0.00  0.00    +0.145 A 
ATOM     27  C   UNL     1       0.416 -11.061  -2.139  0.00  0.00    +0.047 A 
ATOM     28 CL   UNL     1       1.498 -14.899  -1.957  0.00  0.00    -0.081 Cl
BRANCH  26  29
ATOM     29  N   UNL     1      -0.585 -13.095  -3.134  0.00  0.00    +0.058 N 
ATOM     30  O   UNL     1      -1.470 -12.437  -3.650  0.00  0.00    -0.126 OA
ATOM     31  O   UNL     1      -0.554 -14.303  -3.291  0.00  0.00    -0.126 OA
ENDBRANCH  26  29
ENDBRANCH  19  22
ENDBRANCH   4  18
TORSDOF 5
