REMARK  Name = ZINC39630546
REMARK  10 active torsions:
REMARK  status: ('A' for Active; 'I' for Inactive)
REMARK    1  A    between atoms: C_1  and  C_2
REMARK    2  A    between atoms: C_2  and  C_3
REMARK    3  A    between atoms: C_2  and  C_4
REMARK    4  A    between atoms: C_2  and  C_29
REMARK    5  A    between atoms: C_4  and  N_5
REMARK    6  A    between atoms: C_6  and  C_8
REMARK    7  A    between atoms: C_19  and  C_21
REMARK    8  A    between atoms: C_29  and  N_30
REMARK    9  A    between atoms: N_30  and  C_31
REMARK   10  A    between atoms: N_30  and  C_32
REMARK                            x       y       z     vdW  Elec       q    Type
REMARK                         _______ _______ _______ _____ _____    ______ ____
ROOT
ATOM      1  C   UNL     1      -1.655  -1.184   4.118  0.00  0.00    +0.100 C 
ATOM      2  C   UNL     1      -2.123   0.287   4.175  0.00  0.00    +0.121 C 
ATOM      3  N   UNL     1      -3.596   0.206   4.315  0.00  0.00    -0.296 N 
ATOM      4  C   UNL     1      -3.816  -0.931   5.240  0.00  0.00    +0.115 C 
ATOM      5  C   UNL     1      -2.767  -1.980   4.821  0.00  0.00    -0.004 C 
ATOM      6  C   UNL     1      -3.386  -2.988   3.857  0.00  0.00    -0.010 C 
ATOM      7  C   UNL     1      -4.450  -3.805   4.595  0.00  0.00    -0.082 C 
ATOM      8  N   UNL     1      -3.835  -4.500   5.732  0.00  0.00    +0.379 N 
ATOM      9  C   UNL     1      -3.324  -3.522   6.700  0.00  0.00    -0.082 C 
ATOM     10  C   UNL     1      -2.212  -2.692   6.051  0.00  0.00    -0.010 C 
ATOM     11  C   UNL     1      -4.525   0.990   3.733  0.00  0.00    +0.247 C 
ATOM     12  O   UNL     1      -4.181   1.923   3.033  0.00  0.00    -0.270 OA
ATOM     13  H   UNL     1      -4.524  -5.085   6.179  0.00  0.00    -0.086 HD
ATOM     14  H   UNL     1      -3.074  -5.074   5.402  0.00  0.00    -0.086 HD
ENDROOT
BRANCH  11  15
ATOM     15  C   UNL     1      -5.961   0.715   3.944  0.00  0.00    +0.038 A 
ATOM     16  C   UNL     1      -6.393   0.112   5.127  0.00  0.00    +0.014 A 
ATOM     17  C   UNL     1      -7.734  -0.143   5.320  0.00  0.00    +0.022 A 
ATOM     18  C   UNL     1      -8.654   0.198   4.342  0.00  0.00    +0.059 A 
ATOM     19  C   UNL     1      -8.232   0.796   3.165  0.00  0.00    +0.060 A 
ATOM     20  C   UNL     1      -6.893   1.062   2.964  0.00  0.00    +0.034 A 
ATOM     21 CL   UNL     1      -9.392   1.220   1.944  0.00  0.00    -0.082 Cl
ATOM     22 CL   UNL     1     -10.341  -0.127   4.591  0.00  0.00    -0.082 Cl
ENDBRANCH  11  15
BRANCH   1  24
ATOM     23  N   UNL     1      -0.715  -2.679   2.386  0.00  0.00    -0.315 N 
ATOM     24  C   UNL     1      -1.511  -1.635   2.687  0.00  0.00    +0.218 C 
ATOM     25  O   UNL     1      -2.113  -1.057   1.807  0.00  0.00    -0.275 OA
ATOM     26  H   UNL     1      -0.234  -3.141   3.091  0.00  0.00    +0.149 HD
BRANCH  23  27
ATOM     27  C   UNL     1      -0.575  -3.117   0.995  0.00  0.00    +0.108 C 
BRANCH  27  29
ATOM     28  C   UNL     1       1.748  -3.901   1.475  0.00  0.00    +0.010 C 
ATOM     29  C   UNL     1       0.379  -4.311   0.929  0.00  0.00    -0.034 C 
ATOM     30  C   UNL     1      -0.182  -5.459   1.771  0.00  0.00    +0.010 C 
BRANCH  29  31
ATOM     31  C   UNL     1       0.524  -4.768  -0.523  0.00  0.00    -0.072 C 
BRANCH  31  32
ATOM     32  N   UNL     1       1.345  -5.985  -0.574  0.00  0.00    +0.376 N 
ATOM     33  C   UNL     1       0.494  -7.160  -0.345  0.00  0.00    -0.097 C 
ATOM     34  C   UNL     1       1.982  -6.092  -1.893  0.00  0.00    -0.097 C 
ATOM     35  H   UNL     1       2.057  -5.941   0.140  0.00  0.00    -0.083 HD
ENDBRANCH  31  32
ENDBRANCH  29  31
ENDBRANCH  27  29
ENDBRANCH  23  27
ENDBRANCH   1  24
TORSDOF 6
