REMARK  Name = ZINC20676686
REMARK  5 active torsions:
REMARK  status: ('A' for Active; 'I' for Inactive)
REMARK    1  A    between atoms: C_1  and  C_2
REMARK    2  A    between atoms: C_3  and  C_12
REMARK    3  A    between atoms: C_12  and  C_14
REMARK    4  A    between atoms: C_12  and  N_17
REMARK    5  A    between atoms: N_20  and  C_23
REMARK                            x       y       z     vdW  Elec       q    Type
REMARK                         _______ _______ _______ _____ _____    ______ ____
ROOT
ATOM      1  N   UNL     1      -0.621   0.909  -2.699  0.00  0.00    +0.393 N 
ATOM      2  C   UNL     1      -0.606   1.311  -4.112  0.00  0.00    -0.062 C 
ATOM      3  C   UNL     1      -1.460   2.568  -4.294  0.00  0.00    +0.066 C 
ATOM      4  N   UNL     1      -2.836   2.288  -3.860  0.00  0.00    -0.302 NA
ATOM      5  C   UNL     1      -2.864   1.861  -2.454  0.00  0.00    +0.066 C 
ATOM      6  C   UNL     1      -1.998   0.610  -2.288  0.00  0.00    -0.062 C 
ATOM      7  H   UNL     1      -0.256   1.661  -2.132  0.00  0.00    -0.080 HD
ENDROOT
BRANCH   4   8
ATOM      8  C   UNL     1      -3.702   3.456  -4.072  0.00  0.00    +0.063 C 
ATOM      9  C   UNL     1      -3.720   3.814  -5.560  0.00  0.00    +0.007 C 
ATOM     10  C   UNL     1      -4.622   5.030  -5.781  0.00  0.00    +0.008 C 
ATOM     11  C   UNL     1      -6.043   4.702  -5.319  0.00  0.00    -0.010 C 
ATOM     12  C   UNL     1      -6.579   3.515  -6.123  0.00  0.00    +0.007 C 
ATOM     13  C   UNL     1      -5.677   2.300  -5.902  0.00  0.00    -0.010 C 
ATOM     14  C   UNL     1      -4.256   2.628  -6.364  0.00  0.00    +0.008 C 
ATOM     15  C   UNL     1      -5.660   1.941  -4.415  0.00  0.00    +0.008 C 
ATOM     16  C   UNL     1      -5.123   3.127  -3.610  0.00  0.00    +0.007 C 
ATOM     17  C   UNL     1      -6.025   4.343  -3.832  0.00  0.00    +0.008 C 
ENDBRANCH   4   8
BRANCH   1  18
ATOM     18  C   UNL     1       0.214  -0.286  -2.522  0.00  0.00    +0.080 C 
BRANCH  18  21
ATOM     19  C   UNL     1      -0.238  -3.228  -1.641  0.00  0.00    +0.063 C 
ATOM     20  C   UNL     1      -0.104  -2.049  -0.712  0.00  0.00    +0.016 A 
ATOM     21  C   UNL     1       0.091  -0.779  -1.103  0.00  0.00    -0.022 A 
ATOM     22  C   UNL     1       0.161   0.036   0.112  0.00  0.00    +0.002 A 
ATOM     23  C   UNL     1       0.346   1.399   0.357  0.00  0.00    +0.010 A 
ATOM     24  C   UNL     1       0.364   1.860   1.643  0.00  0.00    +0.001 A 
ATOM     25  C   UNL     1       0.199   0.986   2.708  0.00  0.00    +0.002 A 
ATOM     26  C   UNL     1       0.016  -0.362   2.489  0.00  0.00    +0.026 A 
ATOM     27  C   UNL     1      -0.005  -0.854   1.188  0.00  0.00    +0.047 A 
ATOM     28  N   UNL     1      -0.170  -2.112   0.653  0.00  0.00    -0.358 N 
ATOM     29  H   UNL     1      -0.309  -2.922   1.167  0.00  0.00    +0.166 HD
ENDBRANCH  18  21
BRANCH  18  30
ATOM     30  C   UNL     1       1.652   0.057  -2.811  0.00  0.00    +0.347 C 
ATOM     31  O   UNL     1       2.485  -0.829  -2.901  0.00  0.00    -0.248 OA
ATOM     32  O   UNL     1       1.984   1.222  -2.955  0.00  0.00    -0.248 OA
ENDBRANCH  18  30
ENDBRANCH   1  18
TORSDOF 4
