REMARK  Name = ZINC33667594
REMARK  8 active torsions:
REMARK  status: ('A' for Active; 'I' for Inactive)
REMARK    1  A    between atoms: C_1  and  C_2
REMARK    2  A    between atoms: C_5  and  C_8
REMARK    3  A    between atoms: C_14  and  C_16
REMARK    4  A    between atoms: C_16  and  C_18
REMARK    5  A    between atoms: C_16  and  N_21
REMARK    6  A    between atoms: C_18  and  C_19
REMARK    7  A    between atoms: C_18  and  C_20
REMARK    8  A    between atoms: C_22  and  C_24
REMARK                            x       y       z     vdW  Elec       q    Type
REMARK                         _______ _______ _______ _____ _____    ______ ____
ROOT
ATOM      1  C   UNL     1       0.002  -0.004   0.002  0.00  0.00    +0.134 A 
ATOM      2  N   UNL     1       1.312  -0.220  -0.012  0.00  0.00    -0.140 NA
ATOM      3  N   UNL     1       2.119   0.751  -0.014  0.00  0.00    -0.125 NA
ATOM      4  C   UNL     1       1.703   2.007  -0.003  0.00  0.00    +0.188 A 
ATOM      5  S   UNL     1      -0.022   1.785   0.012  0.00  0.00    -0.030 S 
ATOM      6  N   UNL     1       2.442   3.183  -0.005  0.00  0.00    -0.262 N 
ATOM      7  C   UNL     1       3.789   3.132  -0.018  0.00  0.00    +0.239 C 
ATOM      8  O   UNL     1       4.355   2.060  -0.028  0.00  0.00    -0.273 OA
ATOM      9  H   UNL     1       1.929   4.156   0.005  0.00  0.00    +0.157 HD
ENDROOT
BRANCH   1  14
ATOM     10  C   UNL     1      -4.360  -3.757   0.024  0.00  0.00    +0.044 C 
ATOM     11  C   UNL     1      -3.218  -2.774   0.018  0.00  0.00    -0.050 A 
ATOM     12  C   UNL     1      -1.913  -3.235   0.003  0.00  0.00    +0.004 A 
ATOM     13  C   UNL     1      -0.863  -2.340  -0.003  0.00  0.00    +0.011 A 
ATOM     14  C   UNL     1      -1.119  -0.968   0.007  0.00  0.00    +0.009 A 
ATOM     15  C   UNL     1      -2.437  -0.510   0.028  0.00  0.00    +0.011 A 
ATOM     16  C   UNL     1      -3.478  -1.415   0.027  0.00  0.00    +0.004 A 
ENDBRANCH   1  14
BRANCH   7  17
ATOM     17  C   UNL     1       4.591   4.408  -0.019  0.00  0.00    +0.162 C 
BRANCH  17  18
ATOM     18  N   UNL     1       6.021   4.086  -0.034  0.00  0.00    -0.300 N 
ATOM     19  C   UNL     1       6.906   4.972  -0.532  0.00  0.00    +0.245 C 
ATOM     20  O   UNL     1       6.518   6.039  -0.968  0.00  0.00    -0.270 OA
ATOM     21  H   UNL     1       6.371   3.121   0.360  0.00  0.00    +0.150 HD
BRANCH  19  22
ATOM     22  C   UNL     1       8.347   4.647  -0.547  0.00  0.00    +0.038 A 
ATOM     23  C   UNL     1       8.796   3.426  -0.041  0.00  0.00    +0.014 A 
ATOM     24  C   UNL     1      10.142   3.125  -0.063  0.00  0.00    +0.022 A 
ATOM     25  C   UNL     1      11.050   4.038  -0.574  0.00  0.00    +0.059 A 
ATOM     26  C   UNL     1      10.612   5.254  -1.073  0.00  0.00    +0.060 A 
ATOM     27  C   UNL     1       9.267   5.563  -1.062  0.00  0.00    +0.034 A 
ATOM     28 CL   UNL     1      11.757   6.391  -1.713  0.00  0.00    -0.082 Cl
ATOM     29 CL   UNL     1      12.743   3.655  -0.591  0.00  0.00    -0.082 Cl
ENDBRANCH  19  22
ENDBRANCH  17  18
BRANCH  17  30
ATOM     30  C   UNL     1       4.264   5.218   1.237  0.00  0.00    +0.012 C 
ATOM     31  C   UNL     1       4.729   4.449   2.475  0.00  0.00    +0.009 C 
ATOM     32  C   UNL     1       4.983   6.567   1.175  0.00  0.00    +0.009 C 
ENDBRANCH  17  30
ENDBRANCH   7  17
TORSDOF 5
