REMARK  Name = ZINC11787749
REMARK  5 active torsions:
REMARK  status: ('A' for Active; 'I' for Inactive)
REMARK    1  A    between atoms: C_1  and  O_2
REMARK    2  A    between atoms: O_2  and  C_3
REMARK    3  A    between atoms: C_8  and  C_18
REMARK    4  A    between atoms: C_18  and  N_59
REMARK    5  A    between atoms: C_19  and  N_59
REMARK                            x       y       z     vdW  Elec       q    Type
REMARK                         _______ _______ _______ _____ _____    ______ ____
ROOT
ATOM      1  C   UNL     1      -0.940  11.085  -4.304  0.00  0.00    +0.122 A 
ATOM      2  C   UNL     1       0.230  10.322  -4.234  0.00  0.00    +0.046 A 
ATOM      3  C   UNL     1       0.298   9.224  -3.434  0.00  0.00    +0.013 A 
ATOM      4  C   UNL     1      -0.816   8.848  -2.667  0.00  0.00    -0.001 A 
ATOM      5  C   UNL     1      -0.775   7.715  -1.829  0.00  0.00    +0.015 A 
ATOM      6  C   UNL     1      -1.889   7.402  -1.109  0.00  0.00    -0.026 A 
ATOM      7  C   UNL     1      -3.038   8.197  -1.219  0.00  0.00    +0.101 A 
ATOM      8  C   UNL     1      -2.005   9.615  -2.730  0.00  0.00    +0.051 A 
ATOM      9  C   UNL     1      -2.048  10.743  -3.564  0.00  0.00    +0.071 A 
ATOM     10  N   UNL     1      -4.166   7.863  -0.485  0.00  0.00    -0.315 N 
ATOM     11  C   UNL     1      -5.289   7.538  -1.367  0.00  0.00    +0.117 C 
ATOM     12  C   UNL     1      -6.348   6.747  -0.591  0.00  0.00    +0.088 C 
ATOM     13  S   UNL     1      -6.958   7.791   0.769  0.00  0.00    -0.158 S 
ATOM     14  C   UNL     1      -5.421   8.352   1.565  0.00  0.00    +0.088 C 
ATOM     15  C   UNL     1      -4.494   8.914   0.481  0.00  0.00    +0.117 C 
ATOM     16  N   UNL     1      -3.133   9.301  -2.003  0.00  0.00    -0.343 N 
ATOM     17  H   UNL     1      -3.989   9.865  -2.051  0.00  0.00    +0.167 HD
ENDROOT
BRANCH   1  19
ATOM     18  C   UNL     1       0.201  12.480  -5.855  0.00  0.00    +0.277 C 
ATOM     19  O   UNL     1      -0.982  12.177  -5.112  0.00  0.00    -0.495 OA
ENDBRANCH   1  19
BRANCH   6  20
ATOM     20  C   UNL     1      -1.888   6.199  -0.201  0.00  0.00    -0.043 C 
BRANCH  20  21
ATOM     21  N   UNL     1      -2.620   5.099  -0.856  0.00  0.00    +0.386 N 
ATOM     22  H   UNL     1      -2.207   4.918  -1.778  0.00  0.00    -0.085 HD
ATOM     23  H   UNL     1      -3.605   5.367  -0.969  0.00  0.00    -0.085 HD
BRANCH  21  24
ATOM     24  C   UNL     1      -2.541   3.873  -0.039  0.00  0.00    -0.040 C 
ATOM     25  C   UNL     1      -3.645   3.916   1.021  0.00  0.00    -0.011 C 
ATOM     26  C   UNL     1      -3.693   2.549   1.713  0.00  0.00    +0.003 C 
ATOM     27  C   UNL     1      -4.244   1.526   0.721  0.00  0.00    +0.035 C 
ATOM     28  C   UNL     1      -3.490   1.593  -0.581  0.00  0.00    -0.046 A 
ATOM     29  C   UNL     1      -2.717   2.676  -0.935  0.00  0.00    -0.058 A 
ATOM     30  C   UNL     1      -2.065   2.683  -2.161  0.00  0.00    +0.002 A 
ATOM     31  C   UNL     1      -2.175   1.610  -3.021  0.00  0.00    +0.000 A 
ATOM     32  C   UNL     1      -2.942   0.518  -2.660  0.00  0.00    +0.000 A 
ATOM     33  C   UNL     1      -3.594   0.510  -1.444  0.00  0.00    +0.004 A 
ENDBRANCH  21  24
ENDBRANCH  20  21
ENDBRANCH   6  20
TORSDOF 4
