REMARK  Name = ZINC54073046
REMARK  9 active torsions:
REMARK  status: ('A' for Active; 'I' for Inactive)
REMARK    1  A    between atoms: C_1  and  C_2
REMARK    2  A    between atoms: C_2  and  C_32
REMARK    3  A    between atoms: C_4  and  N_10
REMARK    4  A    between atoms: C_6  and  C_8
REMARK    5  A    between atoms: C_6  and  C_9
REMARK    6  A    between atoms: C_13  and  C_25
REMARK    7  A    between atoms: C_13  and  O_31
REMARK    8  A    between atoms: C_14  and  C_17
REMARK    9  A    between atoms: C_17  and  C_19
REMARK                            x       y       z     vdW  Elec       q    Type
REMARK                         _______ _______ _______ _____ _____    ______ ____
ROOT
ATOM      1  N   UNL     1       2.616  -0.819  -2.627  0.00  0.00    -0.299 NA
ATOM      2  C   UNL     1       2.343  -2.256  -2.763  0.00  0.00    +0.088 C 
ATOM      3  C   UNL     1       2.775  -2.729  -4.153  0.00  0.00    +0.055 C 
ATOM      4  C   UNL     1       4.270  -2.454  -4.338  0.00  0.00    +0.103 C 
ATOM      5  C   UNL     1       4.534  -0.958  -4.144  0.00  0.00    +0.110 C 
ATOM      6  C   UNL     1       4.051  -0.536  -2.754  0.00  0.00    +0.099 C 
ENDROOT
BRANCH   1  10
ATOM      7  C   UNL     1      -0.019   1.528   0.010  0.00  0.00    -0.010 C 
ATOM      8  C   UNL     1       0.002  -0.004   0.002  0.00  0.00    -0.072 C 
ATOM      9  C   UNL     1       0.573  -0.505  -1.321  0.00  0.00    +0.006 C 
ATOM     10  C   UNL     1       2.088  -0.301  -1.357  0.00  0.00    +0.054 C 
ATOM     11  C   UNL     1       2.703  -1.086  -0.198  0.00  0.00    +0.006 C 
ATOM     12  C   UNL     1       2.147  -0.590   1.133  0.00  0.00    -0.072 C 
ATOM     13  N   UNL     1       0.697  -0.529   1.164  0.00  0.00    +0.386 N 
ATOM     14  C   UNL     1       2.769   0.766   1.481  0.00  0.00    -0.010 C 
ATOM     15  C   UNL     1       2.600  -1.589   2.223  0.00  0.00    -0.010 C 
ATOM     16  C   UNL     1      -1.468  -0.478   0.079  0.00  0.00    -0.010 C 
ATOM     17  H   UNL     1       0.416   0.021   1.982  0.00  0.00    -0.084 HD
ATOM     18  H   UNL     1       0.341  -1.472   1.351  0.00  0.00    -0.084 HD
ENDBRANCH   1  10
BRANCH   4  19
ATOM     19  C   UNL     1       4.688  -2.863  -5.727  0.00  0.00    -0.015 A 
ATOM     20  C   UNL     1       4.633  -1.948  -6.763  0.00  0.00    +0.006 A 
ATOM     21  C   UNL     1       5.017  -2.324  -8.037  0.00  0.00    +0.000 A 
ATOM     22  C   UNL     1       5.456  -3.612  -8.275  0.00  0.00    +0.000 A 
ATOM     23  C   UNL     1       5.511  -4.526  -7.240  0.00  0.00    +0.000 A 
ATOM     24  C   UNL     1       5.132  -4.150  -5.965  0.00  0.00    +0.006 A 
ENDBRANCH   4  19
BRANCH   5  25
ATOM     25  C   UNL     1       6.011  -0.688  -4.268  0.00  0.00    +0.170 C 
ATOM     26  O   UNL     1       6.810  -1.570  -4.037  0.00  0.00    -0.292 OA
BRANCH  25  27
ATOM     27  C   UNL     1       6.484   0.647  -4.669  0.00  0.00    +0.018 A 
ATOM     28  C   UNL     1       5.565   1.669  -4.930  0.00  0.00    +0.011 A 
ATOM     29  C   UNL     1       6.016   2.917  -5.304  0.00  0.00    +0.001 A 
ATOM     30  C   UNL     1       7.373   3.160  -5.422  0.00  0.00    +0.000 A 
ATOM     31  C   UNL     1       8.289   2.154  -5.166  0.00  0.00    +0.001 A 
ATOM     32  C   UNL     1       7.854   0.902  -4.785  0.00  0.00    +0.011 A 
ENDBRANCH  25  27
ENDBRANCH   5  25
BRANCH   4  33
ATOM     33  O   UNL     1       5.016  -3.200  -3.375  0.00  0.00    -0.383 OA
ATOM     34  H   UNL     1       4.893  -4.157  -3.437  0.00  0.00    +0.211 HD
ENDBRANCH   4  33
TORSDOF 5
