REMARK  Name = ZINC38903781
REMARK  5 active torsions:
REMARK  status: ('A' for Active; 'I' for Inactive)
REMARK    1  A    between atoms: C_1  and  C_2
REMARK    2  A    between atoms: C_5  and  C_8
REMARK    3  A    between atoms: C_13  and  C_15
REMARK    4  A    between atoms: C_15  and  S_16
REMARK    5  A    between atoms: S_16  and  C_17
REMARK                            x       y       z     vdW  Elec       q    Type
REMARK                         _______ _______ _______ _____ _____    ______ ____
ROOT
ATOM      1  C   UNL     1       0.059  -4.255  -0.021  0.00  0.00    +0.080 A 
ATOM      2  C   UNL     1       0.069  -4.952   1.155  0.00  0.00    +0.076 A 
ATOM      3  S   UNL     1       0.090  -6.632   0.545  0.00  0.00    -0.060 S 
ATOM      4  C   UNL     1       0.084  -6.237  -1.198  0.00  0.00    +0.165 A 
ATOM      5  N   UNL     1       0.094  -7.092  -2.294  0.00  0.00    -0.264 N 
ATOM      6  C   UNL     1       0.111  -8.426  -2.107  0.00  0.00    +0.229 C 
ATOM      7  O   UNL     1       0.118  -8.881  -0.983  0.00  0.00    -0.275 OA
ATOM      8  N   UNL     1       0.062  -4.918  -1.169  0.00  0.00    -0.225 NA
ATOM      9  H   UNL     1       0.088  -6.728  -3.193  0.00  0.00    +0.157 HD
ENDROOT
BRANCH   1  14
ATOM     10  C   UNL     1      -0.018   1.503   0.010  0.00  0.00    +0.044 C 
ATOM     11  C   UNL     1       0.002  -0.004   0.002  0.00  0.00    -0.050 A 
ATOM     12  C   UNL     1       0.006  -0.686  -1.201  0.00  0.00    +0.004 A 
ATOM     13  C   UNL     1       0.024  -2.066  -1.215  0.00  0.00    +0.010 A 
ATOM     14  C   UNL     1       0.040  -2.772  -0.013  0.00  0.00    +0.001 A 
ATOM     15  C   UNL     1       0.036  -2.079   1.196  0.00  0.00    +0.010 A 
ATOM     16  C   UNL     1       0.023  -0.700   1.198  0.00  0.00    +0.004 A 
ENDBRANCH   1  14
BRANCH   6  17
ATOM     17  C   UNL     1       0.122  -9.353  -3.295  0.00  0.00    +0.170 C 
BRANCH  17  18
ATOM     18  S   UNL     1       0.145 -11.074  -2.720  0.00  0.00    -0.088 S 
BRANCH  18  19
ATOM     19  C   UNL     1       0.156 -12.048  -4.250  0.00  0.00    +0.323 C 
ATOM     20  N   UNL     1      -1.032 -11.736  -5.056  0.00  0.00    -0.298 N 
ATOM     21  C   UNL     1      -0.557 -11.221  -6.271  0.00  0.00    +0.073 A 
ATOM     22  C   UNL     1      -1.233 -10.767  -7.395  0.00  0.00    +0.027 A 
ATOM     23  C   UNL     1      -0.526 -10.298  -8.486  0.00  0.00    +0.002 A 
ATOM     24  C   UNL     1       0.856 -10.281  -8.459  0.00  0.00    +0.004 A 
ATOM     25  C   UNL     1       1.536 -10.732  -7.343  0.00  0.00    +0.047 A 
ATOM     26  C   UNL     1       0.834 -11.205  -6.242  0.00  0.00    +0.145 A 
ATOM     27  O   UNL     1       1.284 -11.692  -5.052  0.00  0.00    -0.460 OA
ATOM     28  H   UNL     1      -1.959 -11.862  -4.800  0.00  0.00    +0.150 HD
ENDBRANCH  18  19
ENDBRANCH  17  18
ENDBRANCH   6  17
TORSDOF 4
