REMARK  Name = ZINC39422374
REMARK  4 active torsions:
REMARK  status: ('A' for Active; 'I' for Inactive)
REMARK    1  A    between atoms: C_4  and  C_7
REMARK    2  A    between atoms: C_17  and  N_19
REMARK    3  A    between atoms: C_23  and  C_26
REMARK    4  A    between atoms: N_28  and  C_29
REMARK                            x       y       z     vdW  Elec       q    Type
REMARK                         _______ _______ _______ _____ _____    ______ ____
ROOT
ATOM      1  C   UNL     1       5.196  -2.343   0.231  0.00  0.00    -0.036 C 
ATOM      2  C   UNL     1       5.906  -3.008  -0.773  0.00  0.00    +0.000 A 
ATOM      3  C   UNL     1       7.303  -3.180  -0.675  0.00  0.00    +0.030 A 
ATOM      4  C   UNL     1       7.969  -3.832  -1.666  0.00  0.00    +0.042 A 
ATOM      5  C   UNL     1       7.299  -4.335  -2.780  0.00  0.00    +0.022 A 
ATOM      6  C   UNL     1       5.953  -4.199  -2.930  0.00  0.00    +0.025 A 
ATOM      7  C   UNL     1       5.199  -3.537  -1.945  0.00  0.00    +0.041 A 
ATOM      8  N   UNL     1       3.877  -3.405  -2.094  0.00  0.00    -0.286 N 
ATOM      9  C   UNL     1       3.102  -2.798  -1.217  0.00  0.00    +0.208 C 
ATOM     10  O   UNL     1       1.904  -2.715  -1.419  0.00  0.00    -0.277 OA
ATOM     11  C   UNL     1       3.697  -2.211   0.043  0.00  0.00    +0.052 C 
ATOM     12 CL   UNL     1       9.688  -4.041  -1.541  0.00  0.00    -0.084 Cl
ATOM     13  H   UNL     1       3.466  -3.776  -2.890  0.00  0.00    +0.155 HD
ENDROOT
BRANCH  11  14
ATOM     14  N   UNL     1       3.041  -2.844   1.195  0.00  0.00    +0.391 N 
ATOM     15  C   UNL     1       3.279  -4.292   1.157  0.00  0.00    -0.077 C 
ATOM     16  C   UNL     1       2.666  -4.945   2.398  0.00  0.00    -0.018 C 
ATOM     17  C   UNL     1       1.159  -4.674   2.420  0.00  0.00    +0.009 C 
ATOM     18  C   UNL     1       0.922  -3.161   2.384  0.00  0.00    +0.059 C 
ATOM     19  C   UNL     1       1.599  -2.574   1.144  0.00  0.00    -0.065 C 
ATOM     20  H   UNL     1       3.423  -2.464   2.048  0.00  0.00    -0.080 HD
BRANCH  18  21
ATOM     21  C   UNL     1      -0.558  -2.885   2.329  0.00  0.00    +0.219 C 
ATOM     22  O   UNL     1      -1.044  -2.376   1.341  0.00  0.00    -0.275 OA
ATOM     23  N   UNL     1      -1.343  -3.203   3.378  0.00  0.00    -0.285 N 
ATOM     24  H   UNL     1      -0.966  -3.664   4.143  0.00  0.00    +0.155 HD
BRANCH  23  25
ATOM     25  C   UNL     1      -2.701  -2.868   3.362  0.00  0.00    +0.033 A 
ATOM     26  C   UNL     1      -3.337  -2.485   4.537  0.00  0.00    +0.025 A 
ATOM     27  C   UNL     1      -4.678  -2.155   4.519  0.00  0.00    +0.022 A 
ATOM     28  C   UNL     1      -5.388  -2.205   3.332  0.00  0.00    +0.041 A 
ATOM     29  C   UNL     1      -4.757  -2.585   2.161  0.00  0.00    +0.022 A 
ATOM     30  C   UNL     1      -3.415  -2.911   2.172  0.00  0.00    +0.025 A 
ATOM     31 CL   UNL     1      -7.074  -1.789   3.313  0.00  0.00    -0.084 Cl
ENDBRANCH  23  25
ENDBRANCH  18  21
ENDBRANCH  11  14
BRANCH   1  35
ATOM     32  C   UNL     1       7.121  -0.796   3.616  0.00  0.00    +0.000 A 
ATOM     33  C   UNL     1       6.500   0.064   2.725  0.00  0.00    +0.001 A 
ATOM     34  C   UNL     1       5.864  -0.434   1.609  0.00  0.00    +0.008 A 
ATOM     35  C   UNL     1       5.848  -1.819   1.376  0.00  0.00    -0.022 A 
ATOM     36  C   UNL     1       6.481  -2.682   2.286  0.00  0.00    +0.008 A 
ATOM     37  C   UNL     1       7.110  -2.164   3.395  0.00  0.00    +0.001 A 
ENDBRANCH   1  35
TORSDOF 4
