REMARK  Name = ZINC24714208
REMARK  8 active torsions:
REMARK  status: ('A' for Active; 'I' for Inactive)
REMARK    1  A    between atoms: C_1  and  C_2
REMARK    2  A    between atoms: C_3  and  C_23
REMARK    3  A    between atoms: C_5  and  C_7
REMARK    4  A    between atoms: C_8  and  C_9
REMARK    5  A    between atoms: N_11  and  N_12
REMARK    6  A    between atoms: C_13  and  C_15
REMARK    7  A    between atoms: C_23  and  O_25
REMARK    8  A    between atoms: O_25  and  C_26
REMARK                            x       y       z     vdW  Elec       q    Type
REMARK                         _______ _______ _______ _____ _____    ______ ____
ROOT
ATOM      1  C   UNL     1      -1.187   1.624   0.017  0.00  0.00    +0.253 C 
ATOM      2  O   UNL     1      -1.204   2.841   0.023  0.00  0.00    -0.269 OA
ATOM      3  N   UNL     1      -0.011   0.966   0.007  0.00  0.00    -0.231 N 
ATOM      4  H   UNL     1       0.004  -0.134   0.006  0.00  0.00    +0.173 HD
ENDROOT
BRANCH   3   5
ATOM      5  N   UNL     1       1.193   1.683  -0.000  0.00  0.00    -0.230 N 
ATOM      6  C   UNL     1       2.369   1.025  -0.015  0.00  0.00    +0.262 C 
ATOM      7  O   UNL     1       2.385  -0.191  -0.022  0.00  0.00    -0.269 OA
ATOM      8  H   UNL     1       1.178   2.783   0.006  0.00  0.00    +0.173 HD
BRANCH   6   9
ATOM      9  C   UNL     1       3.638   1.781  -0.023  0.00  0.00    +0.058 A 
ATOM     10  C   UNL     1       3.623   3.177  -0.021  0.00  0.00    +0.034 A 
ATOM     11  C   UNL     1       4.812   3.877  -0.023  0.00  0.00    +0.042 A 
ATOM     12  C   UNL     1       6.020   3.198  -0.039  0.00  0.00    +0.021 A 
ATOM     13  C   UNL     1       6.042   1.816  -0.046  0.00  0.00    +0.022 A 
ATOM     14  C   UNL     1       4.859   1.102  -0.038  0.00  0.00    +0.053 A 
ATOM     15 CL   UNL     1       4.890  -0.633  -0.048  0.00  0.00    -0.083 Cl
ATOM     16 CL   UNL     1       4.795   5.613  -0.015  0.00  0.00    -0.084 Cl
ENDBRANCH   6   9
ENDBRANCH   3   5
BRANCH   1  18
ATOM     17  C   UNL     1      -3.587   1.561   0.028  0.00  0.00    +0.051 C 
ATOM     18  C   UNL     1      -2.404   0.899   0.018  0.00  0.00    +0.072 C 
BRANCH  17  23
ATOM     19  C   UNL     1      -6.745  -2.263   0.020  0.00  0.00    +0.087 C 
ATOM     20  C   UNL     1      -6.210  -0.855   0.026  0.00  0.00    +0.117 A 
ATOM     21  C   UNL     1      -6.969   0.297   0.036  0.00  0.00    +0.100 A 
ATOM     22  C   UNL     1      -6.056   1.380   0.038  0.00  0.00    +0.064 A 
ATOM     23  C   UNL     1      -4.805   0.835   0.029  0.00  0.00    +0.129 A 
ATOM     24  O   UNL     1      -4.920  -0.509   0.017  0.00  0.00    -0.460 OA
BRANCH  21  25
ATOM     25  C   UNL     1      -8.440   0.383   0.043  0.00  0.00    +0.342 C 
ATOM     26  O   UNL     1      -9.109  -0.631   0.040  0.00  0.00    -0.245 OA
BRANCH  25  27
ATOM     27  O   UNL     1      -9.044   1.588   0.053  0.00  0.00    -0.464 OA
ATOM     28  C   UNL     1     -10.496   1.597   0.059  0.00  0.00    +0.280 C 
ENDBRANCH  25  27
ENDBRANCH  21  25
ENDBRANCH  17  23
ENDBRANCH   1  18
TORSDOF 6
