REMARK  Name = ZINC15870342
REMARK  9 active torsions:
REMARK  status: ('A' for Active; 'I' for Inactive)
REMARK    1  A    between atoms: C_1  and  C_2
REMARK    2  A    between atoms: C_5  and  N_27
REMARK    3  A    between atoms: C_6  and  S_8
REMARK    4  A    between atoms: S_8  and  N_11
REMARK    5  A    between atoms: N_11  and  C_12
REMARK    6  A    between atoms: C_22  and  C_24
REMARK    7  A    between atoms: C_24  and  C_25
REMARK    8  A    between atoms: C_24  and  C_26
REMARK    9  A    between atoms: C_28  and  C_30
REMARK                            x       y       z     vdW  Elec       q    Type
REMARK                         _______ _______ _______ _____ _____    ______ ____
ROOT
ATOM      1  N   UNL     1      -1.639  -1.699  -1.349  0.00  0.00    -0.216 N 
ATOM      2  H   UNL     1      -2.219  -1.282  -2.006  0.00  0.00    +0.174 HD
ENDROOT
BRANCH   1   3
ATOM      3  C   UNL     1      -0.762  -2.718  -1.737  0.00  0.00    +0.050 A 
ATOM      4  C   UNL     1       0.563  -2.678  -1.308  0.00  0.00    +0.026 A 
ATOM      5  C   UNL     1       1.427  -3.688  -1.688  0.00  0.00    +0.019 A 
ATOM      6  C   UNL     1       0.971  -4.707  -2.487  0.00  0.00    +0.041 A 
ATOM      7  C   UNL     1      -0.363  -4.780  -2.948  0.00  0.00    +0.082 A 
ATOM      8  C   UNL     1      -1.225  -3.736  -2.539  0.00  0.00    +0.053 A 
ATOM      9  N   UNL     1      -0.655  -5.845  -3.726  0.00  0.00    -0.225 NA
ATOM     10  C   UNL     1       0.236  -6.756  -4.039  0.00  0.00    +0.165 A 
ATOM     11  S   UNL     1       1.699  -6.162  -3.202  0.00  0.00    -0.052 S 
ATOM     12  N   UNL     1       0.082  -7.890  -4.820  0.00  0.00    -0.264 N 
ATOM     13  C   UNL     1       1.130  -8.713  -5.027  0.00  0.00    +0.221 C 
ATOM     14  O   UNL     1       2.207  -8.460  -4.531  0.00  0.00    -0.275 OA
ATOM     15  H   UNL     1      -0.779  -8.092  -5.218  0.00  0.00    +0.157 HD
BRANCH  13  16
ATOM     16  C   UNL     1       0.962  -9.946  -5.877  0.00  0.00    +0.069 C 
ATOM     17  C   UNL     1       2.292 -10.699  -5.951  0.00  0.00    +0.017 C 
ATOM     18  C   UNL     1      -0.102 -10.853  -5.256  0.00  0.00    +0.017 C 
ENDBRANCH  13  16
ENDBRANCH   1   3
BRANCH   1  19
ATOM     19  S   UNL     1      -1.687  -1.204   0.230  0.00  0.00    +0.074 S 
ATOM     20  O   UNL     1      -1.741  -2.382   1.023  0.00  0.00    -0.150 OA
ATOM     21  O   UNL     1      -2.677  -0.187   0.307  0.00  0.00    -0.150 OA
BRANCH  19  27
ATOM     22  C   UNL     1       2.850  -0.983   2.814  0.00  0.00    +0.044 C 
ATOM     23  C   UNL     1       1.922  -0.377   1.792  0.00  0.00    -0.048 A 
ATOM     24  C   UNL     1       2.284   0.783   1.132  0.00  0.00    +0.005 A 
ATOM     25  C   UNL     1       1.436   1.340   0.196  0.00  0.00    +0.025 A 
ATOM     26  C   UNL     1       0.218   0.734  -0.084  0.00  0.00    +0.060 A 
ATOM     27  C   UNL     1      -0.143  -0.431   0.581  0.00  0.00    +0.130 A 
ATOM     28  C   UNL     1       0.710  -0.983   1.517  0.00  0.00    +0.034 A 
BRANCH  26  29
ATOM     29  N   UNL     1      -0.644   1.295  -1.032  0.00  0.00    -0.284 N 
ATOM     30  C   UNL     1      -0.594   2.618  -1.289  0.00  0.00    +0.214 C 
ATOM     31  O   UNL     1       0.251   3.307  -0.757  0.00  0.00    -0.276 OA
ATOM     32  C   UNL     1      -1.587   3.239  -2.237  0.00  0.00    +0.109 C 
ATOM     33  H   UNL     1      -1.277   0.733  -1.506  0.00  0.00    +0.155 HD
ENDBRANCH  26  29
ENDBRANCH  19  27
ENDBRANCH   1  19
TORSDOF 5
