REMARK  Name = ZINC13095814
REMARK  5 active torsions:
REMARK  status: ('A' for Active; 'I' for Inactive)
REMARK    1  A    between atoms: C_8  and  C_10
REMARK    2  A    between atoms: C_13  and  N_16
REMARK    3  A    between atoms: C_17  and  C_19
REMARK    4  A    between atoms: C_19  and  N_20
REMARK    5  A    between atoms: C_21  and  C_23
REMARK                            x       y       z     vdW  Elec       q    Type
REMARK                         _______ _______ _______ _____ _____    ______ ____
ROOT
ATOM      1  C   UNL     1      -3.570   3.130   0.161  0.00  0.00    +0.007 A 
ATOM      2  C   UNL     1      -3.595   1.736   0.239  0.00  0.00    +0.012 A 
ATOM      3  C   UNL     1      -2.417   1.023   0.187  0.00  0.00    +0.024 A 
ATOM      4  C   UNL     1      -1.204   1.691   0.059  0.00  0.00    +0.033 A 
ATOM      5  C   UNL     1      -1.175   3.079  -0.013  0.00  0.00    +0.024 A 
ATOM      6  C   UNL     1      -2.350   3.797   0.032  0.00  0.00    +0.012 A 
ENDROOT
BRANCH   1  14
ATOM      7  C   UNL     1      -9.460   4.887   0.518  0.00  0.00    +0.002 A 
ATOM      8  C   UNL     1      -9.147   6.236   0.421  0.00  0.00    +0.001 A 
ATOM      9  C   UNL     1      -7.824   6.617   0.299  0.00  0.00    +0.017 A 
ATOM     10  C   UNL     1      -6.844   5.656   0.276  0.00  0.00    +0.040 A 
ATOM     11  C   UNL     1      -7.130   4.274   0.373  0.00  0.00    +0.079 A 
ATOM     12  C   UNL     1      -8.498   3.928   0.496  0.00  0.00    +0.029 A 
ATOM     13  N   UNL     1      -6.064   3.451   0.330  0.00  0.00    -0.239 NA
ATOM     14  C   UNL     1      -4.832   3.897   0.217  0.00  0.00    +0.109 A 
ATOM     15  S   UNL     1      -5.072   5.666   0.139  0.00  0.00    -0.067 S 
ENDBRANCH   1  14
BRANCH   4  16
ATOM     16  N   UNL     1      -0.011   0.966   0.007  0.00  0.00    -0.284 N 
ATOM     17  C   UNL     1       0.022  -0.235  -0.605  0.00  0.00    +0.234 C 
ATOM     18  O   UNL     1      -1.000  -0.721  -1.042  0.00  0.00    -0.274 OA
ATOM     19  H   UNL     1       0.792   1.324   0.415  0.00  0.00    +0.155 HD
BRANCH  17  20
ATOM     20  C   UNL     1       1.328  -0.973  -0.746  0.00  0.00    +0.200 C 
BRANCH  20  21
ATOM     21  N   UNL     1       1.099  -2.242  -1.441  0.00  0.00    -0.300 N 
ATOM     22  C   UNL     1       2.131  -3.074  -1.681  0.00  0.00    +0.280 C 
ATOM     23  O   UNL     1       3.254  -2.772  -1.320  0.00  0.00    -0.267 OA
ATOM     24  H   UNL     1       0.205  -2.483  -1.728  0.00  0.00    +0.150 HD
BRANCH  22  25
ATOM     25  C   UNL     1       1.903  -4.344  -2.376  0.00  0.00    +0.191 A 
ATOM     26  C   UNL     1       2.855  -5.272  -2.686  0.00  0.00    +0.056 A 
ATOM     27  C   UNL     1       2.197  -6.323  -3.342  0.00  0.00    +0.058 A 
ATOM     28  C   UNL     1       0.887  -5.991  -3.411  0.00  0.00    +0.171 A 
ATOM     29  O   UNL     1       0.714  -4.798  -2.828  0.00  0.00    -0.444 OA
ATOM     30 BR   UNL     1      -0.475  -7.040  -4.199  0.00  0.00    -0.008 Br
ENDBRANCH  22  25
ENDBRANCH  20  21
ENDBRANCH  17  20
ENDBRANCH   4  16
TORSDOF 5
