REMARK  Name = ZINC50704164
REMARK  3 active torsions:
REMARK  status: ('A' for Active; 'I' for Inactive)
REMARK    1  A    between atoms: C_3  and  N_17
REMARK    2  A    between atoms: C_4  and  C_8
REMARK    3  A    between atoms: C_6  and  N_7
REMARK                            x       y       z     vdW  Elec       q    Type
REMARK                         _______ _______ _______ _____ _____    ______ ____
ROOT
ATOM      1  C   UNL     1       0.002   1.416   0.040  0.00  0.00    +0.025 A 
ATOM      2  C   UNL     1       1.205   2.097   0.041  0.00  0.00    +0.035 A 
ATOM      3  C   UNL     1       2.396   1.403  -0.005  0.00  0.00    +0.138 A 
ATOM      4  C   UNL     1       2.389   0.007  -0.052  0.00  0.00    +0.069 A 
ATOM      5  C   UNL     1       1.176  -0.680  -0.052  0.00  0.00    +0.038 A 
ATOM      6  C   UNL     1      -0.016   0.027  -0.006  0.00  0.00    +0.025 A 
ENDROOT
BRANCH   4   7
ATOM      7  C   UNL     1       3.664  -0.739  -0.102  0.00  0.00    +0.252 C 
ATOM      8  O   UNL     1       4.476  -0.499  -0.975  0.00  0.00    -0.270 OA
ATOM      9  N   UNL     1       3.927  -1.686   0.821  0.00  0.00    -0.261 N 
ATOM     10  C   UNL     1       5.125  -2.388   0.774  0.00  0.00    +0.166 A 
ATOM     11  N   UNL     1       6.114  -2.261  -0.085  0.00  0.00    -0.232 NA
ATOM     12  C   UNL     1       7.198  -3.010   0.006  0.00  0.00    +0.136 A 
ATOM     13  C   UNL     1       7.241  -3.909   1.021  0.00  0.00    +0.076 A 
ATOM     14  S   UNL     1       5.668  -3.601   1.807  0.00  0.00    -0.045 S 
ATOM     15 BR   UNL     1       8.597  -5.145   1.480  0.00  0.00    -0.041 Br
ATOM     16  H   UNL     1       3.280  -1.878   1.517  0.00  0.00    +0.157 HD
ENDBRANCH   4   7
BRANCH   6  17
ATOM     17  N   UNL     1      -1.235  -0.657  -0.006  0.00  0.00    -0.358 N 
ATOM     18  H   UNL     1      -2.068  -0.162   0.026  0.00  0.00    +0.142 HD
ATOM     19  H   UNL     1      -1.247  -1.626  -0.038  0.00  0.00    +0.142 HD
ENDBRANCH   6  17
BRANCH   3  20
ATOM     20  N   UNL     1       3.681   2.137  -0.004  0.00  0.00    +0.057 N 
ATOM     21  O   UNL     1       3.688   3.343  -0.083  0.00  0.00    -0.126 OA
ATOM     22  O   UNL     1       4.724   1.530   0.076  0.00  0.00    -0.126 OA
ENDBRANCH   3  20
TORSDOF 3
