REMARK  Name = ZINC05630487
REMARK  8 active torsions:
REMARK  status: ('A' for Active; 'I' for Inactive)
REMARK    1  A    between atoms: C_1  and  C_2
REMARK    2  A    between atoms: C_2  and  C_4
REMARK    3  A    between atoms: C_2  and  S_11
REMARK    4  A    between atoms: N_9  and  C_10
REMARK    5  A    between atoms: S_11  and  C_12
REMARK    6  A    between atoms: C_15  and  C_24
REMARK    7  A    between atoms: N_16  and  C_17
REMARK    8  A    between atoms: C_17  and  C_18
REMARK                            x       y       z     vdW  Elec       q    Type
REMARK                         _______ _______ _______ _____ _____    ______ ____
ROOT
ATOM      1  C   UNL     1      -1.152   2.679  -1.608  0.00  0.00    +0.193 A 
ATOM      2  N   UNL     1      -2.070   2.575  -2.543  0.00  0.00    -0.122 NA
ATOM      3  N   UNL     1      -2.519   1.371  -2.588  0.00  0.00    -0.128 NA
ATOM      4  C   UNL     1      -1.911   0.632  -1.690  0.00  0.00    +0.165 A 
ATOM      5  N   UNL     1      -1.022   1.448  -1.030  0.00  0.00    -0.300 N 
ENDROOT
BRANCH   4   6
ATOM      6  C   UNL     1      -2.143  -0.805  -1.432  0.00  0.00    +0.019 A 
ATOM      7  C   UNL     1      -1.715  -1.380  -0.235  0.00  0.00    +0.014 A 
ATOM      8  C   UNL     1      -1.938  -2.720   0.003  0.00  0.00    +0.039 A 
ATOM      9  C   UNL     1      -2.576  -3.498  -0.951  0.00  0.00    +0.123 A 
ATOM     10  C   UNL     1      -2.998  -2.934  -2.144  0.00  0.00    +0.039 A 
ATOM     11  C   UNL     1      -2.785  -1.593  -2.389  0.00  0.00    +0.014 A 
ATOM     12  F   UNL     1      -2.787  -4.812  -0.716  0.00  0.00    -0.205 F 
ENDBRANCH   4   6
BRANCH   1  13
ATOM     13  S   UNL     1      -0.256   4.134  -1.180  0.00  0.00    -0.074 S 
BRANCH  13  15
ATOM     14  C   UNL     1      -0.612   4.880  -3.784  0.00  0.00    +0.029 C 
ATOM     15  C   UNL     1      -0.975   5.304  -2.360  0.00  0.00    +0.137 C 
BRANCH  15  16
ATOM     16  C   UNL     1      -0.432   6.684  -2.093  0.00  0.00    +0.233 C 
ATOM     17  O   UNL     1       0.643   6.818  -1.549  0.00  0.00    -0.274 OA
ATOM     18  N   UNL     1      -1.142   7.770  -2.459  0.00  0.00    -0.239 N 
ATOM     19  C   UNL     1      -0.656   9.004  -2.220  0.00  0.00    +0.306 C 
ATOM     20  O   UNL     1       0.421   9.138  -1.675  0.00  0.00    -0.252 OA
ATOM     21  N   UNL     1      -1.366  10.090  -2.586  0.00  0.00    -0.302 N 
ATOM     22  C   UNL     1      -0.839  11.432  -2.327  0.00  0.00    +0.129 C 
ATOM     23  H   UNL     1      -2.002   7.663  -2.894  0.00  0.00    +0.159 HD
ATOM     24  H   UNL     1      -2.227   9.983  -3.022  0.00  0.00    +0.150 HD
ENDBRANCH  15  16
ENDBRANCH  13  15
ENDBRANCH   1  13
BRANCH   5  25
ATOM     25  C   UNL     1      -0.118   1.073   0.061  0.00  0.00    +0.157 C 
BRANCH  25  26
ATOM     26  C   UNL     1      -0.756   1.444   1.401  0.00  0.00    +0.138 C 
ATOM     27  C   UNL     1       0.192   1.059   2.557  0.00  0.00    +0.035 C 
ATOM     28  C   UNL     1      -0.795   0.520   3.628  0.00  0.00    +0.031 C 
ATOM     29  C   UNL     1      -1.870  -0.142   2.730  0.00  0.00    +0.160 C 
ATOM     30  O   UNL     1      -1.974   0.711   1.579  0.00  0.00    -0.375 OA
ENDBRANCH  25  26
ENDBRANCH   5  25
TORSDOF 6
