REMARK  Name = ZINC63375941
REMARK  8 active torsions:
REMARK  status: ('A' for Active; 'I' for Inactive)
REMARK    1  A    between atoms: C_1  and  C_2
REMARK    2  A    between atoms: C_2  and  C_3
REMARK    3  A    between atoms: C_2  and  C_4
REMARK    4  A    between atoms: C_7  and  C_10
REMARK    5  A    between atoms: N_28  and  C_31
REMARK    6  A    between atoms: C_36  and  C_37
REMARK    7  A    between atoms: N_39  and  C_40
REMARK    8  A    between atoms: C_40  and  C_41
REMARK                            x       y       z     vdW  Elec       q    Type
REMARK                         _______ _______ _______ _____ _____    ______ ____
ROOT
ATOM      1  C   UNL     1      -5.419  -2.005   0.043  0.00  0.00    +0.135 C 
ATOM      2  C   UNL     1      -6.294  -1.163  -0.895  0.00  0.00    +0.131 C 
ATOM      3  C   UNL     1      -5.954  -1.578  -2.320  0.00  0.00    -0.034 C 
ATOM      4  C   UNL     1      -5.567  -0.474  -2.951  0.00  0.00    -0.001 A 
ATOM      5  C   UNL     1      -5.176  -0.233  -4.349  0.00  0.00    +0.010 A 
ATOM      6  C   UNL     1      -4.817   1.041  -4.659  0.00  0.00    +0.001 A 
ATOM      7  C   UNL     1      -4.810   2.086  -3.730  0.00  0.00    +0.002 A 
ATOM      8  C   UNL     1      -5.160   1.955  -2.425  0.00  0.00    +0.026 A 
ATOM      9  C   UNL     1      -5.560   0.662  -1.980  0.00  0.00    +0.043 A 
ATOM     10  N   UNL     1      -5.959   0.261  -0.798  0.00  0.00    -0.375 N 
ATOM     11  C   UNL     1      -6.013  -3.010  -2.799  0.00  0.00    +0.065 C 
ATOM     12  C   UNL     1      -6.297  -3.874  -1.559  0.00  0.00    +0.169 C 
ATOM     13  N   UNL     1      -5.445  -3.386  -0.454  0.00  0.00    -0.264 N 
ATOM     14  C   UNL     1      -4.713  -4.428  -0.037  0.00  0.00    +0.317 C 
ATOM     15  O   UNL     1      -3.984  -4.399   0.934  0.00  0.00    -0.252 OA
ATOM     16  N   UNL     1      -4.879  -5.506  -0.816  0.00  0.00    -0.192 N 
ATOM     17  C   UNL     1      -5.816  -5.289  -1.797  0.00  0.00    +0.248 C 
ATOM     18  O   UNL     1      -6.181  -6.050  -2.667  0.00  0.00    -0.273 OA
ATOM     19  H   UNL     1      -6.020   0.804   0.004  0.00  0.00    +0.160 HD
ENDROOT
BRANCH   1  23
ATOM     20  C   UNL     1      -1.412  -0.526   0.013  0.00  0.00    -0.045 A 
ATOM     21  C   UNL     1      -2.259  -0.204   1.056  0.00  0.00    +0.004 A 
ATOM     22  C   UNL     1      -3.556  -0.683   1.066  0.00  0.00    +0.006 A 
ATOM     23  C   UNL     1      -4.006  -1.482   0.032  0.00  0.00    -0.025 A 
ATOM     24  C   UNL     1      -3.159  -1.803  -1.012  0.00  0.00    +0.006 A 
ATOM     25  C   UNL     1      -1.863  -1.321  -1.024  0.00  0.00    +0.004 A 
BRANCH  20  27
ATOM     26  C   UNL     1      -0.019   1.526   0.010  0.00  0.00    +0.012 C 
ATOM     27  C   UNL     1       0.002  -0.004   0.002  0.00  0.00    +0.013 C 
ATOM     28  C   UNL     1       0.742  -0.511   1.242  0.00  0.00    +0.012 C 
ENDBRANCH  20  27
ENDBRANCH   1  23
BRANCH  16  29
ATOM     29  C   UNL     1      -4.190  -6.709  -0.647  0.00  0.00    +0.058 A 
ATOM     30  C   UNL     1      -4.716  -7.706   0.162  0.00  0.00    +0.025 A 
ATOM     31  C   UNL     1      -4.034  -8.894   0.328  0.00  0.00    +0.002 A 
ATOM     32  C   UNL     1      -2.822  -9.102  -0.310  0.00  0.00    +0.001 A 
ATOM     33  C   UNL     1      -2.284  -8.122  -1.117  0.00  0.00    +0.015 A 
ATOM     34  C   UNL     1      -2.966  -6.917  -1.299  0.00  0.00    +0.059 A 
BRANCH  34  35
ATOM     35  C   UNL     1      -2.399  -5.867  -2.166  0.00  0.00    +0.246 C 
ATOM     36  O   UNL     1      -2.993  -4.817  -2.317  0.00  0.00    -0.270 OA
ATOM     37  N   UNL     1      -1.222  -6.071  -2.791  0.00  0.00    -0.308 N 
ATOM     38  H   UNL     1      -0.748  -6.909  -2.670  0.00  0.00    +0.149 HD
BRANCH  37  39
ATOM     39  C   UNL     1      -0.659  -5.028  -3.652  0.00  0.00    +0.131 C 
BRANCH  39  40
ATOM     40  C   UNL     1       0.651  -5.503  -4.226  0.00  0.00    -0.016 C 
ATOM     41  C   UNL     1       0.836  -5.506  -5.522  0.00  0.00    +0.005 C 
ENDBRANCH  39  40
ENDBRANCH  37  39
ENDBRANCH  34  35
ENDBRANCH  16  29
TORSDOF 6
