REMARK  Name = ZINC33636126
REMARK  5 active torsions:
REMARK  status: ('A' for Active; 'I' for Inactive)
REMARK    1  A    between atoms: C_6  and  C_7
REMARK    2  A    between atoms: C_7  and  C_8
REMARK    3  A    between atoms: C_8  and  N_9
REMARK    4  A    between atoms: C_10  and  C_12
REMARK    5  A    between atoms: C_15  and  C_17
REMARK                            x       y       z     vdW  Elec       q    Type
REMARK                         _______ _______ _______ _____ _____    ______ ____
ROOT
ATOM      1  N   UNL     1       4.200   0.090  -1.479  0.00  0.00    -0.310 N 
ATOM      2  C   UNL     1       4.777  -0.233  -2.653  0.00  0.00    +0.266 C 
ATOM      3  O   UNL     1       4.237   0.069  -3.700  0.00  0.00    -0.268 OA
ATOM      4  H   UNL     1       4.689  -0.184  -0.532  0.00  0.00    +0.149 HD
ENDROOT
BRANCH   2   5
ATOM      5  C   UNL     1       6.063  -0.953  -2.669  0.00  0.00    +0.163 A 
ATOM      6  C   UNL     1       6.756  -1.348  -3.772  0.00  0.00    +0.230 A 
ATOM      7  O   UNL     1       7.867  -1.963  -3.337  0.00  0.00    -0.449 OA
ATOM      8  C   UNL     1       7.854  -1.955  -1.997  0.00  0.00    +0.182 A 
ATOM      9  N   UNL     1       6.779  -1.354  -1.583  0.00  0.00    -0.210 NA
BRANCH   8  10
ATOM     10  C   UNL     1       8.917  -2.551  -1.110  0.00  0.00    +0.016 C 
ATOM     11  C   UNL     1      10.172  -1.653  -1.120  0.00  0.00    -0.008 C 
ATOM     12  C   UNL     1      11.335  -2.679  -1.107  0.00  0.00    -0.020 C 
ATOM     13  C   UNL     1      10.755  -3.821  -1.978  0.00  0.00    -0.082 C 
ATOM     14  N   UNL     1       9.320  -3.871  -1.628  0.00  0.00    +0.387 N 
ATOM     15  H   UNL     1       9.148  -4.636  -0.856  0.00  0.00    -0.085 HD
ATOM     16  H   UNL     1       8.725  -4.112  -2.522  0.00  0.00    -0.085 HD
ENDBRANCH   8  10
ENDBRANCH   2   5
BRANCH   1  17
ATOM     17  C   UNL     1       2.922   0.805  -1.463  0.00  0.00    +0.109 C 
BRANCH  17  18
ATOM     18  C   UNL     1       2.490   1.047  -0.016  0.00  0.00    +0.054 C 
BRANCH  18  24
ATOM     19  C   UNL     1      -0.013   1.076   0.008  0.00  0.00    +0.005 A 
ATOM     20  C   UNL     1      -1.219   1.750   0.017  0.00  0.00    +0.015 A 
ATOM     21  C   UNL     1      -1.238   3.134   0.029  0.00  0.00    +0.018 A 
ATOM     22  C   UNL     1      -0.049   3.841   0.022  0.00  0.00    +0.015 A 
ATOM     23  C   UNL     1       1.157   3.165   0.008  0.00  0.00    +0.005 A 
ATOM     24  C   UNL     1       1.175   1.783   0.000  0.00  0.00    -0.046 A 
ATOM     25 BR   UNL     1      -2.888   4.057   0.049  0.00  0.00    -0.050 Br
ENDBRANCH  18  24
ENDBRANCH  17  18
ENDBRANCH   1  17
TORSDOF 5
