REMARK  Name = ZINC00835156
REMARK  7 active torsions:
REMARK  status: ('A' for Active; 'I' for Inactive)
REMARK    1  A    between atoms: C_4  and  S_7
REMARK    2  A    between atoms: S_7  and  N_10
REMARK    3  A    between atoms: N_10  and  C_11
REMARK    4  A    between atoms: N_10  and  C_22
REMARK    5  A    between atoms: C_11  and  C_12
REMARK    6  A    between atoms: N_14  and  C_15
REMARK    7  A    between atoms: C_26  and  N_28
REMARK                            x       y       z     vdW  Elec       q    Type
REMARK                         _______ _______ _______ _____ _____    ______ ____
ROOT
ATOM      1  N   UNL     1       4.276  -0.784  -1.364  0.00  0.00    -0.194 N 
ENDROOT
BRANCH   1   2
ATOM      2  C   UNL     1       3.678  -1.998  -1.709  0.00  0.00    +0.054 A 
ATOM      3  C   UNL     1       2.856  -2.077  -2.827  0.00  0.00    +0.025 A 
ATOM      4  C   UNL     1       2.271  -3.280  -3.167  0.00  0.00    +0.004 A 
ATOM      5  C   UNL     1       2.493  -4.403  -2.392  0.00  0.00    +0.033 A 
ATOM      6  C   UNL     1       3.306  -4.327  -1.276  0.00  0.00    +0.128 A 
ATOM      7  C   UNL     1       3.899  -3.128  -0.932  0.00  0.00    +0.057 A 
BRANCH   6   8
ATOM      8  N   UNL     1       3.540  -5.532  -0.449  0.00  0.00    +0.056 N 
ATOM      9  O   UNL     1       4.256  -5.465   0.534  0.00  0.00    -0.126 OA
ATOM     10  O   UNL     1       3.018  -6.589  -0.751  0.00  0.00    -0.126 OA
ENDBRANCH   6   8
ENDBRANCH   1   2
BRANCH   1  11
ATOM     11  S   UNL     1       3.964  -0.096   0.110  0.00  0.00    +0.075 S 
ATOM     12  O   UNL     1       5.119   0.652   0.462  0.00  0.00    -0.150 OA
ATOM     13  O   UNL     1       3.443  -1.128   0.937  0.00  0.00    -0.150 OA
BRANCH  11  17
ATOM     14  C   UNL     1       0.619   2.894  -0.490  0.00  0.00    +0.000 A 
ATOM     15  C   UNL     1       1.935   3.293  -0.626  0.00  0.00    +0.002 A 
ATOM     16  C   UNL     1       2.957   2.380  -0.444  0.00  0.00    +0.029 A 
ATOM     17  C   UNL     1       2.662   1.068  -0.123  0.00  0.00    +0.109 A 
ATOM     18  C   UNL     1       1.345   0.669   0.013  0.00  0.00    +0.029 A 
ATOM     19  C   UNL     1       0.324   1.582  -0.170  0.00  0.00    +0.002 A 
ENDBRANCH  11  17
ENDBRANCH   1  11
BRANCH   1  20
ATOM     20  C   UNL     1       5.179  -0.118  -2.306  0.00  0.00    +0.227 C 
BRANCH  20  21
ATOM     21  C   UNL     1       6.569  -0.680  -2.153  0.00  0.00    +0.236 C 
ATOM     22  O   UNL     1       6.783  -1.551  -1.336  0.00  0.00    -0.274 OA
ATOM     23  N   UNL     1       7.572  -0.215  -2.922  0.00  0.00    -0.284 N 
ATOM     24  H   UNL     1       7.417   0.529  -3.525  0.00  0.00    +0.155 HD
BRANCH  23  25
ATOM     25  C   UNL     1       8.839  -0.806  -2.852  0.00  0.00    +0.033 A 
ATOM     26  C   UNL     1       9.978  -0.035  -3.043  0.00  0.00    +0.024 A 
ATOM     27  C   UNL     1      11.227  -0.619  -2.966  0.00  0.00    +0.016 A 
ATOM     28  C   UNL     1      11.344  -1.973  -2.711  0.00  0.00    +0.013 A 
ATOM     29  C   UNL     1      10.211  -2.745  -2.526  0.00  0.00    +0.016 A 
ATOM     30  C   UNL     1       8.960  -2.165  -2.595  0.00  0.00    +0.024 A 
ATOM     31  I   UNL     1      13.241  -2.857  -2.605  0.00  0.00    -0.044 I 
ENDBRANCH  23  25
ENDBRANCH  20  21
ENDBRANCH   1  20
TORSDOF 7
