REMARK  Name = ZINC42542252
REMARK  7 active torsions:
REMARK  status: ('A' for Active; 'I' for Inactive)
REMARK    1  A    between atoms: C_1  and  C_2
REMARK    2  A    between atoms: C_5  and  N_23
REMARK    3  A    between atoms: C_7  and  N_8
REMARK    4  A    between atoms: C_9  and  C_11
REMARK    5  A    between atoms: C_11  and  C_13
REMARK    6  A    between atoms: C_11  and  N_14
REMARK    7  A    between atoms: N_14  and  C_15
REMARK                            x       y       z     vdW  Elec       q    Type
REMARK                         _______ _______ _______ _____ _____    ______ ____
ROOT
ATOM      1  N   UNL     1       0.025  -0.015   2.417  0.00  0.00    -0.284 N 
ATOM      2  C   UNL     1      -0.057  -0.694   3.578  0.00  0.00    +0.237 C 
ATOM      3  O   UNL     1      -0.040  -1.907   3.573  0.00  0.00    -0.273 OA
ATOM      4  H   UNL     1       0.077   0.954   2.425  0.00  0.00    +0.155 HD
ENDROOT
BRANCH   1  11
ATOM      5  C   UNL     1      -1.265   1.182   0.181  0.00  0.00    +0.045 C 
ATOM      6  C   UNL     1      -0.584  -0.158   0.084  0.00  0.00    -0.029 A 
ATOM      7  C   UNL     1      -0.569  -0.841  -1.117  0.00  0.00    +0.007 A 
ATOM      8  C   UNL     1       0.056  -2.071  -1.206  0.00  0.00    +0.033 A 
ATOM      9  C   UNL     1       0.667  -2.622  -0.095  0.00  0.00    +0.128 A 
ATOM     10  C   UNL     1       0.656  -1.944   1.109  0.00  0.00    +0.056 A 
ATOM     11  C   UNL     1       0.034  -0.706   1.201  0.00  0.00    +0.039 A 
BRANCH   9  12
ATOM     12  N   UNL     1       1.335  -3.940  -0.195  0.00  0.00    +0.056 N 
ATOM     13  O   UNL     1       1.345  -4.534  -1.248  0.00  0.00    -0.126 OA
ATOM     14  O   UNL     1       1.869  -4.422   0.776  0.00  0.00    -0.126 OA
ENDBRANCH   9  12
ENDBRANCH   1  11
BRANCH   2  15
ATOM     15  C   UNL     1      -0.169   0.052   4.882  0.00  0.00    +0.154 C 
ATOM     16  C   UNL     1       1.058   0.948   5.064  0.00  0.00    +0.038 C 
BRANCH  15  17
ATOM     17  N   UNL     1      -0.242  -0.905   5.988  0.00  0.00    -0.333 N 
ATOM     18  H   UNL     1       0.134  -1.794   5.887  0.00  0.00    +0.147 HD
BRANCH  17  19
ATOM     19  C   UNL     1      -0.854  -0.539   7.189  0.00  0.00    +0.033 A 
ATOM     20  C   UNL     1      -1.397   0.731   7.334  0.00  0.00    +0.061 A 
ATOM     21  C   UNL     1      -2.003   1.091   8.525  0.00  0.00    +0.128 A 
ATOM     22  C   UNL     1      -2.066   0.187   9.572  0.00  0.00    +0.076 A 
ATOM     23  C   UNL     1      -1.524  -1.079   9.430  0.00  0.00    +0.128 A 
ATOM     24  C   UNL     1      -0.924  -1.446   8.239  0.00  0.00    +0.061 A 
ATOM     25  F   UNL     1      -1.587  -1.959  10.454  0.00  0.00    -0.205 F 
ATOM     26  F   UNL     1      -2.532   2.326   8.666  0.00  0.00    -0.205 F 
ENDBRANCH  17  19
ENDBRANCH  15  17
ENDBRANCH   2  15
TORSDOF 5
