REMARK  Name = ZINC48248244
REMARK  6 active torsions:
REMARK  status: ('A' for Active; 'I' for Inactive)
REMARK    1  A    between atoms: C_1  and  C_2
REMARK    2  A    between atoms: N_5  and  C_9
REMARK    3  A    between atoms: C_9  and  C_11
REMARK    4  A    between atoms: C_9  and  C_12
REMARK    5  A    between atoms: C_12  and  C_13
REMARK    6  A    between atoms: C_13  and  N_15
REMARK                            x       y       z     vdW  Elec       q    Type
REMARK                         _______ _______ _______ _____ _____    ______ ____
ROOT
ATOM      1  C   UNL     1       1.439  -2.486  -2.440  0.00  0.00    +0.060 C 
ATOM      2  C   UNL     1       2.925  -2.122  -2.438  0.00  0.00    +0.024 C 
ENDROOT
BRANCH   1   6
ATOM      3  C   UNL     1      -0.019   1.526   0.010  0.00  0.00    +0.039 C 
ATOM      4  C   UNL     1       0.002  -0.004   0.002  0.00  0.00    +0.129 C 
ATOM      5  C   UNL     1       0.720  -0.499  -1.256  0.00  0.00    +0.116 C 
ATOM      6  N   UNL     1       0.805  -1.966  -1.221  0.00  0.00    -0.295 NA
ATOM      7  C   UNL     1       1.523  -2.417  -0.020  0.00  0.00    +0.113 C 
ATOM      8  C   UNL     1       0.797  -1.904   1.226  0.00  0.00    +0.175 C 
ATOM      9  O   UNL     1       0.695  -0.479   1.159  0.00  0.00    -0.374 OA
ENDBRANCH   1   6
BRANCH   1  10
ATOM     10  C   UNL     1       1.287  -4.008  -2.484  0.00  0.00    +0.077 C 
BRANCH  10  11
ATOM     11  C   UNL     1      -0.172  -4.364  -2.610  0.00  0.00    +0.048 C 
ATOM     12  S   UNL     1      -1.274  -3.207  -2.676  0.00  0.00    -0.041 S 
BRANCH  11  13
ATOM     13  N   UNL     1      -0.548  -5.657  -2.668  0.00  0.00    -0.355 N 
ATOM     14  H   UNL     1       0.121  -6.358  -2.628  0.00  0.00    +0.143 HD
ATOM     15  H   UNL     1      -1.487  -5.886  -2.749  0.00  0.00    +0.143 HD
ENDBRANCH  11  13
ENDBRANCH  10  11
ENDBRANCH   1  10
TORSDOF 4
