REMARK  Name = ZINC12529374
REMARK  17 active torsions:
REMARK  status: ('A' for Active; 'I' for Inactive)
REMARK    1  A    between atoms: C_1  and  O_2
REMARK    2  A    between atoms: O_2  and  C_3
REMARK    3  A    between atoms: C_6  and  C_9
REMARK    4  A    between atoms: C_9  and  C_10
REMARK    5  A    between atoms: C_9  and  O_18
REMARK    6  A    between atoms: C_13  and  O_16
REMARK    7  A    between atoms: O_16  and  C_17
REMARK    8  A    between atoms: O_18  and  C_19
REMARK    9  A    between atoms: C_19  and  C_20
REMARK   10  A    between atoms: C_20  and  C_22
REMARK   11  A    between atoms: C_20  and  O_36
REMARK   12  A    between atoms: C_22  and  N_23
REMARK   13  A    between atoms: N_23  and  C_24
REMARK   14  A    between atoms: C_24  and  C_25
REMARK   15  A    between atoms: C_25  and  C_26
REMARK   16  A    between atoms: C_29  and  S_32
REMARK   17  A    between atoms: S_32  and  N_35
REMARK                            x       y       z     vdW  Elec       q    Type
REMARK                         _______ _______ _______ _____ _____    ______ ____
ROOT
ATOM      1  C   UNL     1      -0.010  -4.647  -6.109  0.00  0.00    +0.123 C 
ENDROOT
BRANCH   1   2
ATOM      2  O   UNL     1      -0.727  -5.106  -4.961  0.00  0.00    -0.391 OA
ATOM      3  H   UNL     1      -1.379  -4.476  -4.627  0.00  0.00    +0.210 HD
ENDBRANCH   1   2
BRANCH   1   4
ATOM      4  C   UNL     1       0.741  -3.360  -5.760  0.00  0.00    +0.190 C 
BRANCH   4   5
ATOM      5  O   UNL     1       1.741  -3.644  -4.779  0.00  0.00    -0.365 OA
BRANCH   5   6
ATOM      6  C   UNL     1       2.505  -2.503  -4.381  0.00  0.00    +0.178 C 
BRANCH   6  10
ATOM      7  C   UNL     1       0.606  -0.607  -1.056  0.00  0.00    +0.120 A 
ATOM      8  C   UNL     1       1.173   0.161  -2.062  0.00  0.00    +0.046 A 
ATOM      9  C   UNL     1       1.786  -0.455  -3.136  0.00  0.00    +0.010 A 
ATOM     10  C   UNL     1       1.835  -1.835  -3.209  0.00  0.00    -0.014 A 
ATOM     11  C   UNL     1       1.270  -2.602  -2.207  0.00  0.00    +0.010 A 
ATOM     12  C   UNL     1       0.661  -1.992  -1.128  0.00  0.00    +0.046 A 
BRANCH   7  14
ATOM     13  C   UNL     1      -0.017   1.425   0.010  0.00  0.00    +0.277 C 
ATOM     14  O   UNL     1       0.002  -0.004   0.002  0.00  0.00    -0.495 OA
ENDBRANCH   7  14
ENDBRANCH   6  10
BRANCH   6  15
ATOM     15  C   UNL     1       3.892  -2.941  -3.986  0.00  0.00    -0.014 A 
ATOM     16  C   UNL     1       4.079  -4.159  -3.360  0.00  0.00    +0.010 A 
ATOM     17  C   UNL     1       5.349  -4.562  -2.997  0.00  0.00    +0.046 A 
ATOM     18  C   UNL     1       6.437  -3.743  -3.260  0.00  0.00    +0.120 A 
ATOM     19  C   UNL     1       6.247  -2.521  -3.888  0.00  0.00    +0.046 A 
ATOM     20  C   UNL     1       4.975  -2.125  -4.255  0.00  0.00    +0.010 A 
BRANCH  18  21
ATOM     21  O   UNL     1       7.688  -4.138  -2.903  0.00  0.00    -0.495 OA
ATOM     22  C   UNL     1       8.761  -3.244  -3.205  0.00  0.00    +0.277 C 
ENDBRANCH  18  21
ENDBRANCH   6  15
ENDBRANCH   5   6
ENDBRANCH   4   5
ENDBRANCH   1   4
BRANCH   1  23
ATOM     23  C   UNL     1      -0.994  -4.370  -7.247  0.00  0.00    -0.049 C 
BRANCH  23  24
ATOM     24  N   UNL     1      -1.716  -5.605  -7.582  0.00  0.00    +0.381 N 
ATOM     25  H   UNL     1      -1.056  -6.311  -7.872  0.00  0.00    -0.086 HD
ATOM     26  H   UNL     1      -2.222  -5.929  -6.772  0.00  0.00    -0.086 HD
BRANCH  24  27
ATOM     27  C   UNL     1      -2.661  -5.339  -8.675  0.00  0.00    -0.078 C 
BRANCH  27  28
ATOM     28  C   UNL     1      -3.412  -6.625  -9.024  0.00  0.00    +0.016 C 
BRANCH  28  29
ATOM     29  C   UNL     1      -4.381  -6.353 -10.145  0.00  0.00    -0.049 A 
ATOM     30  C   UNL     1      -5.671  -5.944  -9.860  0.00  0.00    +0.005 A 
ATOM     31  C   UNL     1      -6.560  -5.694 -10.888  0.00  0.00    +0.029 A 
ATOM     32  C   UNL     1      -6.160  -5.852 -12.202  0.00  0.00    +0.105 A 
ATOM     33  C   UNL     1      -4.870  -6.259 -12.487  0.00  0.00    +0.029 A 
ATOM     34  C   UNL     1      -3.979  -6.505 -11.459  0.00  0.00    +0.005 A 
BRANCH  32  35
ATOM     35  S   UNL     1      -7.293  -5.534 -13.513  0.00  0.00    +0.056 S 
ATOM     36  O   UNL     1      -6.839  -6.280 -14.633  0.00  0.00    -0.153 OA
ATOM     37  O   UNL     1      -8.597  -5.693 -12.970  0.00  0.00    -0.153 OA
BRANCH  35  38
ATOM     38  N   UNL     1      -7.141  -3.935 -13.915  0.00  0.00    -0.204 NA
ATOM     39  H   UNL     1      -6.506  -3.374 -13.443  0.00  0.00    +0.144 HD
ATOM     40  H   UNL     1      -7.686  -3.559 -14.624  0.00  0.00    +0.144 HD
ENDBRANCH  35  38
ENDBRANCH  32  35
ENDBRANCH  28  29
ENDBRANCH  27  28
ENDBRANCH  24  27
ENDBRANCH  23  24
ENDBRANCH   1  23
TORSDOF 15
