REMARK  Name = ZINC09452826
REMARK  11 active torsions:
REMARK  status: ('A' for Active; 'I' for Inactive)
REMARK    1  A    between atoms: C_1  and  C_2
REMARK    2  A    between atoms: C_2  and  C_3
REMARK    3  A    between atoms: C_3  and  C_4
REMARK    4  A    between atoms: C_4  and  N_5
REMARK    5  A    between atoms: C_9  and  N_35
REMARK    6  A    between atoms: C_14  and  C_16
REMARK    7  A    between atoms: C_16  and  C_17
REMARK    8  A    between atoms: C_17  and  C_18
REMARK    9  A    between atoms: N_23  and  C_26
REMARK   10  A    between atoms: C_29  and  C_33
REMARK   11  A    between atoms: C_31  and  C_32
REMARK                            x       y       z     vdW  Elec       q    Type
REMARK                         _______ _______ _______ _____ _____    ______ ____
ROOT
ATOM      1  N   UNL     1      -2.787  -2.571   0.015  0.00  0.00    -0.325 N 
ATOM      2  C   UNL     1      -3.445  -2.818   1.225  0.00  0.00    +0.033 A 
ATOM      3  C   UNL     1      -2.706  -2.847   2.403  0.00  0.00    +0.025 A 
ATOM      4  C   UNL     1      -3.337  -3.085   3.607  0.00  0.00    +0.034 A 
ATOM      5  C   UNL     1      -4.704  -3.295   3.641  0.00  0.00    +0.127 A 
ATOM      6  C   UNL     1      -5.439  -3.267   2.472  0.00  0.00    +0.038 A 
ATOM      7  C   UNL     1      -4.814  -3.031   1.259  0.00  0.00    -0.023 A 
ATOM      8  C   UNL     1      -5.644  -3.016   0.002  0.00  0.00    +0.064 C 
ATOM      9  C   UNL     1      -4.916  -2.254  -1.107  0.00  0.00    +0.148 C 
ATOM     10  C   UNL     1      -3.499  -2.822  -1.245  0.00  0.00    +0.098 C 
ATOM     11  C   UNL     1      -4.829  -0.799  -0.743  0.00  0.00    +0.257 C 
ATOM     12  N   UNL     1      -5.351   0.153  -1.502  0.00  0.00    -0.126 NA
ATOM     13  C   UNL     1      -5.981  -0.104  -2.626  0.00  0.00    +0.339 C 
ATOM     14  O   UNL     1      -6.486   0.916  -3.343  0.00  0.00    -0.250 OA
ATOM     15  N   UNL     1      -6.136  -1.381  -3.085  0.00  0.00    -0.191 N 
ATOM     16  C   UNL     1      -5.651  -2.432  -2.406  0.00  0.00    +0.245 C 
ATOM     17  O   UNL     1      -5.810  -3.549  -2.849  0.00  0.00    -0.274 OA
ATOM     18  O   UNL     1      -4.259  -0.485   0.283  0.00  0.00    -0.272 OA
ENDROOT
BRANCH  15  19
ATOM     19  C   UNL     1      -6.817  -1.598  -4.290  0.00  0.00    +0.048 A 
ATOM     20  C   UNL     1      -6.118  -1.621  -5.490  0.00  0.00    +0.024 A 
ATOM     21  C   UNL     1      -6.792  -1.837  -6.676  0.00  0.00    +0.005 A 
ATOM     22  C   UNL     1      -8.162  -2.029  -6.670  0.00  0.00    -0.050 A 
ATOM     23  C   UNL     1      -8.860  -2.006  -5.478  0.00  0.00    +0.008 A 
ATOM     24  C   UNL     1      -8.191  -1.797  -4.287  0.00  0.00    -0.028 A 
ATOM     25  C   UNL     1      -8.953  -1.778  -2.987  0.00  0.00    +0.046 C 
ATOM     26  C   UNL     1      -8.893  -2.263  -7.966  0.00  0.00    +0.044 C 
ENDBRANCH  15  19
BRANCH   5  27
ATOM     27  N   UNL     1      -5.380  -3.549   4.933  0.00  0.00    +0.056 N 
ATOM     28  O   UNL     1      -4.738  -3.573   5.957  0.00  0.00    -0.126 OA
ATOM     29  O   UNL     1      -6.575  -3.732   4.964  0.00  0.00    -0.126 OA
ENDBRANCH   5  27
BRANCH   1  30
ATOM     30  C   UNL     1      -1.413  -2.063   0.004  0.00  0.00    +0.105 C 
BRANCH  30  31
ATOM     31  C   UNL     1      -1.433  -0.534   0.013  0.00  0.00    +0.019 C 
BRANCH  31  33
ATOM     32  C   UNL     1      -0.019   1.526   0.010  0.00  0.00    +0.004 C 
ATOM     33  C   UNL     1       0.002  -0.004   0.002  0.00  0.00    -0.002 C 
ENDBRANCH  31  33
ENDBRANCH  30  31
ENDBRANCH   1  30
BRANCH  10  34
ATOM     34  C   UNL     1      -3.572  -4.328  -1.508  0.00  0.00    +0.024 C 
BRANCH  34  35
ATOM     35  C   UNL     1      -2.161  -4.876  -1.729  0.00  0.00    -0.002 C 
ATOM     36  C   UNL     1      -2.234  -6.381  -1.992  0.00  0.00    +0.004 C 
ENDBRANCH  34  35
ENDBRANCH  10  34
TORSDOF 7
