REMARK  Name = ZINC03215952
REMARK  6 active torsions:
REMARK  status: ('A' for Active; 'I' for Inactive)
REMARK    1  A    between atoms: C_5  and  C_7
REMARK    2  A    between atoms: N_8  and  N_9
REMARK    3  A    between atoms: C_10  and  C_12
REMARK    4  A    between atoms: C_16  and  S_18
REMARK    5  A    between atoms: S_18  and  N_21
REMARK    6  A    between atoms: N_21  and  C_22
REMARK                            x       y       z     vdW  Elec       q    Type
REMARK                         _______ _______ _______ _____ _____    ______ ____
ROOT
ATOM      1  C   UNL     1      -7.636   0.201   0.310  0.00  0.00    +0.040 A 
ATOM      2  C   UNL     1      -7.871  -1.174   0.363  0.00  0.00    +0.013 A 
ATOM      3  C   UNL     1      -9.165  -1.651   0.343  0.00  0.00    +0.003 A 
ATOM      4  C   UNL     1     -10.229  -0.769   0.260  0.00  0.00    +0.029 A 
ATOM      5  C   UNL     1     -10.002   0.594   0.202  0.00  0.00    +0.109 A 
ATOM      6  C   UNL     1      -8.713   1.084   0.226  0.00  0.00    +0.042 A 
ENDROOT
BRANCH   1   8
ATOM      7  N   UNL     1      -5.213  -0.136   0.418  0.00  0.00    -0.203 N 
ATOM      8  C   UNL     1      -6.252   0.719   0.337  0.00  0.00    +0.263 C 
ATOM      9  O   UNL     1      -6.050   1.917   0.285  0.00  0.00    -0.268 OA
ATOM     10  H   UNL     1      -5.374  -1.092   0.459  0.00  0.00    +0.178 HD
BRANCH   7  12
ATOM     11  C   UNL     1      -2.901  -0.469   0.521  0.00  0.00    +0.139 C 
ATOM     12  N   UNL     1      -3.901   0.355   0.443  0.00  0.00    -0.187 NA
BRANCH  11  17
ATOM     13  C   UNL     1       0.847  -0.346   0.650  0.00  0.00    +0.001 A 
ATOM     14  C   UNL     1       1.074   1.018   0.592  0.00  0.00    +0.001 A 
ATOM     15  C   UNL     1       0.011   1.900   0.514  0.00  0.00    +0.016 A 
ATOM     16  C   UNL     1      -1.285   1.424   0.494  0.00  0.00    +0.027 A 
ATOM     17  C   UNL     1      -1.521   0.048   0.548  0.00  0.00    +0.008 A 
ATOM     18  C   UNL     1      -0.442  -0.836   0.632  0.00  0.00    +0.010 A 
ATOM     19 BR   UNL     1      -2.737   2.631   0.388  0.00  0.00    -0.050 Br
ENDBRANCH  11  17
ENDBRANCH   7  12
ENDBRANCH   1   8
BRANCH   5  20
ATOM     20  S   UNL     1     -11.364   1.707   0.096  0.00  0.00    +0.072 S 
ATOM     21  O   UNL     1     -12.512   0.986   0.522  0.00  0.00    -0.150 OA
ATOM     22  O   UNL     1     -10.950   2.916   0.717  0.00  0.00    -0.150 OA
BRANCH  20  23
ATOM     23  N   UNL     1     -11.591   2.053  -1.508  0.00  0.00    -0.216 N 
ATOM     24  H   UNL     1     -11.474   2.961  -1.830  0.00  0.00    +0.174 HD
BRANCH  23  25
ATOM     25  C   UNL     1     -11.950   1.037  -2.398  0.00  0.00    +0.048 A 
ATOM     26  C   UNL     1     -11.016   0.536  -3.295  0.00  0.00    +0.026 A 
ATOM     27  C   UNL     1     -11.372  -0.472  -4.169  0.00  0.00    +0.022 A 
ATOM     28  C   UNL     1     -12.661  -0.975  -4.160  0.00  0.00    +0.041 A 
ATOM     29  C   UNL     1     -13.595  -0.474  -3.271  0.00  0.00    +0.022 A 
ATOM     30  C   UNL     1     -13.243   0.530  -2.390  0.00  0.00    +0.026 A 
ATOM     31 CL   UNL     1     -13.107  -2.237  -5.265  0.00  0.00    -0.084 Cl
ENDBRANCH  23  25
ENDBRANCH  20  23
ENDBRANCH   5  20
TORSDOF 6
