REMARK  Name = ZINC24937504
REMARK  9 active torsions:
REMARK  status: ('A' for Active; 'I' for Inactive)
REMARK    1  A    between atoms: C_1  and  C_2
REMARK    2  A    between atoms: C_2  and  C_3
REMARK    3  A    between atoms: C_3  and  C_4
REMARK    4  A    between atoms: C_7  and  C_10
REMARK    5  A    between atoms: C_10  and  C_33
REMARK    6  A    between atoms: N_13  and  C_17
REMARK    7  A    between atoms: C_17  and  C_18
REMARK    8  A    between atoms: N_23  and  C_24
REMARK    9  A    between atoms: C_30  and  C_32
REMARK                            x       y       z     vdW  Elec       q    Type
REMARK                         _______ _______ _______ _____ _____    ______ ____
ROOT
ATOM      1  C   UNL     1      -1.355  -6.312  -0.019  0.00  0.00    +0.135 C 
ATOM      2  C   UNL     1      -2.143  -6.862   1.154  0.00  0.00    +0.251 C 
ATOM      3  O   UNL     1      -1.917  -6.691   2.332  0.00  0.00    -0.272 OA
ATOM      4  N   UNL     1      -3.147  -7.580   0.613  0.00  0.00    -0.215 N 
ATOM      5  C   UNL     1      -3.104  -7.560  -0.724  0.00  0.00    +0.310 C 
ATOM      6  O   UNL     1      -3.905  -8.136  -1.434  0.00  0.00    -0.252 OA
ATOM      7  N   UNL     1      -2.075  -6.833  -1.194  0.00  0.00    -0.281 N 
ATOM      8  C   UNL     1       0.084  -6.830   0.005  0.00  0.00    +0.047 C 
ATOM      9  H   UNL     1      -1.850  -6.681  -2.125  0.00  0.00    +0.152 HD
ENDROOT
BRANCH   1  13
ATOM     10  C   UNL     1      -1.413  -2.041   0.005  0.00  0.00    -0.047 A 
ATOM     11  C   UNL     1      -1.409  -2.725  -1.196  0.00  0.00    +0.004 A 
ATOM     12  C   UNL     1      -1.391  -4.107  -1.204  0.00  0.00    +0.006 A 
ATOM     13  C   UNL     1      -1.375  -4.805  -0.011  0.00  0.00    -0.015 A 
ATOM     14  C   UNL     1      -1.378  -4.120   1.190  0.00  0.00    +0.006 A 
ATOM     15  C   UNL     1      -1.392  -2.738   1.198  0.00  0.00    +0.004 A 
BRANCH  10  16
ATOM     16  C   UNL     1      -1.433  -0.534   0.013  0.00  0.00    +0.035 C 
BRANCH  16  18
ATOM     17  C   UNL     1      -0.019   1.526   0.010  0.00  0.00    +0.004 C 
ATOM     18  C   UNL     1       0.002  -0.004   0.002  0.00  0.00    +0.001 C 
ENDBRANCH  16  18
ENDBRANCH  10  16
ENDBRANCH   1  13
BRANCH   4  19
ATOM     19  C   UNL     1      -4.161  -8.295   1.393  0.00  0.00    +0.214 C 
BRANCH  19  20
ATOM     20  C   UNL     1      -5.331  -7.382   1.652  0.00  0.00    +0.238 C 
ATOM     21  O   UNL     1      -5.321  -6.247   1.227  0.00  0.00    -0.274 OA
ATOM     22  N   UNL     1      -6.391  -7.827   2.356  0.00  0.00    -0.239 N 
ATOM     23  C   UNL     1      -7.438  -7.011   2.588  0.00  0.00    +0.306 C 
ATOM     24  O   UNL     1      -7.427  -5.873   2.161  0.00  0.00    -0.252 OA
ATOM     25  N   UNL     1      -8.497  -7.457   3.292  0.00  0.00    -0.296 N 
ATOM     26  H   UNL     1      -6.399  -8.736   2.697  0.00  0.00    +0.159 HD
ATOM     27  H   UNL     1      -8.506  -8.365   3.632  0.00  0.00    +0.151 HD
BRANCH  25  28
ATOM     28  C   UNL     1      -9.635  -6.569   3.543  0.00  0.00    +0.077 C 
ATOM     29  C   UNL     1     -10.593  -6.618   2.351  0.00  0.00    +0.022 C 
ATOM     30  C   UNL     1     -11.782  -5.691   2.614  0.00  0.00    +0.002 C 
ATOM     31  C   UNL     1     -12.515  -6.148   3.876  0.00  0.00    +0.000 C 
ATOM     32  C   UNL     1     -11.557  -6.099   5.069  0.00  0.00    +0.005 C 
ATOM     33  C   UNL     1     -10.369  -7.026   4.806  0.00  0.00    +0.006 C 
ATOM     34  C   UNL     1      -9.411  -6.977   5.998  0.00  0.00    +0.009 C 
ENDBRANCH  25  28
ENDBRANCH  19  20
ENDBRANCH   4  19
TORSDOF 6
