REMARK  Name = ZINC39634785
REMARK  12 active torsions:
REMARK  status: ('A' for Active; 'I' for Inactive)
REMARK    1  A    between atoms: C_1  and  C_2
REMARK    2  A    between atoms: C_4  and  C_9
REMARK    3  A    between atoms: C_13  and  C_22
REMARK    4  A    between atoms: N_24  and  C_25
REMARK    5  A    between atoms: C_25  and  C_26
REMARK    6  A    between atoms: C_26  and  N_27
REMARK    7  A    between atoms: N_27  and  C_28
REMARK    8  A    between atoms: N_27  and  C_31
REMARK    9  A    between atoms: C_28  and  C_29
REMARK   10  A    between atoms: C_28  and  C_30
REMARK   11  A    between atoms: C_31  and  C_32
REMARK   12  A    between atoms: C_31  and  C_33
REMARK                            x       y       z     vdW  Elec       q    Type
REMARK                         _______ _______ _______ _____ _____    ______ ____
ROOT
ATOM      1  C   UNL     1      -1.937  -3.050  -3.134  0.00  0.00    +0.247 C 
ATOM      2  O   UNL     1      -2.297  -2.535  -4.175  0.00  0.00    -0.270 OA
ATOM      3  N   UNL     1      -1.588  -4.352  -3.113  0.00  0.00    -0.296 N 
ATOM      4  C   UNL     1      -1.243  -5.181  -1.934  0.00  0.00    +0.121 C 
ATOM      5  C   UNL     1      -1.894  -6.553  -2.217  0.00  0.00    +0.100 C 
ATOM      6  C   UNL     1      -2.035  -6.612  -3.748  0.00  0.00    -0.004 C 
ATOM      7  C   UNL     1      -1.471  -5.281  -4.263  0.00  0.00    +0.115 C 
ATOM      8  C   UNL     1      -1.229  -7.781  -4.308  0.00  0.00    -0.010 C 
ATOM      9  C   UNL     1      -1.432  -7.854  -5.824  0.00  0.00    -0.082 C 
ATOM     10  N   UNL     1      -2.858  -8.030  -6.121  0.00  0.00    +0.379 N 
ATOM     11  C   UNL     1      -3.614  -6.859  -5.661  0.00  0.00    -0.082 C 
ATOM     12  C   UNL     1      -3.504  -6.743  -4.138  0.00  0.00    -0.010 C 
ATOM     13  H   UNL     1      -2.982  -8.139  -7.117  0.00  0.00    -0.086 HD
ATOM     14  H   UNL     1      -3.199  -8.855  -5.650  0.00  0.00    -0.086 HD
ENDROOT
BRANCH   1  18
ATOM     15  C   UNL     1      -3.455   0.879  -0.462  0.00  0.00    +0.047 C 
ATOM     16  C   UNL     1      -2.609  -0.360  -0.604  0.00  0.00    -0.015 A 
ATOM     17  C   UNL     1      -2.665  -1.103  -1.764  0.00  0.00    +0.019 A 
ATOM     18  C   UNL     1      -1.880  -2.250  -1.894  0.00  0.00    +0.037 A 
ATOM     19  C   UNL     1      -1.041  -2.639  -0.847  0.00  0.00    +0.016 A 
ATOM     20  C   UNL     1      -0.993  -1.889   0.308  0.00  0.00    +0.039 A 
ATOM     21  C   UNL     1      -1.770  -0.747   0.430  0.00  0.00    +0.126 A 
ATOM     22  F   UNL     1      -1.715  -0.013   1.562  0.00  0.00    -0.205 F 
ENDBRANCH   1  18
BRANCH   5  23
ATOM     23  C   UNL     1      -1.006  -7.667  -1.726  0.00  0.00    +0.218 C 
ATOM     24  O   UNL     1       0.190  -7.489  -1.626  0.00  0.00    -0.275 OA
ATOM     25  N   UNL     1      -1.539  -8.860  -1.398  0.00  0.00    -0.317 N 
ATOM     26  H   UNL     1      -2.496  -9.002  -1.478  0.00  0.00    +0.149 HD
BRANCH  25  27
ATOM     27  C   UNL     1      -0.675  -9.943  -0.921  0.00  0.00    +0.085 C 
BRANCH  27  28
ATOM     28  C   UNL     1      -1.526 -11.179  -0.621  0.00  0.00    -0.059 C 
BRANCH  28  29
ATOM     29  N   UNL     1      -0.684 -12.215  -0.007  0.00  0.00    +0.384 N 
ATOM     30  H   UNL     1      -0.232 -11.839   0.813  0.00  0.00    -0.081 HD
BRANCH  29  31
ATOM     31  C   UNL     1      -1.519 -13.361   0.375  0.00  0.00    -0.074 C 
ATOM     32  C   UNL     1      -0.670 -14.377   1.144  0.00  0.00    -0.014 C 
ATOM     33  C   UNL     1      -2.668 -12.881   1.263  0.00  0.00    -0.014 C 
ENDBRANCH  29  31
BRANCH  29  34
ATOM     34  C   UNL     1       0.336 -12.651  -0.971  0.00  0.00    -0.074 C 
ATOM     35  C   UNL     1      -0.248 -12.610  -2.384  0.00  0.00    -0.014 C 
ATOM     36  C   UNL     1       1.546 -11.718  -0.891  0.00  0.00    -0.014 C 
ENDBRANCH  29  34
ENDBRANCH  28  29
ENDBRANCH  27  28
ENDBRANCH  25  27
ENDBRANCH   5  23
TORSDOF 7
