REMARK  Name = ZINC59294087
REMARK  8 active torsions:
REMARK  status: ('A' for Active; 'I' for Inactive)
REMARK    1  A    between atoms: C_1  and  C_2
REMARK    2  A    between atoms: C_5  and  C_9
REMARK    3  A    between atoms: N_11  and  C_12
REMARK    4  A    between atoms: C_12  and  N_14
REMARK    5  A    between atoms: N_14  and  C_15
REMARK    6  A    between atoms: C_17  and  N_22
REMARK    7  A    between atoms: C_20  and  C_21
REMARK    8  A    between atoms: C_23  and  C_25
REMARK                            x       y       z     vdW  Elec       q    Type
REMARK                         _______ _______ _______ _____ _____    ______ ____
ROOT
ATOM      1  N   UNL     1      -0.251  -6.985  -2.411  0.00  0.00    -0.296 N 
ATOM      2  H   UNL     1       0.305  -6.397  -2.947  0.00  0.00    +0.154 HD
ENDROOT
BRANCH   1   3
ATOM      3  C   UNL     1       0.032  -8.353  -2.353  0.00  0.00    +0.037 A 
ATOM      4  C   UNL     1       0.027  -9.012  -1.131  0.00  0.00    +0.046 A 
ATOM      5  C   UNL     1       0.307 -10.370  -1.078  0.00  0.00    +0.036 A 
ATOM      6  C   UNL     1       0.592 -11.066  -2.247  0.00  0.00    +0.024 A 
ATOM      7  C   UNL     1       0.597 -10.407  -3.461  0.00  0.00    +0.007 A 
ATOM      8  C   UNL     1       0.312  -9.056  -3.518  0.00  0.00    -0.029 A 
ATOM      9  C   UNL     1       0.312  -8.342  -4.846  0.00  0.00    +0.045 C 
BRANCH   5  10
ATOM     10  N   UNL     1       0.304 -11.037   0.151  0.00  0.00    -0.279 N 
ATOM     11  C   UNL     1      -0.091 -12.324   0.217  0.00  0.00    +0.284 C 
ATOM     12  O   UNL     1      -0.535 -12.877  -0.772  0.00  0.00    -0.266 OA
ATOM     13  H   UNL     1       0.586 -10.574   0.955  0.00  0.00    +0.155 HD
BRANCH  11  14
ATOM     14  C   UNL     1       0.015 -13.059   1.482  0.00  0.00    +0.189 A 
ATOM     15  C   UNL     1      -0.342 -14.361   1.686  0.00  0.00    +0.054 A 
ATOM     16  C   UNL     1      -0.073 -14.647   3.033  0.00  0.00    +0.042 A 
ATOM     17  C   UNL     1       0.430 -13.521   3.586  0.00  0.00    +0.196 A 
ATOM     18  O   UNL     1       0.486 -12.568   2.647  0.00  0.00    -0.458 OA
ENDBRANCH  11  14
ENDBRANCH   5  10
ENDBRANCH   1   3
BRANCH   1  19
ATOM     19  C   UNL     1      -1.295  -6.482  -1.723  0.00  0.00    +0.141 C 
ATOM     20  S   UNL     1      -2.345  -7.533  -0.872  0.00  0.00    -0.018 S 
BRANCH  19  23
ATOM     21  C   UNL     1      -2.557  -4.650  -1.017  0.00  0.00    +0.251 C 
ATOM     22  O   UNL     1      -3.302  -5.396  -0.413  0.00  0.00    -0.270 OA
ATOM     23  N   UNL     1      -1.513  -5.152  -1.705  0.00  0.00    -0.264 N 
ATOM     24  H   UNL     1      -0.918  -4.557  -2.187  0.00  0.00    +0.157 HD
BRANCH  21  29
ATOM     25  C   UNL     1      -3.488   1.028  -0.943  0.00  0.00    +0.044 C 
ATOM     26  C   UNL     1      -3.245  -0.459  -0.961  0.00  0.00    -0.049 A 
ATOM     27  C   UNL     1      -2.171  -0.973  -1.668  0.00  0.00    +0.004 A 
ATOM     28  C   UNL     1      -1.942  -2.332  -1.690  0.00  0.00    +0.015 A 
ATOM     29  C   UNL     1      -2.796  -3.193  -0.997  0.00  0.00    +0.055 A 
ATOM     30  C   UNL     1      -3.878  -2.668  -0.285  0.00  0.00    +0.053 A 
ATOM     31  C   UNL     1      -4.092  -1.304  -0.268  0.00  0.00    +0.024 A 
ATOM     32 CL   UNL     1      -4.947  -3.728   0.580  0.00  0.00    -0.083 Cl
ENDBRANCH  21  29
ENDBRANCH  19  23
ENDBRANCH   1  19
TORSDOF 6
