REMARK  Name = ZINC17953034
REMARK  13 active torsions:
REMARK  status: ('A' for Active; 'I' for Inactive)
REMARK    1  A    between atoms: C_1  and  C_2
REMARK    2  A    between atoms: C_2  and  C_3
REMARK    3  A    between atoms: C_3  and  C_5
REMARK    4  A    between atoms: C_3  and  C_6
REMARK    5  A    between atoms: C_6  and  C_7
REMARK    6  A    between atoms: C_8  and  C_31
REMARK    7  A    between atoms: C_16  and  S_18
REMARK    8  A    between atoms: S_18  and  C_19
REMARK    9  A    between atoms: C_19  and  C_20
REMARK   10  A    between atoms: N_22  and  C_23
REMARK   11  A    between atoms: C_24  and  C_30
REMARK   12  A    between atoms: N_26  and  C_29
REMARK   13  A    between atoms: C_27  and  C_28
REMARK                            x       y       z     vdW  Elec       q    Type
REMARK                         _______ _______ _______ _____ _____    ______ ____
ROOT
ATOM      1  C   UNL     1       5.029  -9.803  -1.029  0.00  0.00    -0.023 A 
ATOM      2  C   UNL     1       3.881 -10.364  -0.619  0.00  0.00    -0.007 A 
ATOM      3  S   UNL     1       2.833  -8.961  -0.281  0.00  0.00    -0.073 S 
ATOM      4  C   UNL     1       3.967  -7.663  -0.702  0.00  0.00    +0.117 A 
ATOM      5  C   UNL     1       5.129  -8.356  -1.092  0.00  0.00    +0.075 A 
ATOM      6  C   UNL     1       6.234  -7.541  -1.493  0.00  0.00    +0.261 A 
ATOM      7  O   UNL     1       7.282  -8.053  -1.847  0.00  0.00    -0.267 OA
ATOM      8  N   UNL     1       6.101  -6.202  -1.478  0.00  0.00    -0.301 N 
ATOM      9  H   UNL     1       6.847  -5.646  -1.752  0.00  0.00    +0.171 HD
ATOM     10  C   UNL     1       4.938  -5.611  -1.078  0.00  0.00    +0.170 A 
ATOM     11  N   UNL     1       3.904  -6.337  -0.705  0.00  0.00    -0.216 NA
ATOM     12  C   UNL     1       3.556 -11.828  -0.476  0.00  0.00    +0.052 C 
ENDROOT
BRANCH   1  13
ATOM     13  C   UNL     1       6.200 -10.666  -1.421  0.00  0.00    +0.040 C 
BRANCH  13  14
ATOM     14  C   UNL     1       6.122 -10.985  -2.915  0.00  0.00    -0.010 C 
ATOM     15  C   UNL     1       6.283  -9.694  -3.721  0.00  0.00    +0.008 C 
BRANCH  14  17
ATOM     16  C   UNL     1       7.088 -12.377  -4.752  0.00  0.00    +0.004 C 
ATOM     17  C   UNL     1       7.240 -11.961  -3.288  0.00  0.00    +0.000 C 
ENDBRANCH  14  17
ENDBRANCH  13  14
ENDBRANCH   1  13
BRANCH  10  18
ATOM     18  S   UNL     1       4.814  -3.853  -1.069  0.00  0.00    -0.078 S 
BRANCH  18  19
ATOM     19  C   UNL     1       3.114  -3.660  -0.481  0.00  0.00    +0.173 C 
BRANCH  19  20
ATOM     20  C   UNL     1       2.776  -2.194  -0.391  0.00  0.00    +0.228 C 
ATOM     21  O   UNL     1       3.604  -1.362  -0.695  0.00  0.00    -0.275 OA
ATOM     22  N   UNL     1       1.554  -1.808   0.026  0.00  0.00    -0.282 N 
ATOM     23  H   UNL     1       0.918  -2.470   0.341  0.00  0.00    +0.155 HD
BRANCH  22  24
ATOM     24  C   UNL     1       1.201  -0.446   0.006  0.00  0.00    +0.077 A 
ATOM     25  C   UNL     1       1.633   0.533   0.913  0.00  0.00    +0.081 A 
ATOM     26  N   UNL     1       1.095   1.676   0.572  0.00  0.00    -0.175 NA
ATOM     27  N   UNL     1       0.302   1.469  -0.564  0.00  0.00    -0.270 N 
ATOM     28  C   UNL     1       0.382   0.154  -0.895  0.00  0.00    +0.057 A 
ATOM     29  C   UNL     1      -0.312  -0.516  -2.052  0.00  0.00    +0.067 C 
ATOM     30  C   UNL     1      -0.472   2.491  -1.272  0.00  0.00    +0.172 C 
ATOM     31  C   UNL     1       2.559   0.306   2.080  0.00  0.00    +0.069 C 
ENDBRANCH  22  24
ENDBRANCH  19  20
ENDBRANCH  18  19
ENDBRANCH  10  18
TORSDOF 7
