REMARK  Name = ZINC63374234
REMARK  4 active torsions:
REMARK  status: ('A' for Active; 'I' for Inactive)
REMARK    1  A    between atoms: C_1  and  O_2
REMARK    2  A    between atoms: O_2  and  C_3
REMARK    3  A    between atoms: C_10  and  C_18
REMARK    4  A    between atoms: N_22  and  C_25
REMARK                            x       y       z     vdW  Elec       q    Type
REMARK                         _______ _______ _______ _____ _____    ______ ____
ROOT
ATOM      1  C   UNL     1      -1.577  -0.357   0.087  0.00  0.00    +0.121 A 
ATOM      2  C   UNL     1      -2.805   0.325   0.038  0.00  0.00    +0.047 A 
ATOM      3  C   UNL     1      -3.991  -0.319   0.011  0.00  0.00    +0.029 A 
ATOM      4  C   UNL     1      -4.028  -1.784   0.033  0.00  0.00    +0.043 A 
ATOM      5  N   UNL     1      -5.026  -2.636  -0.008  0.00  0.00    -0.376 N 
ATOM      6  C   UNL     1      -4.488  -3.985   0.135  0.00  0.00    +0.128 C 
ATOM      7  C   UNL     1      -4.890  -4.905  -1.021  0.00  0.00    +0.121 C 
ATOM      8  N   UNL     1      -4.076  -6.128  -0.944  0.00  0.00    -0.307 NA
ATOM      9  C   UNL     1      -2.652  -5.893  -1.203  0.00  0.00    +0.086 C 
ATOM     10  C   UNL     1      -2.053  -5.009  -0.093  0.00  0.00    +0.048 C 
ATOM     11  C   UNL     1      -2.977  -3.823   0.073  0.00  0.00    -0.035 C 
ATOM     12  C   UNL     1      -2.732  -2.507   0.075  0.00  0.00    +0.003 A 
ATOM     13  C   UNL     1      -1.500  -1.709   0.100  0.00  0.00    +0.055 A 
ATOM     14  H   UNL     1      -4.210  -6.597  -0.060  0.00  0.00    +0.123 HD
ATOM     15  H   UNL     1      -5.963  -2.408  -0.114  0.00  0.00    +0.160 HD
ENDROOT
BRANCH   7  16
ATOM     16  C   UNL     1      -4.641  -4.210  -2.334  0.00  0.00    +0.100 A 
ATOM     17  C   UNL     1      -3.407  -3.711  -2.629  0.00  0.00    +0.263 A 
ATOM     18  N   UNL     1      -3.202  -3.082  -3.831  0.00  0.00    -0.274 N 
ATOM     19  C   UNL     1      -4.210  -2.956  -4.715  0.00  0.00    +0.332 A 
ATOM     20  N   UNL     1      -5.434  -3.442  -4.442  0.00  0.00    -0.257 N 
ATOM     21  C   UNL     1      -5.676  -4.072  -3.276  0.00  0.00    +0.265 A 
ATOM     22  O   UNL     1      -6.787  -4.515  -3.036  0.00  0.00    -0.267 OA
ATOM     23  O   UNL     1      -4.010  -2.395  -5.775  0.00  0.00    -0.246 OA
ATOM     24  O   UNL     1      -2.394  -3.835  -1.745  0.00  0.00    -0.267 OA
ATOM     25  H   UNL     1      -2.326  -2.726  -4.045  0.00  0.00    +0.173 HD
BRANCH  20  26
ATOM     26  C   UNL     1      -6.512  -3.289  -5.423  0.00  0.00    +0.095 C 
ATOM     27  C   UNL     1      -6.117  -3.984  -6.727  0.00  0.00    +0.025 C 
ATOM     28  C   UNL     1      -7.242  -3.825  -7.752  0.00  0.00    +0.002 C 
ATOM     29  C   UNL     1      -7.481  -2.337  -8.019  0.00  0.00    +0.000 C 
ATOM     30  C   UNL     1      -7.876  -1.642  -6.715  0.00  0.00    +0.002 C 
ATOM     31  C   UNL     1      -6.751  -1.801  -5.691  0.00  0.00    +0.025 C 
ENDBRANCH  20  26
ENDBRANCH   7  16
BRANCH   1  33
ATOM     32  C   UNL     1      -0.553   1.789   0.101  0.00  0.00    +0.277 C 
ATOM     33  O   UNL     1      -0.426   0.365   0.116  0.00  0.00    -0.495 OA
ENDBRANCH   1  33
TORSDOF 3
