REMARK  Name = ZINC01382391
REMARK  9 active torsions:
REMARK  status: ('A' for Active; 'I' for Inactive)
REMARK    1  A    between atoms: C_1  and  C_2
REMARK    2  A    between atoms: C_2  and  C_3
REMARK    3  A    between atoms: C_10  and  C_15
REMARK    4  A    between atoms: C_15  and  C_17
REMARK    5  A    between atoms: C_15  and  N_28
REMARK    6  A    between atoms: N_21  and  C_22
REMARK    7  A    between atoms: C_22  and  C_23
REMARK    8  A    between atoms: N_31  and  C_34
REMARK    9  A    between atoms: C_39  and  C_40
REMARK                            x       y       z     vdW  Elec       q    Type
REMARK                         _______ _______ _______ _____ _____    ______ ____
ROOT
ATOM      1  C   UNL     1       6.221  -2.083  -3.550  0.00  0.00    +0.162 C 
ENDROOT
BRANCH   1   9
ATOM      2  C   UNL     1       0.707  -0.490  -1.238  0.00  0.00    -0.047 A 
ATOM      3  C   UNL     1      -0.020  -0.718  -2.399  0.00  0.00    +0.005 A 
ATOM      4  C   UNL     1       0.605  -1.162  -3.544  0.00  0.00    +0.026 A 
ATOM      5  C   UNL     1       1.978  -1.385  -3.539  0.00  0.00    +0.049 A 
ATOM      6  C   UNL     1       2.712  -1.153  -2.361  0.00  0.00    -0.001 A 
ATOM      7  C   UNL     1       2.057  -0.698  -1.211  0.00  0.00    +0.013 A 
ATOM      8  C   UNL     1       4.156  -1.391  -2.366  0.00  0.00    +0.021 A 
ATOM      9  C   UNL     1       4.737  -1.828  -3.511  0.00  0.00    +0.042 A 
ATOM     10  C   UNL     1       3.955  -2.045  -4.666  0.00  0.00    +0.254 A 
ATOM     11  O   UNL     1       4.497  -2.438  -5.684  0.00  0.00    -0.268 OA
ATOM     12  N   UNL     1       2.628  -1.829  -4.671  0.00  0.00    -0.322 N 
ATOM     13  H   UNL     1       2.121  -1.989  -5.482  0.00  0.00    +0.169 HD
BRANCH   2  15
ATOM     14  C   UNL     1      -0.019   1.526   0.010  0.00  0.00    +0.009 C 
ATOM     15  C   UNL     1       0.002  -0.004   0.002  0.00  0.00    +0.032 C 
ENDBRANCH   2  15
ENDBRANCH   1   9
BRANCH   1  16
ATOM     16  N   UNL     1       6.471  -3.458  -4.003  0.00  0.00    -0.286 NA
ATOM     17  C   UNL     1       5.765  -4.428  -3.155  0.00  0.00    +0.104 C 
ATOM     18  C   UNL     1       5.901  -5.827  -3.764  0.00  0.00    +0.120 C 
ATOM     19  N   UNL     1       7.329  -6.109  -3.975  0.00  0.00    -0.327 N 
ATOM     20  C   UNL     1       8.135  -5.114  -4.700  0.00  0.00    +0.120 C 
ATOM     21  C   UNL     1       7.911  -3.743  -4.054  0.00  0.00    +0.104 C 
BRANCH  19  22
ATOM     22  C   UNL     1       7.905  -7.289  -3.499  0.00  0.00    +0.034 A 
ATOM     23  C   UNL     1       7.937  -8.421  -4.303  0.00  0.00    +0.043 A 
ATOM     24  C   UNL     1       8.507  -9.587  -3.829  0.00  0.00    +0.043 A 
ATOM     25  C   UNL     1       9.047  -9.627  -2.555  0.00  0.00    +0.020 A 
ATOM     26  C   UNL     1       9.017  -8.501  -1.753  0.00  0.00    +0.006 A 
ATOM     27  C   UNL     1       8.453  -7.331  -2.224  0.00  0.00    -0.029 A 
ATOM     28  C   UNL     1       8.427  -6.102  -1.351  0.00  0.00    +0.045 C 
ATOM     29 CL   UNL     1       8.547 -11.004  -4.832  0.00  0.00    -0.083 Cl
ENDBRANCH  19  22
ENDBRANCH   1  16
BRANCH   1  30
ATOM     30  C   UNL     1       6.872  -1.114  -4.503  0.00  0.00    +0.173 A 
ATOM     31  N   UNL     1       6.830  -1.156  -5.812  0.00  0.00    -0.111 NA
ATOM     32  N   UNL     1       7.506  -0.157  -6.265  0.00  0.00    -0.023 NA
ATOM     33  N   UNL     1       7.979   0.521  -5.278  0.00  0.00    -0.043 NA
ATOM     34  N   UNL     1       7.606  -0.034  -4.175  0.00  0.00    -0.220 N 
BRANCH  34  35
ATOM     35  C   UNL     1       7.923   0.423  -2.820  0.00  0.00    +0.221 C 
BRANCH  35  36
ATOM     36  C   UNL     1       9.209  -0.217  -2.362  0.00  0.00    +0.126 A 
ATOM     37  C   UNL     1      10.443   0.289  -2.533  0.00  0.00    +0.046 A 
ATOM     38  C   UNL     1      11.347  -0.632  -1.954  0.00  0.00    +0.041 A 
ATOM     39  C   UNL     1      10.610  -1.645  -1.465  0.00  0.00    +0.195 A 
ATOM     40  O   UNL     1       9.315  -1.385  -1.709  0.00  0.00    -0.466 OA
ENDBRANCH  35  36
ENDBRANCH  34  35
ENDBRANCH   1  30
TORSDOF 7
