REMARK  Name = ZINC38904349
REMARK  9 active torsions:
REMARK  status: ('A' for Active; 'I' for Inactive)
REMARK    1  A    between atoms: C_1  and  C_2
REMARK    2  A    between atoms: C_5  and  S_8
REMARK    3  A    between atoms: S_8  and  C_9
REMARK    4  A    between atoms: C_9  and  C_10
REMARK    5  A    between atoms: C_10  and  N_11
REMARK    6  A    between atoms: C_12  and  C_14
REMARK    7  A    between atoms: N_19  and  C_21
REMARK    8  A    between atoms: C_21  and  C_22
REMARK    9  A    between atoms: C_24  and  C_27
REMARK                            x       y       z     vdW  Elec       q    Type
REMARK                         _______ _______ _______ _____ _____    ______ ____
ROOT
ATOM      1  C   UNL     1       0.140  -8.537   5.116  0.00  0.00    +0.058 C 
ATOM      2  C   UNL     1       1.387  -7.950   5.783  0.00  0.00    +0.009 C 
ATOM      3  C   UNL     1       1.431  -8.399   7.247  0.00  0.00    -0.018 C 
ATOM      4  C   UNL     1       1.406  -9.928   7.306  0.00  0.00    -0.078 C 
ATOM      5  N   UNL     1       0.178 -10.426   6.676  0.00  0.00    +0.386 N 
ATOM      6  C   UNL     1       0.163 -10.061   5.255  0.00  0.00    -0.065 C 
ATOM      7  H   UNL     1      -0.623 -10.019   7.135  0.00  0.00    -0.081 HD
ENDROOT
BRANCH   1   9
ATOM      8  N   UNL     1       0.109  -6.867   3.292  0.00  0.00    -0.314 N 
ATOM      9  C   UNL     1       0.128  -8.164   3.656  0.00  0.00    +0.214 C 
ATOM     10  O   UNL     1       0.135  -9.032   2.809  0.00  0.00    -0.276 OA
ATOM     11  H   UNL     1       0.103  -6.173   3.969  0.00  0.00    +0.149 HD
BRANCH   8  12
ATOM     12  C   UNL     1       0.097  -6.505   1.872  0.00  0.00    +0.115 C 
BRANCH  12  13
ATOM     13  C   UNL     1       0.077  -4.981   1.735  0.00  0.00    +0.093 C 
BRANCH  13  14
ATOM     14  S   UNL     1       0.062  -4.533  -0.023  0.00  0.00    -0.124 S 
BRANCH  14  19
ATOM     15  C   UNL     1      -0.018   1.503   0.010  0.00  0.00    +0.044 C 
ATOM     16  C   UNL     1       0.002  -0.004   0.002  0.00  0.00    -0.050 A 
ATOM     17  C   UNL     1       0.006  -0.687  -1.200  0.00  0.00    +0.004 A 
ATOM     18  C   UNL     1       0.024  -2.068  -1.212  0.00  0.00    +0.015 A 
ATOM     19  C   UNL     1       0.039  -2.771  -0.013  0.00  0.00    +0.008 A 
ATOM     20  C   UNL     1       0.036  -2.081   1.193  0.00  0.00    +0.015 A 
ATOM     21  C   UNL     1       0.023  -0.700   1.197  0.00  0.00    +0.004 A 
ENDBRANCH  14  19
ENDBRANCH  13  14
ENDBRANCH  12  13
ENDBRANCH   8  12
ENDBRANCH   1   9
BRANCH   5  22
ATOM     22  C   UNL     1       0.122 -11.889   6.805  0.00  0.00    +0.022 C 
BRANCH  22  23
ATOM     23  C   UNL     1       0.004 -12.261   8.260  0.00  0.00    +0.211 A 
ATOM     24  N   UNL     1      -1.110 -12.420   8.917  0.00  0.00    -0.193 NA
ATOM     25  C   UNL     1      -0.848 -12.750  10.194  0.00  0.00    +0.202 A 
ATOM     26  N   UNL     1       0.452 -12.803  10.355  0.00  0.00    -0.056 NA
ATOM     27  O   UNL     1       1.026 -12.489   9.095  0.00  0.00    -0.340 OA
BRANCH  25  28
ATOM     28  C   UNL     1      -1.861 -13.012  11.246  0.00  0.00    +0.023 A 
ATOM     29  C   UNL     1      -3.219 -12.929  10.945  0.00  0.00    +0.012 A 
ATOM     30  C   UNL     1      -4.158 -13.173  11.926  0.00  0.00    +0.002 A 
ATOM     31  C   UNL     1      -3.754 -13.499  13.208  0.00  0.00    +0.015 A 
ATOM     32  C   UNL     1      -2.407 -13.583  13.514  0.00  0.00    +0.019 A 
ATOM     33  C   UNL     1      -1.459 -13.347  12.537  0.00  0.00    +0.027 A 
ATOM     34 BR   UNL     1      -1.863 -14.029  15.269  0.00  0.00    -0.050 Br
ENDBRANCH  25  28
ENDBRANCH  22  23
ENDBRANCH   5  22
TORSDOF 8
