REMARK  Name = ZINC04514113
REMARK  6 active torsions:
REMARK  status: ('A' for Active; 'I' for Inactive)
REMARK    1  A    between atoms: C_1  and  C_2
REMARK    2  A    between atoms: C_2  and  C_3
REMARK    3  A    between atoms: C_3  and  C_22
REMARK    4  A    between atoms: N_6  and  C_10
REMARK    5  A    between atoms: C_10  and  C_11
REMARK    6  A    between atoms: N_16  and  C_17
REMARK                            x       y       z     vdW  Elec       q    Type
REMARK                         _______ _______ _______ _____ _____    ______ ____
ROOT
ATOM      1  C   UNL     1      -1.433  -0.534   0.013  0.00  0.00    +0.138 C 
ATOM      2  C   UNL     1      -2.205   0.042   1.184  0.00  0.00    +0.251 C 
ATOM      3  O   UNL     1      -1.958  -0.098   2.363  0.00  0.00    -0.272 OA
ATOM      4  N   UNL     1      -3.222   0.740   0.642  0.00  0.00    -0.215 N 
ATOM      5  C   UNL     1      -3.200   0.687  -0.695  0.00  0.00    +0.310 C 
ATOM      6  O   UNL     1      -4.016   1.240  -1.406  0.00  0.00    -0.252 OA
ATOM      7  N   UNL     1      -2.175  -0.046  -1.163  0.00  0.00    -0.281 N 
ATOM      8  H   UNL     1      -1.964  -0.220  -2.094  0.00  0.00    +0.152 HD
ENDROOT
BRANCH   1   9
ATOM      9  C   UNL     1      -1.441  -2.040   0.057  0.00  0.00    -0.015 A 
ATOM     10  C   UNL     1      -0.412  -2.717   0.685  0.00  0.00    +0.009 A 
ATOM     11  C   UNL     1      -0.418  -4.099   0.727  0.00  0.00    +0.039 A 
ATOM     12  C   UNL     1      -1.455  -4.804   0.140  0.00  0.00    +0.123 A 
ATOM     13  C   UNL     1      -2.485  -4.125  -0.488  0.00  0.00    +0.039 A 
ATOM     14  C   UNL     1      -2.479  -2.743  -0.524  0.00  0.00    +0.009 A 
ATOM     15  F   UNL     1      -1.461  -6.155   0.179  0.00  0.00    -0.205 F 
ENDBRANCH   1   9
BRANCH   1  17
ATOM     16  C   UNL     1      -0.019   1.526   0.010  0.00  0.00    +0.007 C 
ATOM     17  C   UNL     1       0.002  -0.004   0.002  0.00  0.00    +0.037 C 
ENDBRANCH   1  17
BRANCH   4  18
ATOM     18  C   UNL     1      -4.228   1.468   1.421  0.00  0.00    +0.214 C 
BRANCH  18  19
ATOM     19  C   UNL     1      -3.756   2.880   1.656  0.00  0.00    +0.238 C 
ATOM     20  O   UNL     1      -2.686   3.243   1.216  0.00  0.00    -0.274 OA
ATOM     21  N   UNL     1      -4.524   3.739   2.354  0.00  0.00    -0.239 N 
ATOM     22  C   UNL     1      -4.103   5.002   2.564  0.00  0.00    +0.306 C 
ATOM     23  O   UNL     1      -3.030   5.366   2.124  0.00  0.00    -0.252 OA
ATOM     24  N   UNL     1      -4.871   5.861   3.263  0.00  0.00    -0.296 N 
ATOM     25  H   UNL     1      -5.380   3.449   2.706  0.00  0.00    +0.159 HD
ATOM     26  H   UNL     1      -5.727   5.571   3.615  0.00  0.00    +0.151 HD
BRANCH  24  27
ATOM     27  C   UNL     1      -4.412   7.234   3.491  0.00  0.00    +0.074 C 
ATOM     28  C   UNL     1      -3.555   7.298   4.772  0.00  0.00    +0.022 C 
ATOM     29  C   UNL     1      -3.932   8.657   5.413  0.00  0.00    +0.002 C 
ATOM     30  C   UNL     1      -5.453   8.756   5.136  0.00  0.00    +0.002 C 
ATOM     31  C   UNL     1      -5.619   8.161   3.722  0.00  0.00    +0.022 C 
ENDBRANCH  24  27
ENDBRANCH  18  19
ENDBRANCH   4  18
TORSDOF 5
