REMARK  Name = ZINC13050671
REMARK  7 active torsions:
REMARK  status: ('A' for Active; 'I' for Inactive)
REMARK    1  A    between atoms: C_4  and  N_7
REMARK    2  A    between atoms: C_8  and  C_10
REMARK    3  A    between atoms: C_10  and  S_11
REMARK    4  A    between atoms: S_11  and  C_12
REMARK    5  A    between atoms: C_16  and  C_29
REMARK    6  A    between atoms: N_22  and  C_23
REMARK    7  A    between atoms: C_23  and  C_24
REMARK                            x       y       z     vdW  Elec       q    Type
REMARK                         _______ _______ _______ _____ _____    ______ ____
ROOT
ATOM      1  C   UNL     1       0.680   4.285  -1.997  0.00  0.00    +0.173 A 
ATOM      2  N   UNL     1       0.713   4.739  -3.225  0.00  0.00    -0.223 NA
ATOM      3  C   UNL     1       1.847   4.703  -3.964  0.00  0.00    +0.080 A 
ATOM      4  C   UNL     1       1.880   5.189  -5.274  0.00  0.00    +0.043 A 
ATOM      5  C   UNL     1       3.067   5.131  -5.994  0.00  0.00    +0.065 A 
ATOM      6  C   UNL     1       4.223   4.591  -5.415  0.00  0.00    +0.016 A 
ATOM      7  C   UNL     1       4.202   4.113  -4.137  0.00  0.00    +0.016 A 
ATOM      8  C   UNL     1       3.022   4.161  -3.396  0.00  0.00    +0.065 A 
ATOM      9  C   UNL     1       2.957   3.663  -2.013  0.00  0.00    +0.263 A 
ATOM     10  O   UNL     1       3.936   3.190  -1.466  0.00  0.00    -0.267 OA
ATOM     11  N   UNL     1       1.768   3.746  -1.372  0.00  0.00    -0.280 N 
ENDROOT
BRANCH   5  12
ATOM     12  C   UNL     1       3.110   5.644  -7.381  0.00  0.00    +0.387 C 
ATOM     13  O   UNL     1       2.111   6.113  -7.886  0.00  0.00    -0.241 OA
ATOM     14  O   UNL     1       4.258   5.590  -8.083  0.00  0.00    -0.241 OA
ENDBRANCH   5  12
BRANCH   1  15
ATOM     15  S   UNL     1      -0.840   4.373  -1.109  0.00  0.00    -0.078 S 
BRANCH  15  16
ATOM     16  C   UNL     1      -1.893   5.140  -2.365  0.00  0.00    +0.173 C 
BRANCH  16  18
ATOM     17  N   UNL     1      -4.246   5.875  -2.577  0.00  0.00    -0.285 N 
ATOM     18  C   UNL     1      -3.284   5.319  -1.813  0.00  0.00    +0.227 C 
ATOM     19  O   UNL     1      -3.538   4.963  -0.682  0.00  0.00    -0.275 OA
ATOM     20  H   UNL     1      -4.027   6.221  -3.456  0.00  0.00    +0.155 HD
BRANCH  17  24
ATOM     21  C   UNL     1      -8.156   6.108  -1.159  0.00  0.00    +0.000 A 
ATOM     22  C   UNL     1      -7.095   6.250  -0.283  0.00  0.00    +0.002 A 
ATOM     23  C   UNL     1      -5.798   6.174  -0.750  0.00  0.00    +0.023 A 
ATOM     24  C   UNL     1      -5.559   5.954  -2.100  0.00  0.00    +0.033 A 
ATOM     25  C   UNL     1      -6.627   5.817  -2.978  0.00  0.00    +0.023 A 
ATOM     26  C   UNL     1      -7.922   5.890  -2.504  0.00  0.00    +0.002 A 
ENDBRANCH  17  24
ENDBRANCH  16  18
ENDBRANCH  15  16
ENDBRANCH   1  15
BRANCH  11  27
ATOM     27  C   UNL     1       1.649   3.259   0.004  0.00  0.00    +0.201 C 
BRANCH  27  28
ATOM     28  C   UNL     1       1.250   1.806  -0.009  0.00  0.00    +0.125 A 
ATOM     29  C   UNL     1       2.094   0.758  -0.027  0.00  0.00    +0.046 A 
ATOM     30  C   UNL     1       1.297  -0.409  -0.035  0.00  0.00    +0.041 A 
ATOM     31  C   UNL     1       0.014  -0.006  -0.022  0.00  0.00    +0.195 A 
ATOM     32  O   UNL     1      -0.009   1.337  -0.006  0.00  0.00    -0.466 OA
ENDBRANCH  27  28
ENDBRANCH  11  27
TORSDOF 7
