REMARK  Name = ZINC39675633
REMARK  10 active torsions:
REMARK  status: ('A' for Active; 'I' for Inactive)
REMARK    1  A    between atoms: C_1  and  C_2
REMARK    2  A    between atoms: C_2  and  C_3
REMARK    3  A    between atoms: C_6  and  C_9
REMARK    4  A    between atoms: C_13  and  C_22
REMARK    5  A    between atoms: N_24  and  C_25
REMARK    6  A    between atoms: C_25  and  C_26
REMARK    7  A    between atoms: C_26  and  C_28
REMARK    8  A    between atoms: C_26  and  N_34
REMARK    9  A    between atoms: N_34  and  C_35
REMARK   10  A    between atoms: N_34  and  C_36
REMARK                            x       y       z     vdW  Elec       q    Type
REMARK                         _______ _______ _______ _____ _____    ______ ____
ROOT
ATOM      1  C   UNL     1      -5.417  -1.965  -0.004  0.00  0.00    +0.247 C 
ATOM      2  O   UNL     1      -4.289  -1.513   0.019  0.00  0.00    -0.270 OA
ATOM      3  N   UNL     1      -5.994  -2.277  -1.181  0.00  0.00    -0.296 N 
ATOM      4  C   UNL     1      -5.392  -2.208  -2.534  0.00  0.00    +0.121 C 
ATOM      5  C   UNL     1      -5.923  -3.463  -3.262  0.00  0.00    +0.100 C 
ATOM      6  C   UNL     1      -7.223  -3.824  -2.525  0.00  0.00    -0.004 C 
ATOM      7  C   UNL     1      -7.371  -2.773  -1.415  0.00  0.00    +0.115 C 
ATOM      8  C   UNL     1      -7.115  -5.217  -1.912  0.00  0.00    -0.010 C 
ATOM      9  C   UNL     1      -8.440  -5.576  -1.234  0.00  0.00    -0.082 C 
ATOM     10  N   UNL     1      -9.524  -5.538  -2.223  0.00  0.00    +0.379 N 
ATOM     11  C   UNL     1      -9.682  -4.173  -2.740  0.00  0.00    -0.082 C 
ATOM     12  C   UNL     1      -8.410  -3.755  -3.481  0.00  0.00    -0.010 C 
ATOM     13  H   UNL     1      -9.304  -6.161  -2.985  0.00  0.00    -0.086 HD
ATOM     14  H   UNL     1     -10.385  -5.833  -1.788  0.00  0.00    -0.086 HD
ENDROOT
BRANCH   1  18
ATOM     15  C   UNL     1      -7.542  -2.561   3.625  0.00  0.00    -0.048 A 
ATOM     16  C   UNL     1      -8.225  -2.191   2.480  0.00  0.00    +0.004 A 
ATOM     17  C   UNL     1      -7.541  -1.995   1.298  0.00  0.00    +0.013 A 
ATOM     18  C   UNL     1      -6.157  -2.172   1.259  0.00  0.00    +0.037 A 
ATOM     19  C   UNL     1      -5.474  -2.545   2.418  0.00  0.00    +0.013 A 
ATOM     20  C   UNL     1      -6.169  -2.732   3.595  0.00  0.00    +0.004 A 
BRANCH  15  22
ATOM     21  C   UNL     1      -8.370  -1.452   5.683  0.00  0.00    +0.009 C 
ATOM     22  C   UNL     1      -8.296  -2.772   4.913  0.00  0.00    +0.032 C 
ENDBRANCH  15  22
ENDBRANCH   1  18
BRANCH   5  23
ATOM     23  C   UNL     1      -4.928  -4.590  -3.157  0.00  0.00    +0.218 C 
ATOM     24  O   UNL     1      -4.259  -4.717  -2.153  0.00  0.00    -0.275 OA
ATOM     25  N   UNL     1      -4.780  -5.456  -4.178  0.00  0.00    -0.316 N 
ATOM     26  H   UNL     1      -5.315  -5.355  -4.982  0.00  0.00    +0.149 HD
BRANCH  25  27
ATOM     27  C   UNL     1      -3.813  -6.552  -4.076  0.00  0.00    +0.093 C 
BRANCH  27  28
ATOM     28  C   UNL     1      -3.932  -7.454  -5.306  0.00  0.00    -0.021 C 
BRANCH  28  29
ATOM     29  C   UNL     1      -5.315  -8.050  -5.360  0.00  0.00    -0.059 A 
ATOM     30  C   UNL     1      -5.630  -9.138  -4.567  0.00  0.00    +0.002 A 
ATOM     31  C   UNL     1      -6.899  -9.684  -4.617  0.00  0.00    +0.000 A 
ATOM     32  C   UNL     1      -7.853  -9.142  -5.458  0.00  0.00    +0.000 A 
ATOM     33  C   UNL     1      -7.538  -8.054  -6.250  0.00  0.00    +0.000 A 
ATOM     34  C   UNL     1      -6.271  -7.505  -6.197  0.00  0.00    +0.002 A 
ENDBRANCH  28  29
BRANCH  28  35
ATOM     35  N   UNL     1      -2.938  -8.532  -5.221  0.00  0.00    +0.382 N 
ATOM     36  C   UNL     1      -2.977  -9.332  -6.452  0.00  0.00    -0.096 C 
ATOM     37  C   UNL     1      -1.598  -7.951  -5.058  0.00  0.00    -0.096 C 
ATOM     38  H   UNL     1      -3.147  -9.121  -4.430  0.00  0.00    -0.082 HD
ENDBRANCH  28  35
ENDBRANCH  27  28
ENDBRANCH  25  27
ENDBRANCH   5  23
TORSDOF 7
