REMARK  Name = ZINC20533213
REMARK  6 active torsions:
REMARK  status: ('A' for Active; 'I' for Inactive)
REMARK    1  A    between atoms: C_1  and  C_2
REMARK    2  A    between atoms: C_16  and  C_19
REMARK    3  A    between atoms: C_19  and  C_20
REMARK    4  A    between atoms: C_20  and  S_21
REMARK    5  A    between atoms: S_21  and  C_22
REMARK    6  A    between atoms: N_25  and  C_28
REMARK                            x       y       z     vdW  Elec       q    Type
REMARK                         _______ _______ _______ _____ _____    ______ ____
ROOT
ATOM      1  C   UNL     1      -0.018   1.503   0.010  0.00  0.00    +0.046 C 
ATOM      2  C   UNL     1       0.002  -0.004   0.002  0.00  0.00    -0.028 A 
ATOM      3  C   UNL     1       0.006  -0.685  -1.198  0.00  0.00    +0.025 A 
ATOM      4  C   UNL     1       0.025  -2.068  -1.216  0.00  0.00    +0.042 A 
ATOM      5  C   UNL     1       0.040  -2.772  -0.023  0.00  0.00    +0.027 A 
ATOM      6  C   UNL     1       0.036  -2.096   1.176  0.00  0.00    +0.005 A 
ATOM      7  C   UNL     1       0.023  -0.704   1.205  0.00  0.00    +0.042 A 
ATOM      8  N   UNL     1       0.029  -0.249   2.526  0.00  0.00    -0.283 N 
ATOM      9  C   UNL     1       0.048  -1.263   3.413  0.00  0.00    +0.243 C 
ATOM     10  O   UNL     1       0.055  -1.167   4.622  0.00  0.00    -0.273 OA
ATOM     11  C   UNL     1       0.045  -2.537   2.612  0.00  0.00    +0.136 C 
ATOM     12  C   UNL     1       1.281  -3.386   2.935  0.00  0.00    +0.122 C 
ATOM     13  C   UNL     1       0.773  -4.439   3.960  0.00  0.00    +0.107 C 
ATOM     14  C   UNL     1      -0.717  -4.100   4.172  0.00  0.00    +0.068 C 
ATOM     15  N   UNL     1      -1.121  -3.383   2.927  0.00  0.00    -0.295 NA
ATOM     16  C   UNL     1       0.903  -5.745   3.212  0.00  0.00    +0.227 C 
ATOM     17  O   UNL     1       0.602  -6.836   3.649  0.00  0.00    -0.275 OA
ATOM     18  N   UNL     1       1.401  -5.512   1.993  0.00  0.00    -0.238 N 
ATOM     19  C   UNL     1       1.662  -4.211   1.727  0.00  0.00    +0.228 C 
ATOM     20  O   UNL     1       2.121  -3.771   0.695  0.00  0.00    -0.275 OA
ATOM     21 CL   UNL     1       0.029  -2.920  -2.729  0.00  0.00    -0.084 Cl
ATOM     22  H   UNL     1       0.021   0.688   2.776  0.00  0.00    +0.155 HD
ATOM     23  H   UNL     1      -1.943  -2.820   3.089  0.00  0.00    +0.123 HD
ENDROOT
BRANCH  18  24
ATOM     24  C   UNL     1       1.654  -6.580   1.022  0.00  0.00    +0.084 C 
ATOM     25  C   UNL     1       0.354  -7.366   0.751  0.00  0.00    +0.023 C 
ATOM     26  C   UNL     1       0.824  -8.833   0.593  0.00  0.00    +0.002 C 
ATOM     27  C   UNL     1       1.944  -8.950   1.656  0.00  0.00    +0.002 C 
ATOM     28  C   UNL     1       2.665  -7.587   1.597  0.00  0.00    +0.023 C 
ENDBRANCH  18  24
BRANCH  14  29
ATOM     29  C   UNL     1      -1.538  -5.383   4.322  0.00  0.00    +0.030 C 
BRANCH  29  30
ATOM     30  C   UNL     1      -2.988  -5.024   4.655  0.00  0.00    +0.070 C 
BRANCH  30  31
ATOM     31  S   UNL     1      -3.961  -6.545   4.832  0.00  0.00    -0.164 S 
ATOM     32  C   UNL     1      -5.631  -5.954   5.221  0.00  0.00    +0.084 C 
ENDBRANCH  30  31
ENDBRANCH  29  30
ENDBRANCH  14  29
TORSDOF 4
