REMARK  Name = ZINC00714571
REMARK  10 active torsions:
REMARK  status: ('A' for Active; 'I' for Inactive)
REMARK    1  A    between atoms: C_1  and  C_2
REMARK    2  A    between atoms: C_2  and  C_34
REMARK    3  A    between atoms: C_6  and  C_24
REMARK    4  A    between atoms: C_8  and  C_20
REMARK    5  A    between atoms: C_9  and  N_19
REMARK    6  A    between atoms: N_10  and  C_11
REMARK    7  A    between atoms: C_14  and  O_17
REMARK    8  A    between atoms: O_17  and  C_18
REMARK    9  A    between atoms: C_20  and  O_22
REMARK   10  A    between atoms: O_22  and  C_23
REMARK                            x       y       z     vdW  Elec       q    Type
REMARK                         _______ _______ _______ _____ _____    ______ ____
ROOT
ATOM      1  C   UNL     1       5.499   5.119  -0.966  0.00  0.00    +0.011 C 
ATOM      2  C   UNL     1       5.189   4.293  -2.216  0.00  0.00    -0.023 C 
ATOM      3  C   UNL     1       4.849   2.857  -1.813  0.00  0.00    +0.058 C 
ATOM      4  C   UNL     1       3.624   2.854  -0.932  0.00  0.00    +0.025 C 
ATOM      5  C   UNL     1       2.664   3.792  -1.074  0.00  0.00    +0.025 C 
ATOM      6  C   UNL     1       1.439   3.786  -0.197  0.00  0.00    +0.094 C 
ATOM      7  C   UNL     1       1.254   2.456   0.471  0.00  0.00    +0.084 C 
ATOM      8  C   UNL     1       2.279   1.562   0.552  0.00  0.00    +0.103 C 
ATOM      9  N   UNL     1       3.505   1.870   0.015  0.00  0.00    -0.261 N 
ATOM     10  C   UNL     1       2.777   4.804  -2.044  0.00  0.00    +0.162 C 
ATOM     11  O   UNL     1       1.887   5.623  -2.157  0.00  0.00    -0.292 OA
ATOM     12  C   UNL     1       3.980   4.892  -2.942  0.00  0.00    +0.086 C 
ATOM     13  C   UNL     1       6.404   4.292  -3.146  0.00  0.00    +0.011 C 
ENDROOT
BRANCH   6  14
ATOM     14  C   UNL     1       1.586   4.853   0.858  0.00  0.00    -0.035 A 
ATOM     15  C   UNL     1       2.620   4.781   1.773  0.00  0.00    +0.006 A 
ATOM     16  C   UNL     1       2.759   5.762   2.737  0.00  0.00    +0.020 A 
ATOM     17  C   UNL     1       1.856   6.809   2.793  0.00  0.00    +0.041 A 
ATOM     18  C   UNL     1       0.818   6.877   1.880  0.00  0.00    +0.020 A 
ATOM     19  C   UNL     1       0.684   5.899   0.913  0.00  0.00    +0.006 A 
ATOM     20 CL   UNL     1       2.025   8.037   4.008  0.00  0.00    -0.084 Cl
ENDBRANCH   6  14
BRANCH   9  21
ATOM     21  C   UNL     1       4.644   1.173   0.440  0.00  0.00    +0.040 A 
ATOM     22  C   UNL     1       5.374   1.632   1.529  0.00  0.00    +0.027 A 
ATOM     23  C   UNL     1       6.493   0.941   1.950  0.00  0.00    +0.047 A 
ATOM     24  C   UNL     1       6.895  -0.204   1.278  0.00  0.00    +0.120 A 
ATOM     25  C   UNL     1       6.170  -0.660   0.186  0.00  0.00    +0.047 A 
ATOM     26  C   UNL     1       5.048   0.027  -0.232  0.00  0.00    +0.027 A 
BRANCH  24  27
ATOM     27  O   UNL     1       8.000  -0.881   1.690  0.00  0.00    -0.495 OA
ATOM     28  C   UNL     1       8.698  -0.355   2.821  0.00  0.00    +0.277 C 
ENDBRANCH  24  27
ENDBRANCH   9  21
BRANCH   8  29
ATOM     29  N   UNL     1       2.086   0.354   1.170  0.00  0.00    -0.346 N 
ATOM     30  H   UNL     1       1.255  -0.130   1.041  0.00  0.00    +0.143 HD
ATOM     31  H   UNL     1       2.780  -0.018   1.736  0.00  0.00    +0.143 HD
ENDBRANCH   8  29
BRANCH   7  32
ATOM     32  C   UNL     1       0.005   2.124   1.016  0.00  0.00    +0.339 C 
ATOM     33  O   UNL     1      -0.132   1.085   1.637  0.00  0.00    -0.245 OA
BRANCH  32  34
ATOM     34  O   UNL     1      -1.047   2.955   0.847  0.00  0.00    -0.465 OA
ATOM     35  C   UNL     1      -2.290   2.552   1.424  0.00  0.00    +0.280 C 
ENDBRANCH  32  34
ENDBRANCH   7  32
TORSDOF 6
