REMARK  Name = ZINC23962093
REMARK  18 active torsions:
REMARK  status: ('A' for Active; 'I' for Inactive)
REMARK    1  A    between atoms: C_1  and  C_2
REMARK    2  A    between atoms: C_2  and  C_3
REMARK    3  A    between atoms: C_3  and  C_4
REMARK    4  A    between atoms: C_4  and  C_5
REMARK    5  A    between atoms: C_5  and  N_6
REMARK    6  A    between atoms: C_7  and  C_22
REMARK    7  A    between atoms: N_17  and  C_18
REMARK    8  A    between atoms: C_18  and  C_19
REMARK    9  A    between atoms: C_19  and  C_20
REMARK   10  A    between atoms: C_20  and  C_21
REMARK   11  A    between atoms: C_22  and  C_23
REMARK   12  A    between atoms: C_23  and  C_24
REMARK   13  A    between atoms: N_26  and  C_27
REMARK   14  A    between atoms: C_27  and  C_28
REMARK   15  A    between atoms: C_31  and  C_34
REMARK   16  A    between atoms: C_34  and  N_35
REMARK   17  A    between atoms: N_35  and  C_36
REMARK   18  A    between atoms: N_35  and  C_37
REMARK                            x       y       z     vdW  Elec       q    Type
REMARK                         _______ _______ _______ _____ _____    ______ ____
ROOT
ATOM      1  N   UNL     1      -2.005   1.110  -6.740  0.00  0.00    -0.322 N 
ATOM      2  C   UNL     1      -1.010   1.763  -6.110  0.00  0.00    +0.113 A 
ATOM      3  N   UNL     1      -0.768   2.895  -6.721  0.00  0.00    -0.214 NA
ATOM      4  C   UNL     1      -1.591   3.030  -7.764  0.00  0.00    +0.168 A 
ATOM      5  C   UNL     1      -2.400   1.901  -7.800  0.00  0.00    +0.151 A 
ATOM      6  C   UNL     1      -3.373   1.784  -8.816  0.00  0.00    +0.280 A 
ATOM      7  O   UNL     1      -4.094   0.804  -8.868  0.00  0.00    -0.265 OA
ATOM      8  N   UNL     1      -3.494   2.771  -9.728  0.00  0.00    -0.273 N 
ATOM      9  H   UNL     1      -4.248   2.692 -10.526  0.00  0.00    +0.173 HD
ATOM     10  C   UNL     1      -2.705   3.858  -9.682  0.00  0.00    +0.331 A 
ATOM     11  O   UNL     1      -2.843   4.727 -10.521  0.00  0.00    -0.246 OA
ATOM     12  N   UNL     1      -1.765   4.009  -8.730  0.00  0.00    -0.277 N 
ENDROOT
BRANCH   1  13
ATOM     13  C   UNL     1      -2.564  -0.193  -6.369  0.00  0.00    +0.124 C 
BRANCH  13  14
ATOM     14  C   UNL     1      -3.726   0.010  -5.395  0.00  0.00    +0.022 C 
BRANCH  14  15
ATOM     15  C   UNL     1      -4.311  -1.350  -5.007  0.00  0.00    +0.001 C 
BRANCH  15  17
ATOM     16  C   UNL     1      -6.056  -2.507  -3.646  0.00  0.00    +0.004 C 
ATOM     17  C   UNL     1      -5.472  -1.147  -4.033  0.00  0.00    -0.003 C 
ENDBRANCH  15  17
ENDBRANCH  14  15
ENDBRANCH  13  14
ENDBRANCH   1  13
BRANCH  12  18
ATOM     18  C   UNL     1      -0.926   5.209  -8.714  0.00  0.00    +0.128 C 
BRANCH  18  19
ATOM     19  C   UNL     1       0.329   4.965  -9.554  0.00  0.00    +0.021 C 
BRANCH  19  20
ATOM     20  C   UNL     1       1.206   6.218  -9.538  0.00  0.00    -0.002 C 
ATOM     21  C   UNL     1       2.461   5.974 -10.378  0.00  0.00    +0.004 C 
ENDBRANCH  19  20
ENDBRANCH  18  19
ENDBRANCH  12  18
BRANCH   2  22
ATOM     22  C   UNL     1      -0.281   1.264  -4.889  0.00  0.00    +0.083 C 
BRANCH  22  23
ATOM     23  C   UNL     1      -0.997   1.758  -3.630  0.00  0.00    +0.103 C 
BRANCH  23  24
ATOM     24  C   UNL     1      -0.268   1.258  -2.409  0.00  0.00    +0.214 C 
ATOM     25  O   UNL     1       0.726   0.575  -2.534  0.00  0.00    -0.276 OA
ATOM     26  N   UNL     1      -0.721   1.571  -1.179  0.00  0.00    -0.311 N 
ATOM     27  H   UNL     1      -1.623   2.191  -1.066  0.00  0.00    +0.149 HD
BRANCH  26  28
ATOM     28  C   UNL     1      -0.013   1.086   0.008  0.00  0.00    +0.139 C 
BRANCH  28  29
ATOM     29  C   UNL     1      -0.718   1.572   1.248  0.00  0.00    -0.030 A 
ATOM     30  C   UNL     1      -0.360   2.779   1.819  0.00  0.00    +0.005 A 
ATOM     31  C   UNL     1      -1.010   3.227   2.953  0.00  0.00    +0.002 A 
ATOM     32  C   UNL     1      -2.012   2.463   3.523  0.00  0.00    -0.064 A 
ATOM     33  C   UNL     1      -2.366   1.254   2.955  0.00  0.00    +0.002 A 
ATOM     34  C   UNL     1      -1.719   0.808   1.818  0.00  0.00    +0.005 A 
BRANCH  32  35
ATOM     35  C   UNL     1      -2.718   2.950   4.762  0.00  0.00    -0.044 C 
BRANCH  35  36
ATOM     36  N   UNL     1      -2.009   2.463   5.953  0.00  0.00    +0.379 N 
ATOM     37  C   UNL     1      -0.673   3.065   6.053  0.00  0.00    -0.096 C 
ATOM     38  C   UNL     1      -2.791   2.713   7.171  0.00  0.00    -0.096 C 
ATOM     39  H   UNL     1      -1.883   1.375   5.849  0.00  0.00    -0.082 HD
ENDBRANCH  35  36
ENDBRANCH  32  35
ENDBRANCH  28  29
ENDBRANCH  26  28
ENDBRANCH  23  24
ENDBRANCH  22  23
ENDBRANCH   2  22
TORSDOF 14
