REMARK  Name = ZINC14849284
REMARK  9 active torsions:
REMARK  status: ('A' for Active; 'I' for Inactive)
REMARK    1  A    between atoms: C_1  and  C_2
REMARK    2  A    between atoms: C_5  and  S_25
REMARK    3  A    between atoms: C_7  and  N_8
REMARK    4  A    between atoms: C_9  and  C_11
REMARK    5  A    between atoms: C_11  and  C_12
REMARK    6  A    between atoms: C_12  and  C_13
REMARK    7  A    between atoms: S_25  and  N_28
REMARK    8  A    between atoms: N_28  and  C_29
REMARK    9  A    between atoms: N_28  and  C_30
REMARK                            x       y       z     vdW  Elec       q    Type
REMARK                         _______ _______ _______ _____ _____    ______ ____
ROOT
ATOM      1  N   UNL     1      -2.523   0.598  -4.609  0.00  0.00    -0.285 N 
ATOM      2  C   UNL     1      -2.278   1.533  -3.669  0.00  0.00    +0.217 C 
ATOM      3  O   UNL     1      -2.332   2.710  -3.957  0.00  0.00    -0.275 OA
ATOM      4  H   UNL     1      -2.402  -0.342  -4.401  0.00  0.00    +0.155 HD
ENDROOT
BRANCH   1  11
ATOM      5  C   UNL     1      -1.997  -1.153  -6.790  0.00  0.00    +0.045 C 
ATOM      6  C   UNL     1      -2.716   0.159  -6.976  0.00  0.00    -0.029 A 
ATOM      7  C   UNL     1      -3.146   0.539  -8.232  0.00  0.00    +0.007 A 
ATOM      8  C   UNL     1      -3.800   1.745  -8.405  0.00  0.00    +0.029 A 
ATOM      9  C   UNL     1      -4.032   2.571  -7.320  0.00  0.00    +0.107 A 
ATOM     10  C   UNL     1      -3.610   2.194  -6.061  0.00  0.00    +0.052 A 
ATOM     11  C   UNL     1      -2.952   0.983  -5.884  0.00  0.00    +0.038 A 
BRANCH   9  12
ATOM     12  S   UNL     1      -4.866   4.106  -7.545  0.00  0.00    +0.060 S 
ATOM     13  O   UNL     1      -5.641   3.978  -8.729  0.00  0.00    -0.153 OA
ATOM     14  O   UNL     1      -5.442   4.444  -6.291  0.00  0.00    -0.153 OA
BRANCH  12  15
ATOM     15  N   UNL     1      -3.710   5.250  -7.859  0.00  0.00    -0.183 NA
ATOM     16  C   UNL     1      -3.300   5.519  -9.239  0.00  0.00    +0.131 C 
ATOM     17  C   UNL     1      -3.097   5.994  -6.755  0.00  0.00    +0.131 C 
ENDBRANCH  12  15
ENDBRANCH   9  12
ENDBRANCH   1  11
BRANCH   2  18
ATOM     18  C   UNL     1      -1.936   1.115  -2.262  0.00  0.00    +0.097 C 
BRANCH  18  19
ATOM     19  C   UNL     1      -1.706   2.360  -1.403  0.00  0.00    +0.022 C 
BRANCH  19  20
ATOM     20  C   UNL     1      -1.360   1.936   0.026  0.00  0.00    +0.080 C 
ATOM     21  C   UNL     1      -1.258   3.176   0.920  0.00  0.00    +0.049 C 
ATOM     22  C   UNL     1      -0.008   3.946   0.576  0.00  0.00    -0.025 A 
ATOM     23  C   UNL     1       0.006   5.323   0.685  0.00  0.00    +0.005 A 
ATOM     24  C   UNL     1       1.157   6.029   0.387  0.00  0.00    +0.000 A 
ATOM     25  C   UNL     1       2.296   5.360  -0.021  0.00  0.00    +0.002 A 
ATOM     26  C   UNL     1       2.286   3.985  -0.138  0.00  0.00    +0.023 A 
ATOM     27  C   UNL     1       1.130   3.272   0.156  0.00  0.00    +0.037 A 
ATOM     28  N   UNL     1       1.116   1.880   0.026  0.00  0.00    -0.285 N 
ATOM     29  C   UNL     1      -0.045   1.203   0.026  0.00  0.00    +0.221 C 
ATOM     30  O   UNL     1      -0.033  -0.010   0.020  0.00  0.00    -0.275 OA
ATOM     31  H   UNL     1       1.953   1.399  -0.065  0.00  0.00    +0.155 HD
ENDBRANCH  19  20
ENDBRANCH  18  19
ENDBRANCH   2  18
TORSDOF 6
