REMARK  Name = ZINC04324302
REMARK  4 active torsions:
REMARK  status: ('A' for Active; 'I' for Inactive)
REMARK    1  A    between atoms: C_1  and  C_2
REMARK    2  A    between atoms: C_4  and  N_11
REMARK    3  A    between atoms: C_17  and  C_19
REMARK    4  A    between atoms: C_23  and  C_25
REMARK                            x       y       z     vdW  Elec       q    Type
REMARK                         _______ _______ _______ _____ _____    ______ ____
ROOT
ATOM      1  N   UNL     1      -0.913   3.056  -1.135  0.00  0.00    -0.326 N 
ATOM      2  C   UNL     1      -0.806   1.592  -1.209  0.00  0.00    +0.124 C 
ATOM      3  C   UNL     1      -0.056   1.075   0.023  0.00  0.00    +0.126 C 
ATOM      4  N   UNL     1      -0.722   1.589   1.230  0.00  0.00    -0.298 N 
ATOM      5  C   UNL     1      -0.992   3.034   1.312  0.00  0.00    +0.126 C 
ATOM      6  C   UNL     1      -1.705   3.474   0.029  0.00  0.00    +0.124 C 
ATOM      7  C   UNL     1      -1.078   0.760   2.230  0.00  0.00    +0.220 C 
ATOM      8  O   UNL     1      -0.852  -0.428   2.142  0.00  0.00    -0.275 OA
ENDROOT
BRANCH   1  12
ATOM      9  C   UNL     1      -4.545   5.347  -3.515  0.00  0.00    +0.063 C 
ATOM     10  C   UNL     1      -3.188   4.691  -3.513  0.00  0.00    +0.015 A 
ATOM     11  C   UNL     1      -2.689   4.177  -2.324  0.00  0.00    +0.044 A 
ATOM     12  C   UNL     1      -1.440   3.575  -2.307  0.00  0.00    +0.041 A 
ATOM     13  C   UNL     1      -0.723   3.503  -3.526  0.00  0.00    +0.019 A 
ATOM     14  C   UNL     1       0.543   2.905  -3.593  0.00  0.00    +0.012 A 
ATOM     15  C   UNL     1       1.201   2.855  -4.785  0.00  0.00    +0.001 A 
ATOM     16  C   UNL     1       0.632   3.389  -5.938  0.00  0.00    +0.002 A 
ATOM     17  C   UNL     1      -0.596   3.977  -5.907  0.00  0.00    +0.026 A 
ATOM     18  C   UNL     1      -1.305   4.048  -4.695  0.00  0.00    +0.048 A 
ATOM     19  N   UNL     1      -2.546   4.649  -4.703  0.00  0.00    -0.358 N 
ATOM     20  H   UNL     1      -2.957   5.041  -5.559  0.00  0.00    +0.166 HD
ENDBRANCH   1  12
BRANCH   7  21
ATOM     21  C   UNL     1      -1.759   1.308   3.457  0.00  0.00    +0.089 C 
ATOM     22  C   UNL     1      -3.267   1.546   3.271  0.00  0.00    +0.014 C 
ATOM     23  C   UNL     1      -3.448   1.000   4.699  0.00  0.00    +0.016 C 
ATOM     24  C   UNL     1      -2.134   0.230   4.487  0.00  0.00    +0.114 C 
BRANCH  24  25
ATOM     25  C   UNL     1      -1.238   0.215   5.699  0.00  0.00    +0.360 C 
ATOM     26  O   UNL     1      -0.329   1.006   5.788  0.00  0.00    -0.246 OA
ATOM     27  O   UNL     1      -1.451  -0.676   6.680  0.00  0.00    -0.246 OA
ENDBRANCH  24  25
ENDBRANCH   7  21
TORSDOF 3
