REMARK  Name = ZINC35227856
REMARK  10 active torsions:
REMARK  status: ('A' for Active; 'I' for Inactive)
REMARK    1  A    between atoms: C_1  and  C_2
REMARK    2  A    between atoms: N_5  and  C_8
REMARK    3  A    between atoms: C_11  and  N_20
REMARK    4  A    between atoms: C_13  and  C_14
REMARK    5  A    between atoms: N_16  and  C_17
REMARK    6  A    between atoms: C_17  and  C_18
REMARK    7  A    between atoms: C_17  and  C_19
REMARK    8  A    between atoms: N_23  and  C_24
REMARK    9  A    between atoms: C_27  and  S_30
REMARK   10  A    between atoms: S_30  and  C_31
REMARK                            x       y       z     vdW  Elec       q    Type
REMARK                         _______ _______ _______ _____ _____    ______ ____
ROOT
ATOM      1  C   UNL     1      -0.909  -3.540   2.089  0.00  0.00    +0.042 A 
ATOM      2  C   UNL     1      -0.699  -4.896   1.869  0.00  0.00    +0.026 A 
ATOM      3  C   UNL     1      -1.242  -5.829   2.727  0.00  0.00    +0.025 A 
ATOM      4  C   UNL     1      -2.003  -5.422   3.818  0.00  0.00    +0.036 A 
ATOM      5  C   UNL     1      -2.222  -4.076   4.051  0.00  0.00    +0.038 A 
ATOM      6  C   UNL     1      -1.671  -3.123   3.191  0.00  0.00    +0.059 A 
ENDROOT
BRANCH   1  11
ATOM      7  C   UNL     1       2.086  -1.766  -2.157  0.00  0.00    +0.007 C 
ATOM      8  C   UNL     1       1.161  -1.614  -0.947  0.00  0.00    -0.011 C 
ATOM      9  C   UNL     1       1.856  -2.169   0.298  0.00  0.00    +0.022 C 
ATOM     10  C   UNL     1       0.941  -1.984   1.513  0.00  0.00    +0.105 C 
ATOM     11  N   UNL     1      -0.361  -2.600   1.223  0.00  0.00    -0.329 N 
ATOM     12  C   UNL     1      -1.073  -2.203   0.001  0.00  0.00    +0.105 C 
ATOM     13  C   UNL     1      -0.136  -2.386  -1.197  0.00  0.00    +0.022 C 
ENDBRANCH   1  11
BRANCH   4  14
ATOM     14  N   UNL     1      -2.551  -6.379   4.684  0.00  0.00    -0.269 N 
ATOM     15  C   UNL     1      -2.947  -7.574   4.203  0.00  0.00    +0.308 C 
ATOM     16  O   UNL     1      -2.917  -7.789   3.007  0.00  0.00    -0.252 OA
ATOM     17  N   UNL     1      -3.376  -8.532   5.049  0.00  0.00    -0.269 N 
ATOM     18  H   UNL     1      -2.645  -6.181   5.629  0.00  0.00    +0.156 HD
ATOM     19  H   UNL     1      -3.473  -8.337   5.994  0.00  0.00    +0.156 HD
BRANCH  17  20
ATOM     20  C   UNL     1      -3.683  -9.810   4.563  0.00  0.00    +0.035 A 
ATOM     21  C   UNL     1      -4.703 -10.550   5.148  0.00  0.00    +0.024 A 
ATOM     22  C   UNL     1      -5.005 -11.809   4.670  0.00  0.00    +0.016 A 
ATOM     23  C   UNL     1      -4.290 -12.336   3.602  0.00  0.00    +0.008 A 
ATOM     24  C   UNL     1      -3.270 -11.596   3.016  0.00  0.00    +0.016 A 
ATOM     25  C   UNL     1      -2.972 -10.335   3.492  0.00  0.00    +0.024 A 
BRANCH  23  26
ATOM     26  S   UNL     1      -4.675 -13.944   2.992  0.00  0.00    -0.129 S 
ATOM     27  C   UNL     1      -3.502 -14.188   1.630  0.00  0.00    +0.090 C 
ENDBRANCH  23  26
ENDBRANCH  17  20
ENDBRANCH   4  14
BRANCH   6  28
ATOM     28  C   UNL     1      -1.894  -1.686   3.436  0.00  0.00    +0.246 C 
ATOM     29  O   UNL     1      -1.504  -0.864   2.629  0.00  0.00    -0.270 OA
ATOM     30  N   UNL     1      -2.531  -1.284   4.553  0.00  0.00    -0.309 N 
ATOM     31  H   UNL     1      -2.842  -1.940   5.197  0.00  0.00    +0.149 HD
BRANCH  30  32
ATOM     32  C   UNL     1      -2.752   0.143   4.797  0.00  0.00    +0.067 C 
ATOM     33  C   UNL     1      -3.963   0.322   5.716  0.00  0.00    +0.027 C 
ATOM     34  C   UNL     1      -1.513   0.746   5.463  0.00  0.00    +0.027 C 
ENDBRANCH  30  32
ENDBRANCH   6  28
TORSDOF 6
