REMARK  Name = ZINC39690813
REMARK  9 active torsions:
REMARK  status: ('A' for Active; 'I' for Inactive)
REMARK    1  A    between atoms: C_1  and  C_2
REMARK    2  A    between atoms: C_2  and  C_4
REMARK    3  A    between atoms: C_4  and  N_5
REMARK    4  A    between atoms: C_6  and  C_8
REMARK    5  A    between atoms: C_19  and  C_21
REMARK    6  A    between atoms: C_23  and  O_29
REMARK    7  A    between atoms: C_25  and  O_27
REMARK    8  A    between atoms: O_27  and  C_28
REMARK    9  A    between atoms: O_29  and  C_30
REMARK                            x       y       z     vdW  Elec       q    Type
REMARK                         _______ _______ _______ _____ _____    ______ ____
ROOT
ATOM      1  C   UNL     1      -3.733  -1.664  -3.409  0.00  0.00    +0.100 C 
ATOM      2  C   UNL     1      -4.066  -0.165  -3.574  0.00  0.00    +0.121 C 
ATOM      3  N   UNL     1      -3.806   0.121  -5.005  0.00  0.00    -0.296 N 
ATOM      4  C   UNL     1      -4.304  -1.081  -5.717  0.00  0.00    +0.115 C 
ATOM      5  C   UNL     1      -3.893  -2.263  -4.816  0.00  0.00    -0.004 C 
ATOM      6  C   UNL     1      -2.570  -2.853  -5.293  0.00  0.00    -0.010 C 
ATOM      7  C   UNL     1      -2.768  -3.492  -6.671  0.00  0.00    -0.082 C 
ATOM      8  N   UNL     1      -3.792  -4.540  -6.583  0.00  0.00    +0.379 N 
ATOM      9  C   UNL     1      -5.084  -3.950  -6.213  0.00  0.00    -0.082 C 
ATOM     10  C   UNL     1      -4.983  -3.330  -4.816  0.00  0.00    -0.010 C 
ATOM     11  C   UNL     1      -3.244   1.224  -5.538  0.00  0.00    +0.247 C 
ATOM     12  O   UNL     1      -2.769   2.075  -4.813  0.00  0.00    -0.270 OA
ATOM     13  H   UNL     1      -3.878  -5.000  -7.477  0.00  0.00    -0.086 HD
ATOM     14  H   UNL     1      -3.520  -5.216  -5.885  0.00  0.00    -0.086 HD
ENDROOT
BRANCH  11  15
ATOM     15  C   UNL     1      -3.206   1.397  -7.006  0.00  0.00    +0.044 A 
ATOM     16  C   UNL     1      -4.094   0.692  -7.818  0.00  0.00    +0.059 A 
ATOM     17  C   UNL     1      -4.055   0.858  -9.193  0.00  0.00    +0.124 A 
ATOM     18  C   UNL     1      -3.133   1.724  -9.762  0.00  0.00    +0.091 A 
ATOM     19  C   UNL     1      -2.248   2.428  -8.959  0.00  0.00    +0.124 A 
ATOM     20  C   UNL     1      -2.284   2.272  -7.583  0.00  0.00    +0.059 A 
BRANCH  19  21
ATOM     21  O   UNL     1      -1.347   3.276  -9.522  0.00  0.00    -0.495 OA
ATOM     22  C   UNL     1      -1.369   3.392 -10.946  0.00  0.00    +0.277 C 
ENDBRANCH  19  21
BRANCH  17  23
ATOM     23  O   UNL     1      -4.920   0.171  -9.984  0.00  0.00    -0.495 OA
ATOM     24  C   UNL     1      -4.824   0.390 -11.393  0.00  0.00    +0.277 C 
ENDBRANCH  17  23
ENDBRANCH  11  15
BRANCH   1  26
ATOM     25  N   UNL     1      -1.960  -2.959  -2.269  0.00  0.00    -0.311 N 
ATOM     26  C   UNL     1      -2.316  -1.837  -2.924  0.00  0.00    +0.218 C 
ATOM     27  O   UNL     1      -1.497  -0.965  -3.123  0.00  0.00    -0.275 OA
ATOM     28  H   UNL     1      -2.615  -3.657  -2.110  0.00  0.00    +0.149 HD
BRANCH  25  29
ATOM     29  C   UNL     1      -0.583  -3.127  -1.797  0.00  0.00    +0.134 C 
BRANCH  29  31
ATOM     30  C   UNL     1      -0.810  -4.587   0.355  0.00  0.00    +0.040 C 
ATOM     31  C   UNL     1      -0.448  -4.457  -1.103  0.00  0.00    -0.063 C 
ATOM     32  C   UNL     1      -0.017  -5.502  -1.766  0.00  0.00    +0.009 C 
ENDBRANCH  29  31
ENDBRANCH  25  29
ENDBRANCH   1  26
TORSDOF 6
