REMARK  Name = ZINC10246101
REMARK  6 active torsions:
REMARK  status: ('A' for Active; 'I' for Inactive)
REMARK    1  A    between atoms: C_10  and  O_11
REMARK    2  A    between atoms: O_11  and  C_12
REMARK    3  A    between atoms: C_12  and  C_13
REMARK    4  A    between atoms: N_15  and  C_16
REMARK    5  A    between atoms: C_24  and  C_25
REMARK    6  A    between atoms: N_27  and  C_28
REMARK                            x       y       z     vdW  Elec       q    Type
REMARK                         _______ _______ _______ _____ _____    ______ ____
ROOT
ATOM      1  C   UNL     1      -7.281   3.945  -0.273  0.00  0.00    +0.092 A 
ATOM      2  C   UNL     1      -8.636   3.507   0.086  0.00  0.00    +0.042 A 
ATOM      3  C   UNL     1      -9.193   2.285   0.462  0.00  0.00    +0.013 A 
ATOM      4  C   UNL     1     -10.527   2.207   0.747  0.00  0.00    +0.001 A 
ATOM      5  C   UNL     1     -11.329   3.338   0.671  0.00  0.00    +0.004 A 
ATOM      6  C   UNL     1     -10.796   4.555   0.307  0.00  0.00    +0.047 A 
ATOM      7  C   UNL     1      -9.441   4.658   0.013  0.00  0.00    +0.138 A 
ATOM      8  O   UNL     1      -8.656   5.687  -0.362  0.00  0.00    -0.448 OA
ATOM      9  C   UNL     1      -7.377   5.284  -0.535  0.00  0.00    +0.212 A 
ENDROOT
BRANCH   1  12
ATOM     10  C   UNL     1      -6.031   2.056   0.430  0.00  0.00    +0.255 C 
ATOM     11  O   UNL     1      -6.903   1.790   1.231  0.00  0.00    -0.272 OA
ATOM     12  N   UNL     1      -6.137   3.158  -0.338  0.00  0.00    -0.279 N 
ATOM     13  H   UNL     1      -5.414   3.402  -0.938  0.00  0.00    +0.155 HD
BRANCH  10  14
ATOM     14  C   UNL     1      -4.831   1.155   0.295  0.00  0.00    +0.324 C 
BRANCH  14  15
ATOM     15  O   UNL     1      -4.949   0.064   1.210  0.00  0.00    -0.482 OA
BRANCH  15  25
ATOM     16  C   UNL     1      -4.036  -4.141   3.794  0.00  0.00    +0.001 A 
ATOM     17  C   UNL     1      -5.079  -3.217   3.803  0.00  0.00    +0.001 A 
ATOM     18  C   UNL     1      -5.068  -2.139   2.972  0.00  0.00    +0.012 A 
ATOM     19  C   UNL     1      -3.990  -1.952   2.091  0.00  0.00    +0.024 A 
ATOM     20  C   UNL     1      -2.929  -2.891   2.081  0.00  0.00    -0.014 A 
ATOM     21  C   UNL     1      -2.976  -3.992   2.954  0.00  0.00    +0.008 A 
ATOM     22  C   UNL     1      -1.850  -2.703   1.200  0.00  0.00    +0.009 A 
ATOM     23  C   UNL     1      -1.836  -1.625   0.369  0.00  0.00    +0.004 A 
ATOM     24  C   UNL     1      -2.873  -0.697   0.378  0.00  0.00    +0.046 A 
ATOM     25  C   UNL     1      -3.943  -0.848   1.216  0.00  0.00    +0.129 A 
ENDBRANCH  15  25
ENDBRANCH  14  15
ENDBRANCH  10  14
ENDBRANCH   1  12
BRANCH   9  26
ATOM     26  C   UNL     1      -6.268   6.145  -0.940  0.00  0.00    +0.285 C 
ATOM     27  O   UNL     1      -5.182   5.659  -1.198  0.00  0.00    -0.266 OA
ATOM     28  N   UNL     1      -6.448   7.478  -1.028  0.00  0.00    -0.279 N 
ATOM     29  H   UNL     1      -7.331   7.858  -0.899  0.00  0.00    +0.155 HD
BRANCH  28  30
ATOM     30  C   UNL     1      -5.361   8.314  -1.306  0.00  0.00    +0.035 A 
ATOM     31  C   UNL     1      -5.545   9.468  -2.058  0.00  0.00    +0.026 A 
ATOM     32  C   UNL     1      -4.471  10.294  -2.326  0.00  0.00    +0.041 A 
ATOM     33  C   UNL     1      -3.210   9.968  -1.857  0.00  0.00    +0.142 A 
ATOM     34  C   UNL     1      -3.023   8.815  -1.112  0.00  0.00    +0.078 A 
ATOM     35  C   UNL     1      -4.096   7.988  -0.836  0.00  0.00    +0.046 A 
ATOM     36 CL   UNL     1      -1.440   8.409  -0.525  0.00  0.00    -0.081 Cl
ATOM     37  F   UNL     1      -2.161  10.776  -2.126  0.00  0.00    -0.204 F 
ENDBRANCH  28  30
ENDBRANCH   9  26
TORSDOF 6
