REMARK  Name = ZINC11911777
REMARK  11 active torsions:
REMARK  status: ('A' for Active; 'I' for Inactive)
REMARK    1  A    between atoms: C_1  and  C_2
REMARK    2  A    between atoms: C_2  and  C_3
REMARK    3  A    between atoms: C_3  and  C_14
REMARK    4  A    between atoms: N_6  and  C_10
REMARK    5  A    between atoms: C_10  and  C_11
REMARK    6  A    between atoms: C_11  and  C_13
REMARK    7  A    between atoms: C_19  and  C_20
REMARK    8  A    between atoms: C_19  and  N_66
REMARK    9  A    between atoms: C_25  and  C_26
REMARK   10  A    between atoms: C_29  and  O_32
REMARK   11  A    between atoms: O_32  and  C_33
REMARK                            x       y       z     vdW  Elec       q    Type
REMARK                         _______ _______ _______ _____ _____    ______ ____
ROOT
ATOM      1  C   UNL     1      -4.785   0.949   4.715  0.00  0.00    +0.018 C 
ATOM      2  C   UNL     1      -5.250   0.240   5.990  0.00  0.00    -0.013 C 
ATOM      3  C   UNL     1      -6.748  -0.054   5.886  0.00  0.00    -0.078 C 
ATOM      4  C   UNL     1      -6.608  -0.220   3.473  0.00  0.00    -0.078 C 
ATOM      5  C   UNL     1      -5.105   0.069   3.504  0.00  0.00    -0.013 C 
ATOM      6  N   UNL     1      -6.987  -0.925   4.715  0.00  0.00    +0.382 N 
ATOM      7  H   UNL     1      -6.412  -1.771   4.806  0.00  0.00    -0.081 HD
ENDROOT
BRANCH   1   8
ATOM      8  C   UNL     1      -3.276   1.191   4.786  0.00  0.00    +0.115 C 
ATOM      9  C   UNL     1      -2.785   1.874   3.525  0.00  0.00    +0.247 C 
ATOM     10  O   UNL     1      -3.116   2.962   3.105  0.00  0.00    -0.273 OA
ATOM     11  N   UNL     1      -1.904   1.020   2.967  0.00  0.00    -0.220 N 
ATOM     12  C   UNL     1      -1.775  -0.098   3.690  0.00  0.00    +0.310 C 
ATOM     13  O   UNL     1      -1.041  -1.018   3.387  0.00  0.00    -0.252 OA
ATOM     14  N   UNL     1      -2.546  -0.089   4.793  0.00  0.00    -0.285 N 
ATOM     15  H   UNL     1      -2.610  -0.789   5.461  0.00  0.00    +0.151 HD
BRANCH   8  17
ATOM     16  C   UNL     1      -1.405   2.204   6.097  0.00  0.00    +0.006 C 
ATOM     17  C   UNL     1      -2.923   2.022   6.021  0.00  0.00    +0.032 C 
ENDBRANCH   8  17
BRANCH  11  18
ATOM     18  C   UNL     1      -1.181   1.281   1.720  0.00  0.00    +0.148 C 
BRANCH  18  19
ATOM     19  C   UNL     1       0.120   1.976   2.029  0.00  0.00    -0.062 C 
ATOM     20  C   UNL     1       1.221   1.279   2.155  0.00  0.00    +0.009 C 
ATOM     21  C   UNL     1       0.153   3.474   2.193  0.00  0.00    +0.040 C 
ENDBRANCH  18  19
ENDBRANCH  11  18
ENDBRANCH   1   8
BRANCH   6  22
ATOM     22  C   UNL     1      -8.411  -1.316   4.659  0.00  0.00    -0.039 C 
BRANCH  22  23
ATOM     23  C   UNL     1      -8.806  -1.921   5.982  0.00  0.00    -0.019 A 
ATOM     24  C   UNL     1      -9.588  -1.342   6.919  0.00  0.00    +0.107 A 
ATOM     25  N   UNL     1      -9.704  -2.202   7.954  0.00  0.00    -0.284 N 
ATOM     26  H   UNL     1     -10.225  -2.044   8.793  0.00  0.00    +0.188 HD
ATOM     27  N   UNL     1      -8.970  -3.355   7.647  0.00  0.00    -0.174 NA
ATOM     28  C   UNL     1      -8.432  -3.192   6.457  0.00  0.00    +0.094 A 
BRANCH  28  29
ATOM     29  C   UNL     1      -7.578  -4.175   5.744  0.00  0.00    +0.003 A 
ATOM     30  C   UNL     1      -7.771  -4.410   4.384  0.00  0.00    +0.013 A 
ATOM     31  C   UNL     1      -6.973  -5.320   3.722  0.00  0.00    +0.046 A 
ATOM     32  C   UNL     1      -5.985  -6.009   4.412  0.00  0.00    +0.120 A 
ATOM     33  C   UNL     1      -5.794  -5.780   5.768  0.00  0.00    +0.046 A 
ATOM     34  C   UNL     1      -6.585  -4.868   6.434  0.00  0.00    +0.013 A 
BRANCH  32  35
ATOM     35  O   UNL     1      -5.204  -6.909   3.759  0.00  0.00    -0.495 OA
ATOM     36  C   UNL     1      -5.455  -7.094   2.365  0.00  0.00    +0.277 C 
ENDBRANCH  32  35
ENDBRANCH  28  29
ENDBRANCH  22  23
ENDBRANCH   6  22
TORSDOF 8
