REMARK  Name = ZINC09034098
REMARK  5 active torsions:
REMARK  status: ('A' for Active; 'I' for Inactive)
REMARK    1  A    between atoms: C_1  and  O_2
REMARK    2  A    between atoms: O_2  and  C_3
REMARK    3  A    between atoms: C_6  and  C_9
REMARK    4  A    between atoms: N_10  and  N_11
REMARK    5  A    between atoms: C_12  and  C_30
REMARK                            x       y       z     vdW  Elec       q    Type
REMARK                         _______ _______ _______ _____ _____    ______ ____
ROOT
ATOM      1  N   UNL     1       5.375  -3.041  -0.456  0.00  0.00    -0.204 N 
ATOM      2  C   UNL     1       3.900  -3.125  -0.347  0.00  0.00    +0.080 C 
ATOM      3  C   UNL     1       2.178  -1.460   0.308  0.00  0.00    -0.020 C 
ATOM      4  C   UNL     1       2.080   0.042   0.498  0.00  0.00    +0.004 A 
ATOM      5  C   UNL     1       3.152   0.869   0.447  0.00  0.00    -0.022 A 
ATOM      6  C   UNL     1       2.664   2.215   0.639  0.00  0.00    +0.003 A 
ATOM      7  C   UNL     1       3.298   3.461   0.678  0.00  0.00    +0.010 A 
ATOM      8  C   UNL     1       2.500   4.558   0.890  0.00  0.00    +0.001 A 
ATOM      9  C   UNL     1       1.129   4.449   1.060  0.00  0.00    +0.002 A 
ATOM     10  C   UNL     1       0.476   3.229   1.030  0.00  0.00    +0.026 A 
ATOM     11  C   UNL     1       1.259   2.098   0.811  0.00  0.00    +0.047 A 
ATOM     12  N   UNL     1       0.945   0.772   0.721  0.00  0.00    -0.359 N 
ATOM     13  H   UNL     1       0.052   0.403   0.804  0.00  0.00    +0.166 HD
ATOM     14  C   UNL     1       4.572   0.388   0.229  0.00  0.00    +0.031 C 
ATOM     15  C   UNL     1       4.555  -1.114   0.510  0.00  0.00    +0.029 C 
ATOM     16  C   UNL     1       5.783  -1.836   0.023  0.00  0.00    +0.221 C 
ATOM     17  O   UNL     1       6.923  -1.421   0.054  0.00  0.00    -0.276 OA
ATOM     18  N   UNL     1       3.536  -1.716  -0.306  0.00  0.00    +0.408 N 
ATOM     19  H   UNL     1       3.551  -1.324  -1.255  0.00  0.00    -0.077 HD
ENDROOT
BRANCH   2  20
ATOM     20  C   UNL     1       3.502  -3.823   0.928  0.00  0.00    -0.042 A 
ATOM     21  C   UNL     1       4.179  -3.555   2.103  0.00  0.00    +0.004 A 
ATOM     22  C   UNL     1       3.812  -4.191   3.273  0.00  0.00    +0.015 A 
ATOM     23  C   UNL     1       2.772  -5.104   3.267  0.00  0.00    +0.018 A 
ATOM     24  C   UNL     1       2.098  -5.375   2.090  0.00  0.00    +0.015 A 
ATOM     25  C   UNL     1       2.463  -4.735   0.921  0.00  0.00    +0.004 A 
ATOM     26 BR   UNL     1       2.273  -5.979   4.867  0.00  0.00    -0.050 Br
ENDBRANCH   2  20
BRANCH   1  28
ATOM     27  C   UNL     1       7.496  -3.852  -1.014  0.00  0.00    +0.138 C 
ATOM     28  N   UNL     1       6.212  -4.041  -0.969  0.00  0.00    -0.186 NA
BRANCH  27  32
ATOM     29  C   UNL     1      10.033  -6.881  -2.568  0.00  0.00    +0.120 A 
ATOM     30  C   UNL     1      10.579  -5.689  -2.108  0.00  0.00    +0.046 A 
ATOM     31  C   UNL     1       9.759  -4.703  -1.603  0.00  0.00    +0.013 A 
ATOM     32  C   UNL     1       8.377  -4.904  -1.554  0.00  0.00    -0.005 A 
ATOM     33  C   UNL     1       7.833  -6.107  -2.012  0.00  0.00    +0.013 A 
ATOM     34  C   UNL     1       8.660  -7.084  -2.522  0.00  0.00    +0.046 A 
BRANCH  29  36
ATOM     35  C   UNL     1      10.218  -9.050  -3.522  0.00  0.00    +0.277 C 
ATOM     36  O   UNL     1      10.845  -7.849  -3.066  0.00  0.00    -0.495 OA
ENDBRANCH  29  36
ENDBRANCH  27  32
ENDBRANCH   1  28
TORSDOF 4
