REMARK  Name = ZINC20905407
REMARK  7 active torsions:
REMARK  status: ('A' for Active; 'I' for Inactive)
REMARK    1  A    between atoms: C_10  and  C_11
REMARK    2  A    between atoms: N_12  and  N_13
REMARK    3  A    between atoms: C_16  and  S_19
REMARK    4  A    between atoms: S_19  and  C_20
REMARK    5  A    between atoms: C_20  and  C_21
REMARK    6  A    between atoms: N_23  and  C_24
REMARK    7  A    between atoms: C_28  and  C_30
REMARK                            x       y       z     vdW  Elec       q    Type
REMARK                         _______ _______ _______ _____ _____    ______ ____
ROOT
ATOM      1  N   UNL     1      -1.819  -1.077   0.043  0.00  0.00    -0.205 N 
ATOM      2  C   UNL     1      -0.566  -0.485  -0.005  0.00  0.00    +0.232 A 
ATOM      3  N   UNL     1      -0.311   0.858  -0.023  0.00  0.00    -0.186 NA
ATOM      4  C   UNL     1       1.043   1.031  -0.071  0.00  0.00    +0.211 A 
ATOM      5  N   UNL     1       1.603  -0.155  -0.083  0.00  0.00    -0.144 NA
ATOM      6  N   UNL     1       0.583  -1.115  -0.042  0.00  0.00    -0.245 N 
ATOM      7  H   UNL     1      -2.723  -0.450   0.071  0.00  0.00    +0.177 HD
ATOM      8  H   UNL     1       0.608  -2.215  -0.035  0.00  0.00    +0.192 HD
ENDROOT
BRANCH   1  10
ATOM      9  C   UNL     1      -3.110  -3.028   0.101  0.00  0.00    +0.139 C 
ATOM     10  N   UNL     1      -1.935  -2.473   0.056  0.00  0.00    -0.188 NA
BRANCH   9  20
ATOM     11  C   UNL     1       0.169  -7.000   0.365  0.00  0.00    +0.001 A 
ATOM     12  C   UNL     1       0.325  -5.616   0.354  0.00  0.00    +0.001 A 
ATOM     13  C   UNL     1      -0.757  -4.791   0.274  0.00  0.00    +0.009 A 
ATOM     14  C   UNL     1      -2.043  -5.340   0.201  0.00  0.00    -0.009 A 
ATOM     15  C   UNL     1      -2.205  -6.747   0.211  0.00  0.00    -0.017 A 
ATOM     16  C   UNL     1      -1.067  -7.568   0.295  0.00  0.00    +0.008 A 
ATOM     17  C   UNL     1      -3.496  -7.294   0.137  0.00  0.00    +0.008 A 
ATOM     18  C   UNL     1      -4.589  -6.486   0.056  0.00  0.00    +0.001 A 
ATOM     19  C   UNL     1      -4.479  -5.103   0.050  0.00  0.00    +0.010 A 
ATOM     20  C   UNL     1      -3.231  -4.493   0.114  0.00  0.00    +0.002 A 
ENDBRANCH   9  20
ENDBRANCH   1  10
BRANCH   4  21
ATOM     21  S   UNL     1       1.889   2.576  -0.111  0.00  0.00    -0.075 S 
BRANCH  21  22
ATOM     22  C   UNL     1       3.602   1.995  -0.167  0.00  0.00    +0.173 C 
BRANCH  22  23
ATOM     23  C   UNL     1       4.533   3.179  -0.207  0.00  0.00    +0.227 C 
ATOM     24  O   UNL     1       4.083   4.305  -0.199  0.00  0.00    -0.275 OA
ATOM     25  N   UNL     1       5.866   2.987  -0.252  0.00  0.00    -0.285 N 
ATOM     26  H   UNL     1       6.278   1.969  -0.183  0.00  0.00    +0.155 HD
BRANCH  25  27
ATOM     27  C   UNL     1       6.727   4.082  -0.387  0.00  0.00    +0.035 A 
ATOM     28  C   UNL     1       7.901   3.958  -1.121  0.00  0.00    +0.023 A 
ATOM     29  C   UNL     1       8.752   5.037  -1.262  0.00  0.00    +0.003 A 
ATOM     30  C   UNL     1       8.448   6.244  -0.664  0.00  0.00    +0.019 A 
ATOM     31  C   UNL     1       7.274   6.378   0.080  0.00  0.00    +0.054 A 
ATOM     32  C   UNL     1       6.412   5.289   0.217  0.00  0.00    +0.042 A 
BRANCH  31  33
ATOM     33  C   UNL     1       6.956   7.628   0.701  0.00  0.00    +0.099 C 
ATOM     34  N   UNL     1       6.704   8.620   1.194  0.00  0.00    -0.191 NA
ENDBRANCH  31  33
ENDBRANCH  25  27
ENDBRANCH  22  23
ENDBRANCH  21  22
ENDBRANCH   4  21
TORSDOF 7
