REMARK  Name = ZINC13936151
REMARK  8 active torsions:
REMARK  status: ('A' for Active; 'I' for Inactive)
REMARK    1  A    between atoms: C_1  and  C_2
REMARK    2  A    between atoms: C_7  and  N_8
REMARK    3  A    between atoms: N_8  and  C_9
REMARK    4  A    between atoms: C_9  and  N_11
REMARK    5  A    between atoms: N_11  and  C_12
REMARK    6  A    between atoms: C_15  and  S_18
REMARK    7  A    between atoms: S_18  and  N_21
REMARK    8  A    between atoms: N_21  and  C_22
REMARK                            x       y       z     vdW  Elec       q    Type
REMARK                         _______ _______ _______ _____ _____    ______ ____
ROOT
ATOM      1  C   UNL     1       2.925   0.026   3.198  0.00  0.00    +0.033 A 
ATOM      2  C   UNL     1       1.609   0.449   3.064  0.00  0.00    +0.025 A 
ATOM      3  C   UNL     1       1.181   1.000   1.872  0.00  0.00    +0.030 A 
ATOM      4  C   UNL     1       2.060   1.130   0.813  0.00  0.00    +0.109 A 
ATOM      5  C   UNL     1       3.370   0.705   0.942  0.00  0.00    +0.030 A 
ATOM      6  C   UNL     1       3.806   0.159   2.132  0.00  0.00    +0.025 A 
ENDROOT
BRANCH   4   7
ATOM      7  S   UNL     1       1.509   1.834  -0.706  0.00  0.00    +0.072 S 
ATOM      8  O   UNL     1       0.090   1.758  -0.697  0.00  0.00    -0.150 OA
ATOM      9  O   UNL     1       2.297   1.249  -1.734  0.00  0.00    -0.150 OA
BRANCH   7  10
ATOM     10  N   UNL     1       1.898   3.443  -0.669  0.00  0.00    -0.216 N 
ATOM     11  H   UNL     1       2.505   3.811  -1.331  0.00  0.00    +0.174 HD
BRANCH  10  12
ATOM     12  C   UNL     1       1.355   4.270   0.318  0.00  0.00    +0.050 A 
ATOM     13  C   UNL     1       0.003   4.193   0.625  0.00  0.00    +0.026 A 
ATOM     14  C   UNL     1      -0.530   5.007   1.605  0.00  0.00    +0.023 A 
ATOM     15  C   UNL     1       0.280   5.909   2.273  0.00  0.00    +0.059 A 
ATOM     16  C   UNL     1       1.627   5.993   1.965  0.00  0.00    +0.061 A 
ATOM     17  C   UNL     1       2.166   5.176   0.989  0.00  0.00    +0.046 A 
ATOM     18 CL   UNL     1       2.639   7.126   2.805  0.00  0.00    -0.082 Cl
ATOM     19 CL   UNL     1      -0.395   6.935   3.499  0.00  0.00    -0.082 Cl
ENDBRANCH  10  12
ENDBRANCH   7  10
ENDBRANCH   4   7
BRANCH   1  20
ATOM     20  N   UNL     1       3.363  -0.531   4.404  0.00  0.00    -0.297 N 
ATOM     21  H   UNL     1       3.127  -0.111   5.246  0.00  0.00    +0.154 HD
BRANCH  20  22
ATOM     22  C   UNL     1       4.112  -1.652   4.396  0.00  0.00    +0.139 C 
ATOM     23  S   UNL     1       4.616  -2.334   2.909  0.00  0.00    -0.018 S 
BRANCH  22  24
ATOM     24  N   UNL     1       4.464  -2.235   5.559  0.00  0.00    -0.296 N 
ATOM     25  H   UNL     1       4.111  -1.898   6.397  0.00  0.00    +0.154 HD
BRANCH  24  32
ATOM     26  C   UNL     1       6.542  -2.295   7.501  0.00  0.00    +0.045 C 
ATOM     27  C   UNL     1       6.367  -3.396   6.487  0.00  0.00    -0.029 A 
ATOM     28  C   UNL     1       7.229  -4.475   6.482  0.00  0.00    +0.005 A 
ATOM     29  C   UNL     1       7.069  -5.486   5.552  0.00  0.00    +0.000 A 
ATOM     30  C   UNL     1       6.046  -5.420   4.624  0.00  0.00    +0.002 A 
ATOM     31  C   UNL     1       5.177  -4.347   4.627  0.00  0.00    +0.023 A 
ATOM     32  C   UNL     1       5.339  -3.327   5.556  0.00  0.00    +0.036 A 
ENDBRANCH  24  32
ENDBRANCH  22  24
ENDBRANCH  20  22
ENDBRANCH   1  20
TORSDOF 7
