REMARK  Name = ZINC14721650
REMARK  11 active torsions:
REMARK  status: ('A' for Active; 'I' for Inactive)
REMARK    1  A    between atoms: C_1  and  C_2
REMARK    2  A    between atoms: C_2  and  C_3
REMARK    3  A    between atoms: C_2  and  C_4
REMARK    4  A    between atoms: C_4  and  N_5
REMARK    5  A    between atoms: C_6  and  N_27
REMARK    6  A    between atoms: C_7  and  N_14
REMARK    7  A    between atoms: N_14  and  C_15
REMARK    8  A    between atoms: C_15  and  C_16
REMARK    9  A    between atoms: C_16  and  O_17
REMARK   10  A    between atoms: O_17  and  C_18
REMARK   11  A    between atoms: C_19  and  C_21
REMARK                            x       y       z     vdW  Elec       q    Type
REMARK                         _______ _______ _______ _____ _____    ______ ____
ROOT
ATOM      1  N   UNL     1       3.320   8.214  -0.750  0.00  0.00    -0.280 N 
ATOM      2  C   UNL     1       2.756   7.018  -0.371  0.00  0.00    +0.127 A 
ATOM      3  C   UNL     1       1.384   6.874  -0.425  0.00  0.00    +0.140 A 
ATOM      4  C   UNL     1       0.603   7.962  -0.858  0.00  0.00    +0.277 A 
ATOM      5  O   UNL     1      -0.611   7.864  -0.911  0.00  0.00    -0.266 OA
ATOM      6  N   UNL     1       1.206   9.114  -1.214  0.00  0.00    -0.273 N 
ATOM      7  H   UNL     1       0.652   9.887  -1.522  0.00  0.00    +0.173 HD
ATOM      8  C   UNL     1       2.544   9.234  -1.159  0.00  0.00    +0.331 A 
ATOM      9  O   UNL     1       3.063  10.285  -1.486  0.00  0.00    -0.246 OA
ENDROOT
BRANCH   3  10
ATOM     10  N   UNL     1       0.775   5.659  -0.048  0.00  0.00    -0.255 N 
ATOM     11  C   UNL     1       0.997   4.542  -0.768  0.00  0.00    +0.286 C 
ATOM     12  O   UNL     1       1.777   4.565  -1.703  0.00  0.00    -0.266 OA
BRANCH  11  13
ATOM     13  C   UNL     1       0.300   3.299  -0.425  0.00  0.00    +0.191 A 
ATOM     14  C   UNL     1       0.336   2.135  -1.140  0.00  0.00    +0.056 A 
ATOM     15  C   UNL     1      -0.468   1.214  -0.452  0.00  0.00    +0.058 A 
ATOM     16  C   UNL     1      -0.960   1.849   0.636  0.00  0.00    +0.171 A 
ATOM     17  O   UNL     1      -0.489   3.103   0.652  0.00  0.00    -0.444 OA
ATOM     18 BR   UNL     1      -2.116   1.090   1.925  0.00  0.00    -0.008 Br
ENDBRANCH  11  13
BRANCH  10  19
ATOM     19  C   UNL     1      -0.099   5.612   1.127  0.00  0.00    +0.142 C 
BRANCH  19  20
ATOM     20  C   UNL     1       0.699   5.119   2.337  0.00  0.00    +0.179 C 
BRANCH  20  21
ATOM     21  O   UNL     1       1.714   6.072   2.658  0.00  0.00    -0.381 OA
ATOM     22  C   UNL     1       2.521   5.706   3.780  0.00  0.00    +0.194 C 
ENDBRANCH  20  21
ENDBRANCH  19  20
ENDBRANCH  10  19
ENDBRANCH   3  10
BRANCH   2  23
ATOM     23  N   UNL     1       3.548   5.978   0.051  0.00  0.00    -0.343 N 
ATOM     24  H   UNL     1       3.151   5.115   0.249  0.00  0.00    +0.144 HD
ATOM     25  H   UNL     1       4.504   6.106   0.151  0.00  0.00    +0.144 HD
ENDBRANCH   2  23
BRANCH   1  26
ATOM     26  C   UNL     1       4.775   8.380  -0.703  0.00  0.00    +0.131 C 
BRANCH  26  28
ATOM     27  C   UNL     1       6.710   8.963   0.766  0.00  0.00    +0.009 C 
ATOM     28  C   UNL     1       5.184   8.908   0.673  0.00  0.00    +0.003 C 
ATOM     29  C   UNL     1       4.610  10.312   0.872  0.00  0.00    +0.009 C 
ENDBRANCH  26  28
ENDBRANCH   1  26
TORSDOF 8
