REMARK  Name = ZINC14274687
REMARK  6 active torsions:
REMARK  status: ('A' for Active; 'I' for Inactive)
REMARK    1  A    between atoms: C_8  and  C_10
REMARK    2  A    between atoms: N_12  and  C_13
REMARK    3  A    between atoms: C_17  and  N_19
REMARK    4  A    between atoms: N_19  and  C_20
REMARK    5  A    between atoms: C_20  and  N_22
REMARK    6  A    between atoms: C_23  and  C_25
REMARK                            x       y       z     vdW  Elec       q    Type
REMARK                         _______ _______ _______ _____ _____    ______ ____
ROOT
ATOM      1  C   UNL     1       2.027  -0.190   0.265  0.00  0.00    +0.036 A 
ATOM      2  C   UNL     1       2.519   1.021  -0.208  0.00  0.00    +0.023 A 
ATOM      3  C   UNL     1       1.652   2.060  -0.483  0.00  0.00    +0.004 A 
ATOM      4  C   UNL     1       0.293   1.901  -0.288  0.00  0.00    +0.023 A 
ATOM      5  C   UNL     1      -0.205   0.693   0.184  0.00  0.00    +0.034 A 
ATOM      6  C   UNL     1       0.663  -0.353   0.462  0.00  0.00    +0.046 A 
ENDROOT
BRANCH   1   9
ATOM      7  C   UNL     1       2.518  -2.516   0.334  0.00  0.00    +0.284 C 
ATOM      8  O   UNL     1       1.445  -2.747  -0.191  0.00  0.00    -0.266 OA
ATOM      9  N   UNL     1       2.905  -1.242   0.543  0.00  0.00    -0.279 N 
ATOM     10  H   UNL     1       3.793  -1.055   0.886  0.00  0.00    +0.155 HD
BRANCH   7  18
ATOM     11  C   UNL     1       5.758  -7.393   1.819  0.00  0.00    +0.001 A 
ATOM     12  C   UNL     1       6.649  -6.428   2.268  0.00  0.00    +0.004 A 
ATOM     13  C   UNL     1       6.355  -5.087   2.148  0.00  0.00    +0.047 A 
ATOM     14  C   UNL     1       5.152  -4.691   1.573  0.00  0.00    +0.136 A 
ATOM     15  C   UNL     1       4.253  -5.674   1.120  0.00  0.00    +0.021 A 
ATOM     16  C   UNL     1       4.571  -7.028   1.251  0.00  0.00    +0.011 A 
ATOM     17  C   UNL     1       3.108  -4.943   0.578  0.00  0.00    +0.063 A 
ATOM     18  C   UNL     1       3.393  -3.625   0.739  0.00  0.00    +0.191 A 
ATOM     19  O   UNL     1       4.602  -3.488   1.321  0.00  0.00    -0.450 OA
ENDBRANCH   7  18
ENDBRANCH   1   9
BRANCH   5  20
ATOM     20  N   UNL     1      -1.581   0.532   0.380  0.00  0.00    -0.297 N 
ATOM     21  H   UNL     1      -2.208   0.885  -0.270  0.00  0.00    +0.154 HD
BRANCH  20  22
ATOM     22  C   UNL     1      -2.035  -0.114   1.472  0.00  0.00    +0.141 C 
ATOM     23  S   UNL     1      -0.939  -0.613   2.689  0.00  0.00    -0.018 S 
BRANCH  22  24
ATOM     24  N   UNL     1      -3.352  -0.368   1.606  0.00  0.00    -0.264 N 
ATOM     25  C   UNL     1      -3.806  -1.014   2.698  0.00  0.00    +0.250 C 
ATOM     26  O   UNL     1      -3.027  -1.368   3.563  0.00  0.00    -0.270 OA
ATOM     27  H   UNL     1      -3.973  -0.086   0.917  0.00  0.00    +0.157 HD
BRANCH  25  28
ATOM     28  C   UNL     1      -5.245  -1.292   2.845  0.00  0.00    +0.045 A 
ATOM     29  C   UNL     1      -6.132  -1.005   1.814  0.00  0.00    +0.014 A 
ATOM     30  C   UNL     1      -7.487  -1.272   1.953  0.00  0.00    +0.001 A 
ATOM     31  C   UNL     1      -7.999  -1.809   3.094  0.00  0.00    +0.010 A 
ATOM     32  C   UNL     1      -7.163  -2.120   4.179  0.00  0.00    +0.001 A 
ATOM     33  C   UNL     1      -5.772  -1.869   4.080  0.00  0.00    -0.004 A 
ATOM     34  C   UNL     1      -4.935  -2.177   5.159  0.00  0.00    +0.009 A 
ATOM     35  C   UNL     1      -5.467  -2.714   6.293  0.00  0.00    +0.002 A 
ATOM     36  C   UNL     1      -6.833  -2.962   6.395  0.00  0.00    +0.020 A 
ATOM     37  C   UNL     1      -7.678  -2.675   5.364  0.00  0.00    +0.049 A 
ATOM     38 CL   UNL     1      -9.378  -2.994   5.513  0.00  0.00    -0.083 Cl
ENDBRANCH  25  28
ENDBRANCH  22  24
ENDBRANCH  20  22
ENDBRANCH   5  20
TORSDOF 6
