REMARK  Name = ZINC63383794
REMARK  10 active torsions:
REMARK  status: ('A' for Active; 'I' for Inactive)
REMARK    1  A    between atoms: C_1  and  C_2
REMARK    2  A    between atoms: C_2  and  C_3
REMARK    3  A    between atoms: C_3  and  C_4
REMARK    4  A    between atoms: C_4  and  C_5
REMARK    5  A    between atoms: C_5  and  C_6
REMARK    6  A    between atoms: C_6  and  N_7
REMARK    7  A    between atoms: C_8  and  C_10
REMARK    8  A    between atoms: C_10  and  C_12
REMARK    9  A    between atoms: C_10  and  N_13
REMARK   10  A    between atoms: C_14  and  C_16
REMARK                            x       y       z     vdW  Elec       q    Type
REMARK                         _______ _______ _______ _____ _____    ______ ____
ROOT
ATOM      1  C   UNL     1      -6.857 -10.137  -0.480  0.00  0.00    +0.167 C 
ATOM      2  C   UNL     1      -5.755 -10.636  -1.436  0.00  0.00    +0.065 C 
ATOM      3  C   UNL     1      -6.053 -12.084  -1.737  0.00  0.00    -0.034 C 
ATOM      4  C   UNL     1      -5.288 -13.166  -1.633  0.00  0.00    -0.001 A 
ATOM      5  C   UNL     1      -3.867 -13.329  -1.289  0.00  0.00    +0.010 A 
ATOM      6  C   UNL     1      -3.401 -14.606  -1.257  0.00  0.00    +0.001 A 
ATOM      7  C   UNL     1      -4.197 -15.722  -1.530  0.00  0.00    +0.002 A 
ATOM      8  C   UNL     1      -5.511 -15.665  -1.864  0.00  0.00    +0.026 A 
ATOM      9  C   UNL     1      -6.113 -14.374  -1.938  0.00  0.00    +0.043 A 
ATOM     10  N   UNL     1      -7.326 -14.028  -2.251  0.00  0.00    -0.375 N 
ATOM     11  C   UNL     1      -7.410 -12.566  -2.236  0.00  0.00    +0.131 C 
ATOM     12  C   UNL     1      -8.448 -12.071  -1.223  0.00  0.00    +0.134 C 
ATOM     13  N   UNL     1      -8.150 -10.647  -0.955  0.00  0.00    -0.276 N 
ATOM     14  C   UNL     1      -9.247  -9.918  -1.228  0.00  0.00    +0.248 C 
ATOM     15  O   UNL     1      -9.356  -8.723  -1.032  0.00  0.00    -0.270 OA
ATOM     16  C   UNL     1     -10.291 -10.772  -1.796  0.00  0.00    +0.042 A 
ATOM     17  C   UNL     1      -9.825 -12.124  -1.801  0.00  0.00    -0.013 A 
ATOM     18  C   UNL     1     -10.582 -13.173  -2.272  0.00  0.00    +0.006 A 
ATOM     19  C   UNL     1     -11.855 -12.870  -2.747  0.00  0.00    +0.000 A 
ATOM     20  C   UNL     1     -12.343 -11.579  -2.747  0.00  0.00    +0.001 A 
ATOM     21  C   UNL     1     -11.567 -10.459  -2.274  0.00  0.00    +0.013 A 
ATOM     22  H   UNL     1      -8.053 -14.636  -2.460  0.00  0.00    +0.160 HD
ENDROOT
BRANCH   1  24
ATOM     23  N   UNL     1      -6.495  -7.957   0.632  0.00  0.00    -0.303 N 
ATOM     24  C   UNL     1      -6.877  -8.630  -0.472  0.00  0.00    +0.234 C 
ATOM     25  O   UNL     1      -7.237  -8.023  -1.458  0.00  0.00    -0.274 OA
ATOM     26  H   UNL     1      -6.207  -8.443   1.421  0.00  0.00    +0.149 HD
BRANCH  23  27
ATOM     27  C   UNL     1      -6.515  -6.492   0.640  0.00  0.00    +0.156 C 
ATOM     28  C   UNL     1      -7.918  -6.003   1.005  0.00  0.00    +0.038 C 
BRANCH  27  30
ATOM     29  N   UNL     1      -5.370  -4.656   1.837  0.00  0.00    -0.314 N 
ATOM     30  C   UNL     1      -5.525  -5.982   1.655  0.00  0.00    +0.233 C 
ATOM     31  O   UNL     1      -4.868  -6.765   2.307  0.00  0.00    -0.274 OA
ATOM     32  H   UNL     1      -5.896  -4.030   1.316  0.00  0.00    +0.149 HD
BRANCH  29  33
ATOM     33  C   UNL     1      -4.408  -4.160   2.824  0.00  0.00    +0.104 C 
BRANCH  33  34
ATOM     34  C   UNL     1      -4.428  -2.630   2.833  0.00  0.00    +0.019 C 
BRANCH  34  35
ATOM     35  C   UNL     1      -3.423  -2.112   3.863  0.00  0.00    +0.002 C 
BRANCH  35  36
ATOM     36  C   UNL     1      -3.444  -0.582   3.872  0.00  0.00    -0.000 C 
BRANCH  36  38
ATOM     37  C   UNL     1      -2.460   1.466   4.911  0.00  0.00    +0.004 C 
ATOM     38  C   UNL     1      -2.439  -0.064   4.902  0.00  0.00    -0.003 C 
ENDBRANCH  36  38
ENDBRANCH  35  36
ENDBRANCH  34  35
ENDBRANCH  33  34
ENDBRANCH  29  33
ENDBRANCH  27  30
ENDBRANCH  23  27
ENDBRANCH   1  24
TORSDOF 8
