REMARK  Name = ZINC39791493
REMARK  9 active torsions:
REMARK  status: ('A' for Active; 'I' for Inactive)
REMARK    1  A    between atoms: C_1  and  O_2
REMARK    2  A    between atoms: O_2  and  C_3
REMARK    3  A    between atoms: C_3  and  C_5
REMARK    4  A    between atoms: C_8  and  C_11
REMARK    5  A    between atoms: C_11  and  N_12
REMARK    6  A    between atoms: C_13  and  C_15
REMARK    7  A    between atoms: C_18  and  N_21
REMARK    8  A    between atoms: N_21  and  S_22
REMARK    9  A    between atoms: S_22  and  C_25
REMARK                            x       y       z     vdW  Elec       q    Type
REMARK                         _______ _______ _______ _____ _____    ______ ____
ROOT
ATOM      1  C   UNL     1      -1.420  -8.768   2.968  0.00  0.00    +0.037 A 
ATOM      2  C   UNL     1      -1.336  -7.852   4.021  0.00  0.00    +0.015 A 
ATOM      3  C   UNL     1      -1.370  -8.298   5.323  0.00  0.00    +0.025 A 
ATOM      4  C   UNL     1      -1.489  -9.659   5.591  0.00  0.00    +0.048 A 
ATOM      5  C   UNL     1      -1.573 -10.573   4.545  0.00  0.00    +0.025 A 
ATOM      6  C   UNL     1      -1.546 -10.133   3.241  0.00  0.00    +0.015 A 
ENDROOT
BRANCH   1   8
ATOM      7  N   UNL     1      -1.263  -6.977   1.310  0.00  0.00    -0.307 N 
ATOM      8  C   UNL     1      -1.384  -8.293   1.572  0.00  0.00    +0.244 C 
ATOM      9  O   UNL     1      -1.463  -9.090   0.657  0.00  0.00    -0.270 OA
ATOM     10  H   UNL     1      -1.201  -6.341   2.040  0.00  0.00    +0.149 HD
BRANCH   7  11
ATOM     11  C   UNL     1      -1.227  -6.506  -0.076  0.00  0.00    +0.139 C 
BRANCH  11  15
ATOM     12  C   UNL     1      -0.833  -2.248  -0.126  0.00  0.00    +0.059 A 
ATOM     13  C   UNL     1       0.305  -3.057  -0.124  0.00  0.00    +0.015 A 
ATOM     14  C   UNL     1       0.170  -4.430  -0.108  0.00  0.00    +0.006 A 
ATOM     15  C   UNL     1      -1.088  -5.005  -0.094  0.00  0.00    -0.030 A 
ATOM     16  C   UNL     1      -2.220  -4.209  -0.096  0.00  0.00    +0.006 A 
ATOM     17  C   UNL     1      -2.100  -2.834  -0.105  0.00  0.00    +0.015 A 
BRANCH  12  18
ATOM     18  C   UNL     1      -0.697  -0.777  -0.143  0.00  0.00    +0.339 C 
ATOM     19  O   UNL     1      -1.688  -0.075  -0.139  0.00  0.00    -0.245 OA
BRANCH  18  21
ATOM     20  C   UNL     1       0.584   1.214  -0.178  0.00  0.00    +0.280 C 
ATOM     21  O   UNL     1       0.527  -0.214  -0.163  0.00  0.00    -0.464 OA
ENDBRANCH  18  21
ENDBRANCH  12  18
ENDBRANCH  11  15
ENDBRANCH   7  11
ENDBRANCH   1   8
BRANCH   4  22
ATOM     22  N   UNL     1      -1.524 -10.105   6.908  0.00  0.00    -0.216 N 
ATOM     23  H   UNL     1      -0.882  -9.767   7.552  0.00  0.00    +0.174 HD
BRANCH  22  24
ATOM     24  S   UNL     1      -2.659 -11.216   7.375  0.00  0.00    +0.072 S 
ATOM     25  O   UNL     1      -2.568 -12.300   6.461  0.00  0.00    -0.150 OA
ATOM     26  O   UNL     1      -2.506 -11.388   8.778  0.00  0.00    -0.150 OA
BRANCH  24  27
ATOM     27  C   UNL     1      -4.241 -10.480   7.128  0.00  0.00    +0.110 A 
ATOM     28  C   UNL     1      -4.791  -9.620   8.169  0.00  0.00    +0.031 A 
ATOM     29  C   UNL     1      -5.997  -9.024   8.043  0.00  0.00    +0.027 A 
ATOM     30  C   UNL     1      -6.784  -9.241   6.831  0.00  0.00    +0.056 A 
ATOM     31  N   UNL     1      -7.951  -8.830   6.402  0.00  0.00    -0.268 N 
ATOM     32  C   UNL     1      -8.172  -9.374   5.159  0.00  0.00    +0.308 C 
ATOM     33  O   UNL     1      -9.163  -9.191   4.484  0.00  0.00    -0.252 OA
ATOM     34  N   UNL     1      -7.102 -10.157   4.795  0.00  0.00    -0.267 N 
ATOM     35  C   UNL     1      -6.219 -10.124   5.761  0.00  0.00    +0.058 A 
ATOM     36  C   UNL     1      -4.904 -10.725   5.978  0.00  0.00    +0.054 A 
ATOM     37  H   UNL     1      -7.016 -10.650   3.964  0.00  0.00    +0.156 HD
ATOM     38  H   UNL     1      -8.556  -8.241   6.879  0.00  0.00    +0.156 HD
ENDBRANCH  24  27
ENDBRANCH  22  24
ENDBRANCH   4  22
TORSDOF 8
