REMARK  Name = ZINC39533348
REMARK  13 active torsions:
REMARK  status: ('A' for Active; 'I' for Inactive)
REMARK    1  A    between atoms: C_1  and  C_2
REMARK    2  A    between atoms: C_2  and  C_3
REMARK    3  A    between atoms: C_2  and  C_4
REMARK    4  A    between atoms: C_4  and  C_5
REMARK    5  A    between atoms: C_8  and  C_11
REMARK    6  A    between atoms: C_11  and  C_13
REMARK    7  A    between atoms: C_11  and  N_25
REMARK    8  A    between atoms: C_13  and  N_14
REMARK    9  A    between atoms: N_14  and  S_15
REMARK   10  A    between atoms: S_15  and  O_18
REMARK   11  A    between atoms: O_18  and  C_19
REMARK   12  A    between atoms: C_29  and  C_32
REMARK   13  A    between atoms: C_37  and  O_38
REMARK                            x       y       z     vdW  Elec       q    Type
REMARK                         _______ _______ _______ _____ _____    ______ ____
ROOT
ATOM      1  C   UNL     1      -1.367  -6.290  -0.493  0.00  0.00    -0.060 C 
ENDROOT
BRANCH   1   2
ATOM      2  N   UNL     1      -2.161  -6.523   0.721  0.00  0.00    +0.381 N 
ATOM      3  C   UNL     1      -2.109  -7.948   1.073  0.00  0.00    -0.098 C 
ATOM      4  C   UNL     1      -2.935  -8.191   2.338  0.00  0.00    -0.101 C 
ATOM      5  N   UNL     1      -4.329  -7.796   2.095  0.00  0.00    +0.381 N 
ATOM      6  C   UNL     1      -4.381  -6.372   1.742  0.00  0.00    -0.054 C 
ATOM      7  C   UNL     1      -3.555  -6.129   0.478  0.00  0.00    -0.090 C 
ATOM      8  H   UNL     1      -4.707  -8.345   1.336  0.00  0.00    -0.085 HD
ATOM      9  H   UNL     1      -4.874  -7.957   2.929  0.00  0.00    -0.085 HD
ATOM     10  H   UNL     1      -1.784  -5.975   1.479  0.00  0.00    -0.081 HD
BRANCH   6  11
ATOM     11  C   UNL     1      -5.811  -5.967   1.493  0.00  0.00    -0.022 A 
ATOM     12  C   UNL     1      -6.762  -6.929   1.209  0.00  0.00    +0.005 A 
ATOM     13  C   UNL     1      -8.074  -6.559   0.980  0.00  0.00    +0.000 A 
ATOM     14  C   UNL     1      -8.439  -5.226   1.034  0.00  0.00    +0.004 A 
ATOM     15  C   UNL     1      -7.492  -4.261   1.318  0.00  0.00    +0.045 A 
ATOM     16  C   UNL     1      -6.176  -4.630   1.554  0.00  0.00    +0.118 A 
BRANCH  16  17
ATOM     17  O   UNL     1      -5.243  -3.683   1.838  0.00  0.00    -0.507 OA
ATOM     18  H   UNL     1      -4.799  -3.322   1.059  0.00  0.00    +0.292 HD
ENDBRANCH  16  17
ENDBRANCH   6  11
ENDBRANCH   1   2
BRANCH   1  22
ATOM     19  C   UNL     1      -1.866  -2.242  -1.764  0.00  0.00    -0.047 A 
ATOM     20  C   UNL     1      -1.822  -3.259  -2.699  0.00  0.00    +0.004 A 
ATOM     21  C   UNL     1      -1.660  -4.569  -2.288  0.00  0.00    +0.002 A 
ATOM     22  C   UNL     1      -1.542  -4.862  -0.942  0.00  0.00    -0.063 A 
ATOM     23  C   UNL     1      -1.585  -3.844  -0.007  0.00  0.00    +0.002 A 
ATOM     24  C   UNL     1      -1.743  -2.534  -0.418  0.00  0.00    +0.004 A 
BRANCH  19  25
ATOM     25  C   UNL     1      -2.042  -0.814  -2.212  0.00  0.00    +0.038 C 
BRANCH  25  27
ATOM     26  C   UNL     1      -0.851   1.222  -3.037  0.00  0.00    +0.007 C 
ATOM     27  C   UNL     1      -0.670  -0.185  -2.463  0.00  0.00    -0.013 C 
ATOM     28  C   UNL     1       0.102  -0.103  -1.145  0.00  0.00    +0.007 C 
ENDBRANCH  25  27
ENDBRANCH  19  25
ENDBRANCH   1  22
BRANCH   1  29
ATOM     29  C   UNL     1       0.110  -6.553  -0.196  0.00  0.00    -0.121 C 
BRANCH  29  30
ATOM     30  N   UNL     1       0.306  -7.978   0.083  0.00  0.00    +0.491 NA
BRANCH  30  31
ATOM     31  S   UNL     1       1.817  -8.552   0.440  0.00  0.00    +0.066 S 
ATOM     32  O   UNL     1       2.600  -8.393  -0.735  0.00  0.00    -0.159 OA
ATOM     33  O   UNL     1       2.187  -7.976   1.686  0.00  0.00    -0.159 OA
BRANCH  31  34
ATOM     34  O   UNL     1       1.686 -10.050   0.676  0.00  0.00    -0.362 OA
BRANCH  34  35
ATOM     35  C   UNL     1       1.521 -10.776  -0.461  0.00  0.00    +0.154 A 
ATOM     36  C   UNL     1       0.247 -11.023  -0.950  0.00  0.00    +0.048 A 
ATOM     37  C   UNL     1       0.082 -11.761  -2.106  0.00  0.00    +0.004 A 
ATOM     38  C   UNL     1       1.187 -12.254  -2.776  0.00  0.00    +0.000 A 
ATOM     39  C   UNL     1       2.458 -12.010  -2.291  0.00  0.00    +0.004 A 
ATOM     40  C   UNL     1       2.628 -11.267  -1.138  0.00  0.00    +0.048 A 
ENDBRANCH  34  35
ENDBRANCH  31  34
ENDBRANCH  30  31
ENDBRANCH  29  30
ENDBRANCH   1  29
TORSDOF 11
