REMARK  Name = ZINC19646503
REMARK  9 active torsions:
REMARK  status: ('A' for Active; 'I' for Inactive)
REMARK    1  A    between atoms: C_1  and  O_2
REMARK    2  A    between atoms: O_2  and  C_3
REMARK    3  A    between atoms: C_3  and  C_5
REMARK    4  A    between atoms: C_9  and  N_10
REMARK    5  A    between atoms: N_10  and  C_11
REMARK    6  A    between atoms: C_11  and  N_13
REMARK    7  A    between atoms: N_13  and  N_14
REMARK    8  A    between atoms: C_15  and  C_17
REMARK    9  A    between atoms: C_17  and  C_18
REMARK                            x       y       z     vdW  Elec       q    Type
REMARK                         _______ _______ _______ _____ _____    ______ ____
ROOT
ATOM      1  N   UNL     1       1.137   2.397   0.004  0.00  0.00    -0.246 N 
ATOM      2  H   UNL     1       2.097   1.860  -0.008  0.00  0.00    +0.172 HD
ENDROOT
BRANCH   1   3
ATOM      3  N   UNL     1       1.118   3.798   0.012  0.00  0.00    -0.235 N 
ATOM      4  C   UNL     1       2.276   4.488   0.004  0.00  0.00    +0.230 C 
ATOM      5  O   UNL     1       3.334   3.896  -0.009  0.00  0.00    -0.274 OA
ATOM      6  H   UNL     1       0.158   4.335   0.024  0.00  0.00    +0.173 HD
BRANCH   4   7
ATOM      7  C   UNL     1       2.255   5.995   0.013  0.00  0.00    +0.104 C 
BRANCH   7   8
ATOM      8  C   UNL     1       3.691   6.524   0.002  0.00  0.00    -0.020 C 
ATOM      9  C   UNL     1       4.431   6.018   1.241  0.00  0.00    +0.011 C 
ATOM     10  C   UNL     1       5.866   6.547   1.230  0.00  0.00    -0.010 C 
ATOM     11  C   UNL     1       5.845   8.077   1.239  0.00  0.00    +0.007 C 
ATOM     12  C   UNL     1       5.105   8.584  -0.001  0.00  0.00    -0.010 C 
ATOM     13  C   UNL     1       3.670   8.054   0.010  0.00  0.00    +0.011 C 
ATOM     14  C   UNL     1       5.821   8.090  -1.259  0.00  0.00    +0.007 C 
ATOM     15  C   UNL     1       5.842   6.561  -1.268  0.00  0.00    -0.010 C 
ATOM     16  C   UNL     1       6.582   6.054  -0.028  0.00  0.00    +0.007 C 
ATOM     17  C   UNL     1       4.407   6.031  -1.257  0.00  0.00    +0.011 C 
ENDBRANCH   7   8
ENDBRANCH   4   7
ENDBRANCH   1   3
BRANCH   1  18
ATOM     18  C   UNL     1      -0.021   1.708   0.011  0.00  0.00    +0.151 C 
ATOM     19  S   UNL     1       0.002  -0.004   0.002  0.00  0.00    -0.017 S 
BRANCH  18  20
ATOM     20  N   UNL     1      -1.197   2.366   0.021  0.00  0.00    -0.290 N 
ATOM     21  H   UNL     1      -1.212   3.466   0.027  0.00  0.00    +0.154 HD
BRANCH  20  26
ATOM     22  C   UNL     1      -3.683   2.149   0.037  0.00  0.00    +0.091 A 
ATOM     23  C   UNL     1      -4.776   1.176   0.033  0.00  0.00    -0.021 A 
ATOM     24  C   UNL     1      -4.393  -0.113   0.023  0.00  0.00    -0.004 A 
ATOM     25  S   UNL     1      -2.618  -0.058   0.015  0.00  0.00    -0.077 S 
ATOM     26  C   UNL     1      -2.387   1.657   0.022  0.00  0.00    +0.086 A 
ATOM     27  C   UNL     1      -5.570  -1.051   0.021  0.00  0.00    +0.043 C 
ATOM     28  C   UNL     1      -6.767  -0.173  -0.406  0.00  0.00    +0.010 C 
ATOM     29  C   UNL     1      -6.304   1.228   0.043  0.00  0.00    +0.037 C 
BRANCH  22  30
ATOM     30  C   UNL     1      -3.948   3.588   0.052  0.00  0.00    +0.342 C 
ATOM     31  O   UNL     1      -4.067   4.196  -0.995  0.00  0.00    -0.245 OA
BRANCH  30  33
ATOM     32  C   UNL     1      -4.324   5.668   1.166  0.00  0.00    +0.280 C 
ATOM     33  O   UNL     1      -4.061   4.241   1.227  0.00  0.00    -0.464 OA
ENDBRANCH  30  33
ENDBRANCH  22  30
ENDBRANCH  20  26
ENDBRANCH  18  20
ENDBRANCH   1  18
TORSDOF 8
