REMARK  Name = ZINC49825095
REMARK  10 active torsions:
REMARK  status: ('A' for Active; 'I' for Inactive)
REMARK    1  A    between atoms: C_1  and  C_2
REMARK    2  A    between atoms: C_2  and  C_3
REMARK    3  A    between atoms: C_3  and  N_4
REMARK    4  A    between atoms: N_4  and  C_5
REMARK    5  A    between atoms: N_4  and  C_8
REMARK    6  A    between atoms: C_5  and  C_6
REMARK    7  A    between atoms: C_6  and  O_7
REMARK    8  A    between atoms: C_8  and  C_9
REMARK    9  A    between atoms: N_11  and  C_12
REMARK   10  A    between atoms: C_15  and  C_19
REMARK                            x       y       z     vdW  Elec       q    Type
REMARK                         _______ _______ _______ _____ _____    ______ ____
ROOT
ATOM      1  C   UNL     1      -1.276  -2.278   0.231  0.00  0.00    +0.201 C 
ATOM      2  O   UNL     1      -0.705  -1.967   1.254  0.00  0.00    -0.278 OA
ATOM      3  N   UNL     1      -2.607  -2.097   0.120  0.00  0.00    -0.285 N 
ATOM      4  H   UNL     1      -3.072  -2.390  -0.679  0.00  0.00    +0.155 HD
ENDROOT
BRANCH   3   5
ATOM      5  C   UNL     1      -3.319  -1.486   1.160  0.00  0.00    +0.062 A 
ATOM      6  C   UNL     1      -2.833  -0.326   1.749  0.00  0.00    +0.040 A 
ATOM      7  C   UNL     1      -3.538   0.275   2.774  0.00  0.00    +0.020 A 
ATOM      8  C   UNL     1      -4.727  -0.277   3.214  0.00  0.00    -0.048 A 
ATOM      9  C   UNL     1      -5.214  -1.432   2.630  0.00  0.00    +0.020 A 
ATOM     10  C   UNL     1      -4.517  -2.035   1.600  0.00  0.00    +0.040 A 
ATOM     11 BR   UNL     1      -5.188  -3.610   0.797  0.00  0.00    -0.048 Br
ATOM     12  C   UNL     1      -5.493   0.380   4.332  0.00  0.00    +0.044 C 
ATOM     13 BR   UNL     1      -1.206   0.430   1.149  0.00  0.00    -0.048 Br
ENDBRANCH   3   5
BRANCH   1  14
ATOM     14  C   UNL     1      -0.498  -2.866  -0.918  0.00  0.00    +0.019 C 
BRANCH  14  15
ATOM     15  N   UNL     1       0.925  -2.932  -0.562  0.00  0.00    +0.387 N 
ATOM     16  H   UNL     1       1.234  -2.026  -0.242  0.00  0.00    -0.081 HD
BRANCH  15  17
ATOM     17  C   UNL     1       1.707  -3.326  -1.742  0.00  0.00    -0.078 C 
BRANCH  17  19
ATOM     18  C   UNL     1       2.526  -2.580  -3.981  0.00  0.00    +0.002 C 
ATOM     19  C   UNL     1       1.601  -2.238  -2.812  0.00  0.00    -0.022 C 
ENDBRANCH  17  19
ENDBRANCH  15  17
BRANCH  15  20
ATOM     20  C   UNL     1       1.118  -3.921   0.507  0.00  0.00    -0.050 C 
BRANCH  20  21
ATOM     21  C   UNL     1       2.578  -3.901   0.963  0.00  0.00    +0.137 C 
BRANCH  21  22
ATOM     22  O   UNL     1       2.873  -2.636   1.561  0.00  0.00    -0.397 OA
ATOM     23  H   UNL     1       3.784  -2.552   1.875  0.00  0.00    +0.209 HD
ENDBRANCH  21  22
ENDBRANCH  20  21
ENDBRANCH  15  20
ENDBRANCH  14  15
ENDBRANCH   1  14
TORSDOF 8
