REMARK  Name = ZINC27559292
REMARK  11 active torsions:
REMARK  status: ('A' for Active; 'I' for Inactive)
REMARK    1  A    between atoms: C_1  and  C_2
REMARK    2  A    between atoms: C_9  and  N_15
REMARK    3  A    between atoms: C_10  and  C_11
REMARK    4  A    between atoms: C_11  and  O_13
REMARK    5  A    between atoms: O_13  and  C_14
REMARK    6  A    between atoms: C_16  and  C_18
REMARK    7  A    between atoms: C_18  and  N_19
REMARK    8  A    between atoms: N_22  and  C_25
REMARK    9  A    between atoms: C_25  and  C_26
REMARK   10  A    between atoms: N_28  and  C_29
REMARK   11  A    between atoms: C_29  and  C_30
REMARK                            x       y       z     vdW  Elec       q    Type
REMARK                         _______ _______ _______ _____ _____    ______ ____
ROOT
ATOM      1  N   UNL     1       2.912  -2.388   0.203  0.00  0.00    -0.278 N 
ATOM      2  C   UNL     1       3.826  -3.233  -0.315  0.00  0.00    +0.232 C 
ATOM      3  O   UNL     1       3.818  -4.403   0.004  0.00  0.00    -0.274 OA
ATOM      4  H   UNL     1       2.919  -1.326  -0.086  0.00  0.00    +0.155 HD
ENDROOT
BRANCH   1  12
ATOM      5  C   UNL     1      -2.219  -5.412   5.273  0.00  0.00    +0.008 C 
ATOM      6  C   UNL     1      -1.246  -4.440   4.604  0.00  0.00    -0.009 C 
ATOM      7  C   UNL     1      -2.030  -3.361   3.852  0.00  0.00    +0.008 C 
ATOM      8  C   UNL     1      -1.081  -2.252   3.392  0.00  0.00    +0.037 C 
ATOM      9  C   UNL     1       0.077  -2.884   2.630  0.00  0.00    -0.021 A 
ATOM     10  C   UNL     1       0.357  -4.199   2.754  0.00  0.00    -0.004 A 
ATOM     11  S   UNL     1       1.754  -4.467   1.701  0.00  0.00    -0.077 S 
ATOM     12  C   UNL     1       1.963  -2.856   1.098  0.00  0.00    +0.086 A 
ATOM     13  C   UNL     1       0.951  -2.147   1.732  0.00  0.00    +0.091 A 
ATOM     14  C   UNL     1      -0.366  -5.200   3.602  0.00  0.00    +0.046 C 
BRANCH  13  15
ATOM     15  C   UNL     1       0.767  -0.713   1.500  0.00  0.00    +0.342 C 
ATOM     16  O   UNL     1       1.337   0.095   2.208  0.00  0.00    -0.245 OA
BRANCH  15  17
ATOM     17  O   UNL     1      -0.034  -0.289   0.501  0.00  0.00    -0.464 OA
ATOM     18  C   UNL     1      -0.170   1.146   0.330  0.00  0.00    +0.280 C 
ENDBRANCH  15  17
ENDBRANCH  13  15
ENDBRANCH   1  12
BRANCH   2  19
ATOM     19  C   UNL     1       4.857  -2.724  -1.288  0.00  0.00    +0.180 C 
BRANCH  19  20
ATOM     20  N   UNL     1       5.729  -3.831  -1.702  0.00  0.00    -0.298 NA
ATOM     21  C   UNL     1       6.531  -4.320  -0.572  0.00  0.00    +0.066 C 
ATOM     22  C   UNL     1       7.365  -5.521  -1.023  0.00  0.00    -0.063 C 
ATOM     23  N   UNL     1       8.227  -5.122  -2.144  0.00  0.00    +0.387 N 
ATOM     24  C   UNL     1       7.425  -4.634  -3.274  0.00  0.00    -0.063 C 
ATOM     25  C   UNL     1       6.591  -3.432  -2.823  0.00  0.00    +0.066 C 
ATOM     26  H   UNL     1       8.870  -4.298  -1.802  0.00  0.00    -0.081 HD
BRANCH  23  27
ATOM     27  C   UNL     1       9.099  -6.230  -2.558  0.00  0.00    +0.019 C 
BRANCH  27  28
ATOM     28  C   UNL     1      10.133  -5.720  -3.528  0.00  0.00    +0.197 C 
ATOM     29  O   UNL     1      10.216  -4.532  -3.757  0.00  0.00    -0.278 OA
ATOM     30  N   UNL     1      10.966  -6.584  -4.142  0.00  0.00    -0.313 N 
ATOM     31  H   UNL     1      10.891  -7.662  -3.934  0.00  0.00    +0.149 HD
BRANCH  30  32
ATOM     32  C   UNL     1      11.971  -6.088  -5.085  0.00  0.00    +0.131 C 
BRANCH  32  33
ATOM     33  C   UNL     1      12.767  -7.248  -5.627  0.00  0.00    -0.016 C 
ATOM     34  C   UNL     1      12.856  -7.433  -6.921  0.00  0.00    +0.005 C 
ENDBRANCH  32  33
ENDBRANCH  30  32
ENDBRANCH  27  28
ENDBRANCH  23  27
ENDBRANCH  19  20
ENDBRANCH   2  19
TORSDOF 9
