REMARK  Name = ZINC36531179
REMARK  15 active torsions:
REMARK  status: ('A' for Active; 'I' for Inactive)
REMARK    1  A    between atoms: C_1  and  C_2
REMARK    2  A    between atoms: C_2  and  C_3
REMARK    3  A    between atoms: C_2  and  C_4
REMARK    4  A    between atoms: C_2  and  C_5
REMARK    5  A    between atoms: C_5  and  C_6
REMARK    6  A    between atoms: C_6  and  C_7
REMARK    7  A    between atoms: C_6  and  C_8
REMARK    8  A    between atoms: C_6  and  N_9
REMARK    9  A    between atoms: C_10  and  C_12
REMARK   10  A    between atoms: C_12  and  C_14
REMARK   11  A    between atoms: C_12  and  N_21
REMARK   12  A    between atoms: N_21  and  C_22
REMARK   13  A    between atoms: C_23  and  C_25
REMARK   14  A    between atoms: C_26  and  O_32
REMARK   15  A    between atoms: C_30  and  O_31
REMARK                            x       y       z     vdW  Elec       q    Type
REMARK                         _______ _______ _______ _____ _____    ______ ____
ROOT
ATOM      1  C   UNL     1       5.370  -0.496  -4.287  0.00  0.00    +0.192 C 
ENDROOT
BRANCH   1   2
ATOM      2  C   UNL     1       5.336  -1.965  -4.621  0.00  0.00    -0.018 A 
ATOM      3  C   UNL     1       4.873  -2.382  -5.855  0.00  0.00    +0.007 A 
ATOM      4  C   UNL     1       4.842  -3.729  -6.163  0.00  0.00    +0.020 A 
ATOM      5  C   UNL     1       5.274  -4.660  -5.235  0.00  0.00    +0.041 A 
ATOM      6  C   UNL     1       5.737  -4.242  -4.001  0.00  0.00    +0.020 A 
ATOM      7  C   UNL     1       5.773  -2.895  -3.696  0.00  0.00    +0.007 A 
ATOM      8 CL   UNL     1       5.234  -6.353  -5.621  0.00  0.00    -0.084 Cl
ENDBRANCH   1   2
BRANCH   1  10
ATOM      9  N   UNL     1       3.286  -0.569  -2.957  0.00  0.00    -0.308 N 
ATOM     10  C   UNL     1       4.594  -0.252  -3.018  0.00  0.00    +0.238 C 
ATOM     11  O   UNL     1       5.147   0.231  -2.053  0.00  0.00    -0.273 OA
ATOM     12  H   UNL     1       2.844  -0.955  -3.729  0.00  0.00    +0.149 HD
BRANCH   9  13
ATOM     13  C   UNL     1       2.531  -0.332  -1.724  0.00  0.00    +0.030 C 
ATOM     14  C   UNL     1       2.697   1.128  -1.298  0.00  0.00    +0.031 C 
ATOM     15  C   UNL     1       3.059  -1.248  -0.619  0.00  0.00    +0.031 C 
BRANCH  13  16
ATOM     16  C   UNL     1       1.050  -0.627  -1.968  0.00  0.00    +0.031 C 
BRANCH  16  18
ATOM     17  C   UNL     1       1.035  -0.969  -4.442  0.00  0.00    +0.010 C 
ATOM     18  C   UNL     1       0.624  -0.027  -3.309  0.00  0.00    -0.036 C 
ATOM     19  C   UNL     1       1.306   1.329  -3.500  0.00  0.00    +0.010 C 
ATOM     20  C   UNL     1      -0.895   0.158  -3.325  0.00  0.00    +0.010 C 
ENDBRANCH  16  18
ENDBRANCH  13  16
ENDBRANCH   9  13
ENDBRANCH   1  10
BRANCH   1  21
ATOM     21  N   UNL     1       6.759  -0.070  -4.099  0.00  0.00    -0.285 N 
ATOM     22  C   UNL     1       7.599  -0.732  -3.098  0.00  0.00    +0.133 C 
ATOM     23  C   UNL     1       7.264   0.931  -4.847  0.00  0.00    +0.254 C 
ATOM     24  O   UNL     1       6.567   1.480  -5.679  0.00  0.00    -0.270 OA
BRANCH  23  25
ATOM     25  C   UNL     1       8.661   1.359  -4.659  0.00  0.00    +0.119 A 
ATOM     26  C   UNL     1       9.688   0.764  -5.405  0.00  0.00    +0.133 A 
ATOM     27  C   UNL     1      10.999   1.175  -5.220  0.00  0.00    +0.046 A 
ATOM     28  C   UNL     1      11.294   2.167  -4.303  0.00  0.00    +0.007 A 
ATOM     29  C   UNL     1      10.289   2.760  -3.562  0.00  0.00    +0.046 A 
ATOM     30  C   UNL     1       8.971   2.368  -3.736  0.00  0.00    +0.133 A 
BRANCH  30  31
ATOM     31  O   UNL     1       7.986   2.955  -3.012  0.00  0.00    -0.506 OA
ATOM     32  H   UNL     1       7.801   2.516  -2.170  0.00  0.00    +0.292 HD
ENDBRANCH  30  31
BRANCH  26  33
ATOM     33  O   UNL     1       9.401  -0.210  -6.304  0.00  0.00    -0.506 OA
ATOM     34  H   UNL     1       9.215   0.119  -7.194  0.00  0.00    +0.292 HD
ENDBRANCH  26  33
ENDBRANCH  23  25
ENDBRANCH   1  21
TORSDOF 9
