REMARK  Name = ZINC16779700
REMARK  5 active torsions:
REMARK  status: ('A' for Active; 'I' for Inactive)
REMARK    1  A    between atoms: N_8  and  S_9
REMARK    2  A    between atoms: S_9  and  C_12
REMARK    3  A    between atoms: C_20  and  N_23
REMARK    4  A    between atoms: N_23  and  N_24
REMARK    5  A    between atoms: C_25  and  C_27
REMARK                            x       y       z     vdW  Elec       q    Type
REMARK                         _______ _______ _______ _____ _____    ______ ____
ROOT
ATOM      1  C   UNL     1      -4.489  -2.670   1.456  0.00  0.00    +0.001 A 
ATOM      2  C   UNL     1      -5.589  -3.424   1.089  0.00  0.00    +0.001 A 
ATOM      3  C   UNL     1      -5.852  -3.677  -0.245  0.00  0.00    +0.012 A 
ATOM      4  C   UNL     1      -5.004  -3.167  -1.225  0.00  0.00    +0.033 A 
ATOM      5  C   UNL     1      -3.886  -2.401  -0.851  0.00  0.00    +0.013 A 
ATOM      6  C   UNL     1      -3.637  -2.156   0.493  0.00  0.00    +0.011 A 
ATOM      7  C   UNL     1      -2.989  -1.862  -1.900  0.00  0.00    +0.095 C 
ATOM      8  N   UNL     1      -1.948  -1.147  -1.568  0.00  0.00    -0.128 NA
ATOM      9  C   UNL     1      -3.278  -2.129  -3.314  0.00  0.00    +0.058 C 
ATOM     10  C   UNL     1      -4.348  -2.870  -3.674  0.00  0.00    +0.094 C 
ATOM     11  C   UNL     1      -5.262  -3.422  -2.655  0.00  0.00    +0.209 C 
ATOM     12  O   UNL     1      -6.225  -4.083  -2.993  0.00  0.00    -0.285 OA
ENDROOT
BRANCH   8  13
ATOM     13  S   UNL     1      -1.159  -1.446  -0.142  0.00  0.00    +0.099 S 
ATOM     14  O   UNL     1      -1.339  -2.828   0.139  0.00  0.00    -0.146 OA
ATOM     15  O   UNL     1      -1.556  -0.426   0.763  0.00  0.00    -0.146 OA
BRANCH  13  16
ATOM     16  C   UNL     1       0.562  -1.213  -0.440  0.00  0.00    +0.113 A 
ATOM     17  C   UNL     1       1.132   0.033  -0.257  0.00  0.00    +0.030 A 
ATOM     18  C   UNL     1       2.482   0.216  -0.491  0.00  0.00    +0.017 A 
ATOM     19  C   UNL     1       3.262  -0.847  -0.908  0.00  0.00    +0.018 A 
ATOM     20  C   UNL     1       2.691  -2.094  -1.090  0.00  0.00    +0.017 A 
ATOM     21  C   UNL     1       1.341  -2.276  -0.857  0.00  0.00    +0.030 A 
ATOM     22 BR   UNL     1       5.109  -0.597  -1.227  0.00  0.00    -0.050 Br
ENDBRANCH  13  16
ENDBRANCH   8  13
BRANCH  10  23
ATOM     23  N   UNL     1      -4.594  -3.111  -5.018  0.00  0.00    -0.261 N 
ATOM     24  H   UNL     1      -5.467  -3.710  -5.319  0.00  0.00    +0.170 HD
BRANCH  23  25
ATOM     25  N   UNL     1      -3.732  -2.591  -5.993  0.00  0.00    -0.232 N 
ATOM     26  C   UNL     1      -3.971  -2.825  -7.298  0.00  0.00    +0.260 C 
ATOM     27  O   UNL     1      -4.935  -3.487  -7.630  0.00  0.00    -0.269 OA
ATOM     28  H   UNL     1      -2.860  -1.993  -5.692  0.00  0.00    +0.173 HD
BRANCH  26  29
ATOM     29  C   UNL     1      -3.061  -2.277  -8.326  0.00  0.00    +0.037 C 
ATOM     30  C   UNL     1      -3.297  -2.509  -9.632  0.00  0.00    +0.005 C 
ATOM     31  C   UNL     1      -2.358  -1.949 -10.672  0.00  0.00    +0.129 C 
ATOM     32  N   UNL     1      -1.740  -0.725 -10.148  0.00  0.00    -0.346 N 
ATOM     33  C   UNL     1      -1.265  -0.720  -8.844  0.00  0.00    +0.068 C 
ATOM     34  C   UNL     1      -1.892  -1.467  -7.926  0.00  0.00    +0.027 C 
ATOM     35  H   UNL     1      -1.660   0.167 -10.786  0.00  0.00    +0.146 HD
ENDBRANCH  26  29
ENDBRANCH  23  25
ENDBRANCH  10  23
TORSDOF 5
