REMARK  Name = ZINC39987057
REMARK  16 active torsions:
REMARK  status: ('A' for Active; 'I' for Inactive)
REMARK    1  A    between atoms: C_1  and  C_2
REMARK    2  A    between atoms: C_2  and  C_3
REMARK    3  A    between atoms: C_8  and  C_28
REMARK    4  A    between atoms: C_9  and  C_23
REMARK    5  A    between atoms: C_12  and  C_15
REMARK    6  A    between atoms: C_13  and  O_14
REMARK    7  A    between atoms: C_15  and  N_16
REMARK    8  A    between atoms: N_16  and  C_17
REMARK    9  A    between atoms: N_16  and  C_20
REMARK   10  A    between atoms: C_17  and  C_18
REMARK   11  A    between atoms: C_18  and  O_19
REMARK   12  A    between atoms: C_20  and  C_21
REMARK   13  A    between atoms: C_21  and  O_22
REMARK   14  A    between atoms: C_23  and  O_25
REMARK   15  A    between atoms: O_25  and  C_26
REMARK   16  A    between atoms: C_26  and  C_27
REMARK                            x       y       z     vdW  Elec       q    Type
REMARK                         _______ _______ _______ _____ _____    ______ ____
ROOT
ATOM      1  C   UNL     1      -0.076  -0.605  -2.054  0.00  0.00    -0.005 A 
ATOM      2  C   UNL     1      -0.216  -0.511  -3.409  0.00  0.00    +0.022 A 
ATOM      3  C   UNL     1       0.910  -0.603  -4.229  0.00  0.00    +0.065 A 
ATOM      4  C   UNL     1       0.796  -0.522  -5.697  0.00  0.00    +0.203 A 
ATOM      5  O   UNL     1      -0.224  -0.148  -6.245  0.00  0.00    -0.286 OA
ATOM      6  C   UNL     1       1.999  -0.923  -6.465  0.00  0.00    +0.104 A 
ATOM      7  C   UNL     1       3.186  -1.073  -5.775  0.00  0.00    +0.225 A 
ATOM      8  O   UNL     1       3.279  -0.857  -4.456  0.00  0.00    -0.447 OA
ATOM      9  C   UNL     1       2.189  -0.783  -3.669  0.00  0.00    +0.144 A 
ATOM     10  C   UNL     1       2.311  -0.880  -2.288  0.00  0.00    +0.021 A 
ATOM     11  C   UNL     1       1.185  -0.785  -1.488  0.00  0.00    +0.125 A 
ENDROOT
BRANCH   6  12
ATOM     12  C   UNL     1       1.931  -1.154  -7.919  0.00  0.00    +0.117 A 
ATOM     13  N   UNL     1       2.909  -1.416  -8.762  0.00  0.00    -0.239 NA
ATOM     14  C   UNL     1       2.703  -1.607 -10.072  0.00  0.00    +0.079 A 
ATOM     15  C   UNL     1       3.661  -1.892 -11.075  0.00  0.00    +0.029 A 
ATOM     16  C   UNL     1       3.284  -2.058 -12.371  0.00  0.00    +0.002 A 
ATOM     17  C   UNL     1       1.956  -1.955 -12.764  0.00  0.00    +0.001 A 
ATOM     18  C   UNL     1       0.989  -1.677 -11.817  0.00  0.00    +0.017 A 
ATOM     19  C   UNL     1       1.357  -1.508 -10.504  0.00  0.00    +0.040 A 
ATOM     20  S   UNL     1       0.499  -1.157  -8.989  0.00  0.00    -0.067 S 
ENDBRANCH   6  12
BRANCH   1  22
ATOM     21  C   UNL     1      -1.457   0.939  -0.690  0.00  0.00    +0.009 C 
ATOM     22  C   UNL     1      -1.290  -0.505  -1.166  0.00  0.00    +0.035 C 
ENDBRANCH   1  22
BRANCH  11  23
ATOM     23  O   UNL     1       1.309  -0.875  -0.140  0.00  0.00    -0.506 OA
ATOM     24  H   UNL     1       1.242  -1.777   0.202  0.00  0.00    +0.292 HD
ENDBRANCH  11  23
BRANCH   7  25
ATOM     25  C   UNL     1       4.395  -1.489  -6.516  0.00  0.00    +0.376 C 
ATOM     26  O   UNL     1       4.665  -2.667  -6.625  0.00  0.00    -0.241 OA
BRANCH  25  27
ATOM     27  O   UNL     1       5.196  -0.559  -7.072  0.00  0.00    -0.459 OA
BRANCH  27  28
ATOM     28  C   UNL     1       6.348  -1.032  -7.774  0.00  0.00    +0.229 C 
ATOM     29  C   UNL     1       7.130   0.160  -8.332  0.00  0.00    +0.048 C 
ENDBRANCH  27  28
ENDBRANCH  25  27
ENDBRANCH   7  25
BRANCH  10  30
ATOM     30  C   UNL     1       3.667  -1.081  -1.663  0.00  0.00    -0.035 C 
BRANCH  30  31
ATOM     31  N   UNL     1       4.345   0.216  -1.535  0.00  0.00    +0.385 N 
ATOM     32  H   UNL     1       4.373   0.671  -2.435  0.00  0.00    -0.081 HD
BRANCH  31  33
ATOM     33  C   UNL     1       3.610   1.060  -0.583  0.00  0.00    -0.050 C 
BRANCH  33  34
ATOM     34  C   UNL     1       4.243   2.453  -0.543  0.00  0.00    +0.137 C 
BRANCH  34  35
ATOM     35  O   UNL     1       4.080   3.086  -1.814  0.00  0.00    -0.397 OA
ATOM     36  H   UNL     1       4.459   3.975  -1.862  0.00  0.00    +0.209 HD
ENDBRANCH  34  35
ENDBRANCH  33  34
ENDBRANCH  31  33
BRANCH  31  37
ATOM     37  C   UNL     1       5.715   0.007  -1.048  0.00  0.00    -0.050 C 
BRANCH  37  38
ATOM     38  C   UNL     1       6.523  -0.745  -2.107  0.00  0.00    +0.137 C 
BRANCH  38  39
ATOM     39  O   UNL     1       6.615   0.052  -3.290  0.00  0.00    -0.397 OA
ATOM     40  H   UNL     1       7.116  -0.363  -4.005  0.00  0.00    +0.209 HD
ENDBRANCH  38  39
ENDBRANCH  37  38
ENDBRANCH  31  37
ENDBRANCH  30  31
ENDBRANCH  10  30
TORSDOF 14
