REMARK  Name = ZINC02347374
REMARK  9 active torsions:
REMARK  status: ('A' for Active; 'I' for Inactive)
REMARK    1  A    between atoms: C_1  and  O_2
REMARK    2  A    between atoms: O_2  and  C_3
REMARK    3  A    between atoms: C_3  and  C_5
REMARK    4  A    between atoms: C_5  and  C_6
REMARK    5  A    between atoms: C_5  and  N_10
REMARK    6  A    between atoms: C_5  and  N_21
REMARK    7  A    between atoms: C_11  and  C_13
REMARK    8  A    between atoms: N_21  and  N_22
REMARK    9  A    between atoms: N_22  and  C_23
REMARK                            x       y       z     vdW  Elec       q    Type
REMARK                         _______ _______ _______ _____ _____    ______ ____
ROOT
ATOM      1  C   UNL     1       5.995  -0.852  -0.060  0.00  0.00    +0.296 C 
ENDROOT
BRANCH   1   2
ATOM      2  C   UNL     1       6.030  -1.881   1.071  0.00  0.00    +0.436 C 
ATOM      3  F   UNL     1       4.804  -2.554   1.127  0.00  0.00    -0.166 F 
ATOM      4  F   UNL     1       7.056  -2.801   0.834  0.00  0.00    -0.166 F 
ATOM      5  F   UNL     1       6.260  -1.229   2.288  0.00  0.00    -0.166 F 
ENDBRANCH   1   2
BRANCH   1   6
ATOM      6  N   UNL     1       7.322  -0.249  -0.212  0.00  0.00    -0.276 N 
ATOM      7  C   UNL     1       7.477   0.858  -0.966  0.00  0.00    +0.247 C 
ATOM      8  O   UNL     1       6.503   1.413  -1.437  0.00  0.00    -0.270 OA
ATOM      9  H   UNL     1       8.088  -0.645   0.231  0.00  0.00    +0.152 HD
BRANCH   7  10
ATOM     10  C   UNL     1       8.829   1.395  -1.220  0.00  0.00    +0.055 A 
ATOM     11  C   UNL     1       9.949   0.758  -0.681  0.00  0.00    +0.016 A 
ATOM     12  C   UNL     1      11.209   1.264  -0.922  0.00  0.00    +0.021 A 
ATOM     13  C   UNL     1      11.366   2.401  -1.698  0.00  0.00    +0.042 A 
ATOM     14  C   UNL     1      10.260   3.038  -2.236  0.00  0.00    +0.040 A 
ATOM     15  C   UNL     1       8.993   2.538  -2.007  0.00  0.00    +0.054 A 
ATOM     16 CL   UNL     1       7.608   3.332  -2.688  0.00  0.00    -0.083 Cl
ATOM     17 CL   UNL     1      12.955   3.031  -1.996  0.00  0.00    -0.083 Cl
ENDBRANCH   7  10
ENDBRANCH   1   6
BRANCH   1  18
ATOM     18  C   UNL     1       5.603  -1.533  -1.346  0.00  0.00    +0.356 C 
ATOM     19  O   UNL     1       6.438  -1.755  -2.191  0.00  0.00    -0.246 OA
BRANCH  18  21
ATOM     20  C   UNL     1       4.021  -2.543  -2.815  0.00  0.00    +0.280 C 
ATOM     21  O   UNL     1       4.327  -1.892  -1.553  0.00  0.00    -0.465 OA
ENDBRANCH  18  21
ENDBRANCH   1  18
BRANCH   1  22
ATOM     22  N   UNL     1       5.015   0.194   0.259  0.00  0.00    -0.203 NA
ATOM     23  H   UNL     1       5.290   0.708   1.082  0.00  0.00    +0.147 HD
BRANCH  22  24
ATOM     24  N   UNL     1       3.765  -0.335   0.407  0.00  0.00    -0.278 N 
ATOM     25  H   UNL     1       3.626  -1.289   0.299  0.00  0.00    +0.166 HD
BRANCH  24  26
ATOM     26  C   UNL     1       2.686   0.497   0.714  0.00  0.00    +0.041 A 
ATOM     27  C   UNL     1       1.413  -0.040   0.865  0.00  0.00    +0.024 A 
ATOM     28  C   UNL     1       0.349   0.785   1.169  0.00  0.00    +0.002 A 
ATOM     29  C   UNL     1       0.548   2.145   1.323  0.00  0.00    +0.000 A 
ATOM     30  C   UNL     1       1.813   2.683   1.173  0.00  0.00    +0.002 A 
ATOM     31  C   UNL     1       2.882   1.863   0.869  0.00  0.00    +0.024 A 
ENDBRANCH  24  26
ENDBRANCH  22  24
ENDBRANCH   1  22
TORSDOF 8
