REMARK  Name = ZINC04721307
REMARK  11 active torsions:
REMARK  status: ('A' for Active; 'I' for Inactive)
REMARK    1  A    between atoms: C_1  and  O_2
REMARK    2  A    between atoms: O_2  and  C_3
REMARK    3  A    between atoms: C_5  and  O_37
REMARK    4  A    between atoms: C_7  and  O_36
REMARK    5  A    between atoms: C_9  and  O_35
REMARK    6  A    between atoms: C_11  and  C_14
REMARK    7  A    between atoms: C_14  and  O_15
REMARK    8  A    between atoms: O_15  and  C_16
REMARK    9  A    between atoms: C_16  and  C_17
REMARK   10  A    between atoms: C_16  and  C_23
REMARK   11  A    between atoms: C_16  and  C_29
REMARK                            x       y       z     vdW  Elec       q    Type
REMARK                         _______ _______ _______ _____ _____    ______ ____
ROOT
ATOM      1  C   UNL     1      -1.295  -0.603   0.011  0.00  0.00    +0.144 C 
ENDROOT
BRANCH   1   2
ATOM      2  C   UNL     1      -1.722   0.231   1.191  0.00  0.00    -0.007 A 
ATOM      3  C   UNL     1      -2.062   1.559   1.012  0.00  0.00    +0.007 A 
ATOM      4  C   UNL     1      -2.459   2.323   2.094  0.00  0.00    +0.000 A 
ATOM      5  C   UNL     1      -2.505   1.762   3.356  0.00  0.00    +0.000 A 
ATOM      6  C   UNL     1      -2.160   0.436   3.536  0.00  0.00    +0.000 A 
ATOM      7  C   UNL     1      -1.769  -0.330   2.454  0.00  0.00    +0.007 A 
ENDBRANCH   1   2
BRANCH   1   8
ATOM      8  C   UNL     1      -1.751   0.059  -1.264  0.00  0.00    -0.007 A 
ATOM      9  C   UNL     1      -3.032   0.571  -1.357  0.00  0.00    +0.007 A 
ATOM     10  C   UNL     1      -3.448   1.183  -2.524  0.00  0.00    +0.000 A 
ATOM     11  C   UNL     1      -2.587   1.273  -3.602  0.00  0.00    +0.000 A 
ATOM     12  C   UNL     1      -1.309   0.756  -3.511  0.00  0.00    +0.000 A 
ATOM     13  C   UNL     1      -0.890   0.149  -2.341  0.00  0.00    +0.007 A 
ENDBRANCH   1   8
BRANCH   1  14
ATOM     14  C   UNL     1      -1.914  -1.973   0.115  0.00  0.00    -0.007 A 
ATOM     15  C   UNL     1      -3.134  -2.135   0.745  0.00  0.00    +0.007 A 
ATOM     16  C   UNL     1      -3.704  -3.391   0.836  0.00  0.00    +0.000 A 
ATOM     17  C   UNL     1      -3.049  -4.487   0.305  0.00  0.00    +0.000 A 
ATOM     18  C   UNL     1      -1.827  -4.326  -0.321  0.00  0.00    +0.000 A 
ATOM     19  C   UNL     1      -1.260  -3.069  -0.416  0.00  0.00    +0.007 A 
ENDBRANCH   1  14
BRANCH   1  20
ATOM     20  O   UNL     1       0.129  -0.723   0.003  0.00  0.00    -0.357 OA
BRANCH  20  21
ATOM     21  C   UNL     1       0.817   0.526  -0.093  0.00  0.00    +0.196 C 
BRANCH  21  26
ATOM     22  C   UNL     1       4.113  -0.570   1.263  0.00  0.00    +0.281 C 
ATOM     23  C   UNL     1       4.920   0.720   1.092  0.00  0.00    +0.201 C 
ATOM     24  C   UNL     1       4.572   1.355  -0.258  0.00  0.00    +0.179 C 
ATOM     25  C   UNL     1       3.061   1.602  -0.319  0.00  0.00    +0.177 C 
ATOM     26  C   UNL     1       2.326   0.278  -0.093  0.00  0.00    +0.178 C 
ATOM     27  O   UNL     1       2.719  -0.274   1.165  0.00  0.00    -0.341 OA
BRANCH  22  29
ATOM     28  C   UNL     1       3.867  -2.456   2.721  0.00  0.00    +0.197 C 
ATOM     29  O   UNL     1       4.391  -1.139   2.544  0.00  0.00    -0.352 OA
ENDBRANCH  22  29
BRANCH  25  30
ATOM     30  O   UNL     1       2.688   2.535   0.697  0.00  0.00    -0.386 OA
ATOM     31  H   UNL     1       3.117   3.397   0.616  0.00  0.00    +0.210 HD
ENDBRANCH  25  30
BRANCH  24  32
ATOM     32  O   UNL     1       5.265   2.598  -0.395  0.00  0.00    -0.386 OA
ATOM     33  H   UNL     1       6.228   2.517  -0.358  0.00  0.00    +0.210 HD
ENDBRANCH  24  32
BRANCH  23  34
ATOM     34  O   UNL     1       4.597   1.629   2.146  0.00  0.00    -0.384 OA
ATOM     35  H   UNL     1       4.789   1.289   3.031  0.00  0.00    +0.210 HD
ENDBRANCH  23  34
ENDBRANCH  21  26
ENDBRANCH  20  21
ENDBRANCH   1  20
TORSDOF 10
