REMARK  Name = ZINC36186164
REMARK  5 active torsions:
REMARK  status: ('A' for Active; 'I' for Inactive)
REMARK    1  A    between atoms: C_3  and  C_8
REMARK    2  A    between atoms: N_10  and  N_11
REMARK    3  A    between atoms: C_12  and  C_13
REMARK    4  A    between atoms: C_16  and  O_22
REMARK    5  A    between atoms: C_17  and  N_19
REMARK                            x       y       z     vdW  Elec       q    Type
REMARK                         _______ _______ _______ _____ _____    ______ ____
ROOT
ATOM      1  N   UNL     1       6.036   2.216  -0.045  0.00  0.00    -0.187 NA
ATOM      2  C   UNL     1       7.168   1.580  -0.059  0.00  0.00    +0.138 C 
ENDROOT
BRANCH   2   3
ATOM      3  C   UNL     1       8.436   2.332  -0.068  0.00  0.00    -0.003 A 
ATOM      4  C   UNL     1       8.422   3.729  -0.054  0.00  0.00    +0.013 A 
ATOM      5  C   UNL     1       9.610   4.428  -0.063  0.00  0.00    +0.048 A 
ATOM      6  C   UNL     1      10.819   3.745  -0.084  0.00  0.00    +0.147 A 
ATOM      7  C   UNL     1      10.838   2.357  -0.098  0.00  0.00    +0.168 A 
ATOM      8  C   UNL     1       9.655   1.649  -0.083  0.00  0.00    +0.046 A 
BRANCH   7   9
ATOM      9  N   UNL     1      12.130   1.635  -0.121  0.00  0.00    +0.060 N 
ATOM     10  O   UNL     1      12.147   0.426  -0.133  0.00  0.00    -0.126 OA
ATOM     11  O   UNL     1      13.168   2.254  -0.128  0.00  0.00    -0.126 OA
ENDBRANCH   7   9
BRANCH   6  12
ATOM     12  O   UNL     1      11.988   4.438  -0.092  0.00  0.00    -0.504 OA
ATOM     13  H   UNL     1      12.337   4.631   0.788  0.00  0.00    +0.292 HD
ENDBRANCH   6  12
ENDBRANCH   2   3
BRANCH   1  16
ATOM     14  C   UNL     1       3.656   2.161  -0.022  0.00  0.00    +0.263 C 
ATOM     15  O   UNL     1       3.642   3.377  -0.015  0.00  0.00    -0.268 OA
ATOM     16  N   UNL     1       4.831   1.501  -0.036  0.00  0.00    -0.203 N 
ATOM     17  H   UNL     1       4.843   0.531  -0.042  0.00  0.00    +0.178 HD
BRANCH  14  20
ATOM     18  C   UNL     1      -0.017   1.379   0.010  0.00  0.00    +0.002 A 
ATOM     19  C   UNL     1       1.167   2.088   0.002  0.00  0.00    +0.013 A 
ATOM     20  C   UNL     1       2.385   1.408  -0.013  0.00  0.00    +0.039 A 
ATOM     21  C   UNL     1       2.398   0.012  -0.021  0.00  0.00    +0.028 A 
ATOM     22  C   UNL     1       1.207  -0.686  -0.013  0.00  0.00    +0.019 A 
ATOM     23  C   UNL     1       0.002  -0.004   0.002  0.00  0.00    +0.015 A 
ATOM     24 BR   UNL     1       1.221  -2.577  -0.024  0.00  0.00    -0.050 Br
ENDBRANCH  14  20
ENDBRANCH   1  16
TORSDOF 5
