REMARK  Name = ZINC13077820
REMARK  9 active torsions:
REMARK  status: ('A' for Active; 'I' for Inactive)
REMARK    1  A    between atoms: C_1  and  C_2
REMARK    2  A    between atoms: C_2  and  C_4
REMARK    3  A    between atoms: C_2  and  O_7
REMARK    4  A    between atoms: O_7  and  C_8
REMARK    5  A    between atoms: C_11  and  C_14
REMARK    6  A    between atoms: C_16  and  C_24
REMARK    7  A    between atoms: C_27  and  C_30
REMARK    8  A    between atoms: C_30  and  C_31
REMARK    9  A    between atoms: C_30  and  C_32
REMARK                            x       y       z     vdW  Elec       q    Type
REMARK                         _______ _______ _______ _____ _____    ______ ____
ROOT
ATOM      1  C   UNL     1      -2.294  -0.981   5.881  0.00  0.00    +0.039 C 
ATOM      2  C   UNL     1      -1.670  -1.310   7.004  0.00  0.00    +0.028 C 
ATOM      3  C   UNL     1      -2.372  -1.463   8.326  0.00  0.00    +0.167 C 
ATOM      4  N   UNL     1      -3.815  -1.478   8.117  0.00  0.00    -0.202 N 
ATOM      5  C   UNL     1      -4.414  -1.137   6.947  0.00  0.00    +0.240 A 
ATOM      6  N   UNL     1      -5.699  -1.257   7.119  0.00  0.00    -0.092 NA
ATOM      7  N   UNL     1      -5.953  -1.656   8.319  0.00  0.00    -0.021 NA
ATOM      8  N   UNL     1      -4.854  -1.813   8.984  0.00  0.00    -0.042 NA
ATOM      9  N   UNL     1      -3.676  -0.749   5.838  0.00  0.00    -0.282 N 
ATOM     10  H   UNL     1      -4.097  -0.339   5.066  0.00  0.00    +0.155 HD
ENDROOT
BRANCH   1  14
ATOM     11  C   UNL     1      -0.030  -0.600   2.303  0.00  0.00    +0.122 A 
ATOM     12  C   UNL     1      -1.401  -0.376   2.283  0.00  0.00    +0.046 A 
ATOM     13  C   UNL     1      -2.138  -0.498   3.441  0.00  0.00    +0.013 A 
ATOM     14  C   UNL     1      -1.506  -0.849   4.635  0.00  0.00    -0.004 A 
ATOM     15  C   UNL     1      -0.129  -1.073   4.651  0.00  0.00    +0.013 A 
ATOM     16  C   UNL     1       0.601  -0.954   3.488  0.00  0.00    +0.046 A 
BRANCH  11  17
ATOM     17  O   UNL     1       0.693  -0.477   1.160  0.00  0.00    -0.478 OA
BRANCH  17  19
ATOM     18  C   UNL     1      -0.292   1.273  -0.184  0.00  0.00    +0.064 C 
ATOM     19  C   UNL     1      -0.034  -0.229  -0.045  0.00  0.00    +0.282 C 
BRANCH  19  20
ATOM     20  C   UNL     1       0.769  -0.712  -1.225  0.00  0.00    +0.395 C 
ATOM     21  O   UNL     1       1.899  -1.138  -1.060  0.00  0.00    -0.242 OA
ATOM     22  O   UNL     1       0.288  -0.676  -2.345  0.00  0.00    -0.242 OA
ENDBRANCH  19  20
ENDBRANCH  17  19
ENDBRANCH  11  17
ENDBRANCH   1  14
BRANCH   3  23
ATOM     23  C   UNL     1      -2.009  -0.309   9.224  0.00  0.00    -0.019 A 
ATOM     24  C   UNL     1      -2.307   0.986   8.841  0.00  0.00    +0.006 A 
ATOM     25  C   UNL     1      -1.973   2.045   9.665  0.00  0.00    +0.004 A 
ATOM     26  C   UNL     1      -1.342   1.809  10.872  0.00  0.00    -0.045 A 
ATOM     27  C   UNL     1      -1.044   0.515  11.255  0.00  0.00    +0.004 A 
ATOM     28  C   UNL     1      -1.382  -0.544  10.434  0.00  0.00    +0.006 A 
BRANCH  26  29
ATOM     29  C   UNL     1      -0.977   2.964  11.769  0.00  0.00    +0.013 C 
ATOM     30  C   UNL     1      -1.685   2.806  13.116  0.00  0.00    +0.012 C 
ATOM     31  C   UNL     1       0.537   2.981  11.988  0.00  0.00    +0.012 C 
ENDBRANCH  26  29
ENDBRANCH   3  23
TORSDOF 6
