REMARK  Name = ZINC63589101
REMARK  9 active torsions:
REMARK  status: ('A' for Active; 'I' for Inactive)
REMARK    1  A    between atoms: C_1  and  C_2
REMARK    2  A    between atoms: C_6  and  C_8
REMARK    3  A    between atoms: C_8  and  N_10
REMARK    4  A    between atoms: N_12  and  C_13
REMARK    5  A    between atoms: C_18  and  O_19
REMARK    6  A    between atoms: O_19  and  C_20
REMARK    7  A    between atoms: N_22  and  C_23
REMARK    8  A    between atoms: C_23  and  C_24
REMARK    9  A    between atoms: C_24  and  C_25
REMARK                            x       y       z     vdW  Elec       q    Type
REMARK                         _______ _______ _______ _____ _____    ______ ____
ROOT
ATOM      1  N   UNL     1      -0.920  -3.757   2.425  0.00  0.00    -0.143 NA
ATOM      2  C   UNL     1      -0.503  -4.511   3.430  0.00  0.00    +0.194 C 
ATOM      3  N   UNL     1      -0.057  -5.779   3.193  0.00  0.00    -0.325 N 
ATOM      4  N   UNL     1      -0.520  -4.021   4.703  0.00  0.00    -0.357 N 
ATOM      5  H   UNL     1       0.222  -6.341   3.933  0.00  0.00    +0.169 HD
ATOM      6  H   UNL     1      -0.927  -3.160   4.886  0.00  0.00    +0.162 HD
ENDROOT
BRANCH   3   7
ATOM      7  C   UNL     1      -0.001  -6.268   1.882  0.00  0.00    +0.085 A 
ATOM      8  C   UNL     1       0.258  -5.403   0.828  0.00  0.00    +0.049 A 
ATOM      9  C   UNL     1       0.313  -5.888  -0.466  0.00  0.00    +0.043 A 
ATOM     10  C   UNL     1       0.110  -7.235  -0.713  0.00  0.00    +0.024 A 
ATOM     11  C   UNL     1      -0.149  -8.101   0.333  0.00  0.00    +0.049 A 
ATOM     12  C   UNL     1      -0.200  -7.624   1.633  0.00  0.00    +0.143 A 
ATOM     13 CL   UNL     1       0.637  -4.806  -1.784  0.00  0.00    -0.083 Cl
BRANCH  12  14
ATOM     14  O   UNL     1      -0.448  -8.476   2.663  0.00  0.00    -0.493 OA
ATOM     15  C   UNL     1      -0.642  -9.853   2.333  0.00  0.00    +0.277 C 
ENDBRANCH  12  14
ENDBRANCH   3   7
BRANCH   1  16
ATOM     16  C   UNL     1      -1.190  -2.461   2.627  0.00  0.00    +0.270 C 
ATOM     17  O   UNL     1      -1.096  -1.986   3.745  0.00  0.00    -0.268 OA
BRANCH  16  23
ATOM     18  C   UNL     1      -2.575   1.998   0.860  0.00  0.00    +0.044 C 
ATOM     19  C   UNL     1      -2.269   0.539   0.637  0.00  0.00    -0.050 A 
ATOM     20  C   UNL     1      -2.374  -0.003  -0.632  0.00  0.00    +0.003 A 
ATOM     21  C   UNL     1      -2.095  -1.341  -0.844  0.00  0.00    +0.001 A 
ATOM     22  C   UNL     1      -1.710  -2.144   0.210  0.00  0.00    +0.013 A 
ATOM     23  C   UNL     1      -1.602  -1.604   1.491  0.00  0.00    +0.039 A 
ATOM     24  C   UNL     1      -1.879  -0.252   1.698  0.00  0.00    +0.016 A 
ENDBRANCH  16  23
ENDBRANCH   1  16
BRANCH   4  25
ATOM     25  C   UNL     1       0.075  -4.796   5.795  0.00  0.00    +0.120 C 
BRANCH  25  26
ATOM     26  C   UNL     1      -0.184  -4.086   7.125  0.00  0.00    +0.054 C 
BRANCH  26  27
ATOM     27  C   UNL     1       0.530  -4.818   8.232  0.00  0.00    -0.040 C 
ATOM     28  C   UNL     1       1.740  -4.519   8.756  0.00  0.00    -0.001 A 
ATOM     29  C   UNL     1       2.718  -3.465   8.462  0.00  0.00    +0.010 A 
ATOM     30  C   UNL     1       3.869  -3.422   9.171  0.00  0.00    +0.001 A 
ATOM     31  C   UNL     1       4.151  -4.356  10.177  0.00  0.00    +0.002 A 
ATOM     32  C   UNL     1       3.302  -5.354  10.504  0.00  0.00    +0.026 A 
ATOM     33  C   UNL     1       2.062  -5.494   9.823  0.00  0.00    +0.043 A 
ATOM     34  N   UNL     1       1.088  -6.362   9.954  0.00  0.00    -0.380 N 
ATOM     35  C   UNL     1       0.034  -6.031   8.987  0.00  0.00    +0.144 C 
ATOM     36  H   UNL     1       1.065  -7.097  10.586  0.00  0.00    +0.160 HD
ENDBRANCH  26  27
ENDBRANCH  25  26
ENDBRANCH   4  25
TORSDOF 7
