REMARK  Name = ZINC01727947
REMARK  8 active torsions:
REMARK  status: ('A' for Active; 'I' for Inactive)
REMARK    1  A    between atoms: C_1  and  C_2
REMARK    2  A    between atoms: C_5  and  S_8
REMARK    3  A    between atoms: S_8  and  N_11
REMARK    4  A    between atoms: N_11  and  C_12
REMARK    5  A    between atoms: C_21  and  N_22
REMARK    6  A    between atoms: N_22  and  S_23
REMARK    7  A    between atoms: S_23  and  C_26
REMARK    8  A    between atoms: C_29  and  C_32
REMARK                            x       y       z     vdW  Elec       q    Type
REMARK                         _______ _______ _______ _____ _____    ______ ____
ROOT
ATOM      1  C   UNL     1      -1.245   2.721   0.616  0.00  0.00    +0.056 A 
ATOM      2  C   UNL     1      -1.090   1.353   0.687  0.00  0.00    +0.025 A 
ATOM      3  C   UNL     1       0.161   0.769   0.510  0.00  0.00    +0.003 A 
ATOM      4  C   UNL     1       1.261   1.529   0.253  0.00  0.00    +0.010 A 
ATOM      5  C   UNL     1       1.144   2.926   0.168  0.00  0.00    +0.006 A 
ATOM      6  C   UNL     1      -0.121   3.533   0.350  0.00  0.00    +0.006 A 
ATOM      7  C   UNL     1      -0.238   4.929   0.265  0.00  0.00    +0.010 A 
ATOM      8  C   UNL     1       0.862   5.690   0.008  0.00  0.00    +0.003 A 
ATOM      9  C   UNL     1       2.112   5.105  -0.175  0.00  0.00    +0.025 A 
ATOM     10  C   UNL     1       2.268   3.738  -0.098  0.00  0.00    +0.056 A 
ENDROOT
BRANCH   1  11
ATOM     11  N   UNL     1      -2.501   3.296   0.800  0.00  0.00    -0.216 N 
ATOM     12  H   UNL     1      -2.733   4.113   0.331  0.00  0.00    +0.174 HD
BRANCH  11  13
ATOM     13  S   UNL     1      -3.597   2.586   1.818  0.00  0.00    +0.072 S 
ATOM     14  O   UNL     1      -4.706   3.470   1.902  0.00  0.00    -0.150 OA
ATOM     15  O   UNL     1      -3.729   1.236   1.394  0.00  0.00    -0.150 OA
BRANCH  13  20
ATOM     16  C   UNL     1      -1.096   2.432   7.306  0.00  0.00    +0.044 C 
ATOM     17  C   UNL     1      -1.721   2.470   5.936  0.00  0.00    -0.050 A 
ATOM     18  C   UNL     1      -2.476   3.562   5.551  0.00  0.00    +0.005 A 
ATOM     19  C   UNL     1      -3.050   3.597   4.293  0.00  0.00    +0.029 A 
ATOM     20  C   UNL     1      -2.866   2.541   3.421  0.00  0.00    +0.109 A 
ATOM     21  C   UNL     1      -2.115   1.447   3.807  0.00  0.00    +0.029 A 
ATOM     22  C   UNL     1      -1.538   1.414   5.063  0.00  0.00    +0.005 A 
ENDBRANCH  13  20
ENDBRANCH  11  13
ENDBRANCH   1  11
BRANCH  10  23
ATOM     23  N   UNL     1       3.524   3.162  -0.282  0.00  0.00    -0.216 N 
ATOM     24  H   UNL     1       3.604   2.305  -0.729  0.00  0.00    +0.174 HD
BRANCH  23  25
ATOM     25  S   UNL     1       4.880   3.941   0.263  0.00  0.00    +0.072 S 
ATOM     26  O   UNL     1       5.968   3.050   0.063  0.00  0.00    -0.150 OA
ATOM     27  O   UNL     1       4.852   5.246  -0.299  0.00  0.00    -0.150 OA
BRANCH  25  28
ATOM     28  C   UNL     1       4.703   4.138   2.005  0.00  0.00    +0.109 A 
ATOM     29  C   UNL     1       4.102   5.274   2.514  0.00  0.00    +0.029 A 
ATOM     30  C   UNL     1       3.959   5.427   3.881  0.00  0.00    +0.005 A 
ATOM     31  C   UNL     1       4.426   4.448   4.738  0.00  0.00    -0.050 A 
ATOM     32  C   UNL     1       5.032   3.314   4.229  0.00  0.00    +0.005 A 
ATOM     33  C   UNL     1       5.171   3.160   2.862  0.00  0.00    +0.029 A 
ATOM     34  C   UNL     1       4.275   4.617   6.228  0.00  0.00    +0.044 C 
ENDBRANCH  25  28
ENDBRANCH  23  25
ENDBRANCH  10  23
TORSDOF 6
