REMARK  Name = ZINC21239906
REMARK  10 active torsions:
REMARK  status: ('A' for Active; 'I' for Inactive)
REMARK    1  A    between atoms: C_1  and  C_2
REMARK    2  A    between atoms: C_2  and  C_3
REMARK    3  A    between atoms: C_2  and  C_4
REMARK    4  A    between atoms: C_4  and  O_5
REMARK    5  A    between atoms: O_5  and  C_6
REMARK    6  A    between atoms: C_9  and  C_12
REMARK    7  A    between atoms: C_17  and  C_27
REMARK    8  A    between atoms: C_30  and  N_33
REMARK    9  A    between atoms: N_33  and  C_34
REMARK   10  A    between atoms: N_33  and  C_35
REMARK                            x       y       z     vdW  Elec       q    Type
REMARK                         _______ _______ _______ _____ _____    ______ ____
ROOT
ATOM      1  C   UNL     1       2.724   0.605  -0.531  0.00  0.00    +0.032 C 
ATOM      2  C   UNL     1       1.748  -0.356   0.146  0.00  0.00    +0.059 C 
ATOM      3  C   UNL     1       0.336   0.200   0.067  0.00  0.00    +0.017 C 
ATOM      4  C   UNL     1       0.123   1.526   0.084  0.00  0.00    +0.036 C 
ATOM      5  C   UNL     1      -1.222   2.208   0.012  0.00  0.00    +0.136 C 
ATOM      6  N   UNL     1      -2.355   1.324   0.183  0.00  0.00    -0.331 N 
ATOM      7  C   UNL     1      -2.630   0.320  -0.744  0.00  0.00    +0.049 A 
ATOM      8  C   UNL     1      -3.754   0.369  -1.552  0.00  0.00    +0.025 A 
ATOM      9  C   UNL     1      -3.928  -0.590  -2.535  0.00  0.00    +0.002 A 
ATOM     10  C   UNL     1      -2.989  -1.590  -2.711  0.00  0.00    +0.002 A 
ATOM     11  C   UNL     1      -1.875  -1.655  -1.890  0.00  0.00    +0.025 A 
ATOM     12  C   UNL     1      -1.710  -0.707  -0.895  0.00  0.00    +0.052 A 
ATOM     13  N   UNL     1      -0.641  -0.740  -0.007  0.00  0.00    -0.316 N 
ATOM     14  C   UNL     1       1.215   2.422   0.165  0.00  0.00    +0.163 C 
ATOM     15  O   UNL     1       0.993   3.616   0.206  0.00  0.00    -0.292 OA
ATOM     16  C   UNL     1       2.638   1.950   0.201  0.00  0.00    +0.088 C 
ATOM     17  H   UNL     1      -3.015   1.438   1.056  0.00  0.00    +0.147 HD
ATOM     18  H   UNL     1      -0.622  -1.608   0.669  0.00  0.00    +0.152 HD
ENDROOT
BRANCH   1  22
ATOM     19  C   UNL     1       6.699  -0.942  -0.264  0.00  0.00    +0.121 A 
ATOM     20  C   UNL     1       6.125  -0.711  -1.506  0.00  0.00    +0.046 A 
ATOM     21  C   UNL     1       4.840  -0.211  -1.589  0.00  0.00    +0.007 A 
ATOM     22  C   UNL     1       4.126   0.059  -0.437  0.00  0.00    -0.043 A 
ATOM     23  C   UNL     1       4.697  -0.165   0.802  0.00  0.00    +0.007 A 
ATOM     24  C   UNL     1       5.980  -0.670   0.891  0.00  0.00    +0.046 A 
BRANCH  19  25
ATOM     25  O   UNL     1       7.963  -1.434  -0.179  0.00  0.00    -0.492 OA
BRANCH  25  26
ATOM     26  C   UNL     1       8.489  -1.647   1.133  0.00  0.00    +0.232 C 
BRANCH  26  28
ATOM     27  C   UNL     1      10.822  -1.147   0.392  0.00  0.00    +0.010 C 
ATOM     28  C   UNL     1       9.912  -2.200   1.028  0.00  0.00    +0.020 C 
ATOM     29  C   UNL     1      10.429  -2.545   2.425  0.00  0.00    +0.010 C 
ENDBRANCH  26  28
ENDBRANCH  25  26
ENDBRANCH  19  25
ENDBRANCH   1  22
BRANCH   5  30
ATOM     30  C   UNL     1      -1.344   2.885  -1.329  0.00  0.00    -0.023 A 
ATOM     31  C   UNL     1      -1.333   2.128  -2.487  0.00  0.00    +0.007 A 
ATOM     32  C   UNL     1      -1.450   2.744  -3.717  0.00  0.00    +0.023 A 
ATOM     33  C   UNL     1      -1.566   4.127  -3.792  0.00  0.00    +0.029 A 
ATOM     34  C   UNL     1      -1.571   4.884  -2.627  0.00  0.00    +0.023 A 
ATOM     35  C   UNL     1      -1.459   4.261  -1.400  0.00  0.00    +0.007 A 
BRANCH  33  36
ATOM     36  N   UNL     1      -1.679   4.753  -5.035  0.00  0.00    -0.336 N 
ATOM     37  C   UNL     1      -1.677   6.216  -5.121  0.00  0.00    +0.129 C 
ATOM     38  C   UNL     1      -1.798   3.948  -6.253  0.00  0.00    +0.129 C 
ENDBRANCH  33  36
ENDBRANCH   5  30
TORSDOF 6
