REMARK  Name = ZINC33256591
REMARK  12 active torsions:
REMARK  status: ('A' for Active; 'I' for Inactive)
REMARK    1  A    between atoms: C_1  and  C_2
REMARK    2  A    between atoms: C_2  and  C_3
REMARK    3  A    between atoms: C_3  and  N_4
REMARK    4  A    between atoms: C_10  and  C_31
REMARK    5  A    between atoms: C_17  and  S_18
REMARK    6  A    between atoms: S_18  and  C_19
REMARK    7  A    between atoms: C_19  and  C_20
REMARK    8  A    between atoms: N_22  and  C_23
REMARK    9  A    between atoms: C_26  and  C_30
REMARK   10  A    between atoms: N_33  and  C_34
REMARK   11  A    between atoms: C_34  and  C_35
REMARK   12  A    between atoms: C_34  and  C_36
REMARK                            x       y       z     vdW  Elec       q    Type
REMARK                         _______ _______ _______ _____ _____    ______ ____
ROOT
ATOM      1  N   UNL     1     -11.216   4.204  -0.628  0.00  0.00    -0.277 N 
ATOM      2  C   UNL     1     -11.792   2.986  -0.695  0.00  0.00    +0.263 A 
ATOM      3  O   UNL     1     -12.999   2.877  -0.793  0.00  0.00    -0.267 OA
ATOM      4  C   UNL     1     -10.931   1.788  -0.639  0.00  0.00    +0.064 A 
ATOM      5  C   UNL     1     -11.477   0.506  -0.695  0.00  0.00    +0.016 A 
ATOM      6  C   UNL     1     -10.649  -0.594  -0.640  0.00  0.00    +0.014 A 
ATOM      7  C   UNL     1      -9.266  -0.428  -0.527  0.00  0.00    +0.039 A 
ATOM      8  C   UNL     1      -8.715   0.850  -0.470  0.00  0.00    +0.040 A 
ATOM      9  C   UNL     1      -9.543   1.959  -0.525  0.00  0.00    +0.065 A 
ATOM     10  N   UNL     1      -9.017   3.249  -0.470  0.00  0.00    -0.256 N 
ATOM     11  C   UNL     1      -9.841   4.340  -0.521  0.00  0.00    +0.240 A 
ATOM     12  N   UNL     1      -9.088   5.415  -0.456  0.00  0.00    -0.109 NA
ATOM     13  N   UNL     1      -7.753   5.006  -0.356  0.00  0.00    -0.120 NA
ATOM     14  C   UNL     1      -7.728   3.696  -0.362  0.00  0.00    +0.198 A 
ENDROOT
BRANCH   7  15
ATOM     15  C   UNL     1      -8.384  -1.615  -0.468  0.00  0.00    +0.244 C 
ATOM     16  O   UNL     1      -7.181  -1.474  -0.370  0.00  0.00    -0.270 OA
ATOM     17  N   UNL     1      -8.915  -2.853  -0.523  0.00  0.00    -0.309 N 
ATOM     18  H   UNL     1     -10.004  -2.981  -0.612  0.00  0.00    +0.149 HD
BRANCH  17  19
ATOM     19  C   UNL     1      -8.042  -4.028  -0.465  0.00  0.00    +0.067 C 
ATOM     20  C   UNL     1      -7.752  -4.376   0.997  0.00  0.00    +0.027 C 
ATOM     21  C   UNL     1      -8.733  -5.211  -1.144  0.00  0.00    +0.027 C 
ENDBRANCH  17  19
ENDBRANCH   7  15
BRANCH   1  22
ATOM     22  C   UNL     1     -12.057   5.403  -0.685  0.00  0.00    +0.128 C 
BRANCH  22  24
ATOM     23  C   UNL     1     -13.116   7.081  -2.203  0.00  0.00    +0.005 C 
ATOM     24  C   UNL     1     -12.238   5.829  -2.143  0.00  0.00    +0.018 C 
ENDBRANCH  22  24
ENDBRANCH   1  22
BRANCH  14  25
ATOM     25  S   UNL     1      -6.287   2.687  -0.257  0.00  0.00    -0.076 S 
BRANCH  25  26
ATOM     26  C   UNL     1      -4.924   3.878  -0.143  0.00  0.00    +0.173 C 
BRANCH  26  27
ATOM     27  C   UNL     1      -3.616   3.137  -0.047  0.00  0.00    +0.227 C 
ATOM     28  O   UNL     1      -3.604   1.924  -0.054  0.00  0.00    -0.275 OA
ATOM     29  N   UNL     1      -2.458   3.821   0.047  0.00  0.00    -0.285 N 
ATOM     30  H   UNL     1      -2.474   4.917   0.141  0.00  0.00    +0.155 HD
BRANCH  29  31
ATOM     31  C   UNL     1      -1.238   3.138   0.025  0.00  0.00    +0.036 A 
ATOM     32  C   UNL     1      -0.162   3.611   0.767  0.00  0.00    +0.024 A 
ATOM     33  C   UNL     1       1.044   2.939   0.740  0.00  0.00    +0.008 A 
ATOM     34  C   UNL     1       1.179   1.789  -0.016  0.00  0.00    -0.015 A 
ATOM     35  C   UNL     1       0.108   1.310  -0.751  0.00  0.00    +0.128 A 
ATOM     36  C   UNL     1      -1.101   1.983  -0.732  0.00  0.00    +0.062 A 
ATOM     37  F   UNL     1       0.243   0.186  -1.488  0.00  0.00    -0.205 F 
ATOM     38  C   UNL     1       2.495   1.055  -0.038  0.00  0.00    +0.047 C 
ENDBRANCH  29  31
ENDBRANCH  26  27
ENDBRANCH  25  26
ENDBRANCH  14  25
TORSDOF 8
