REMARK  Name = ZINC63290962
REMARK  9 active torsions:
REMARK  status: ('A' for Active; 'I' for Inactive)
REMARK    1  A    between atoms: C_1  and  C_2
REMARK    2  A    between atoms: C_2  and  O_3
REMARK    3  A    between atoms: O_3  and  C_4
REMARK    4  A    between atoms: C_4  and  C_6
REMARK    5  A    between atoms: C_8  and  N_17
REMARK    6  A    between atoms: C_18  and  C_20
REMARK    7  A    between atoms: C_20  and  N_21
REMARK    8  A    between atoms: N_21  and  C_22
REMARK    9  A    between atoms: C_30  and  N_37
REMARK                            x       y       z     vdW  Elec       q    Type
REMARK                         _______ _______ _______ _____ _____    ______ ____
ROOT
ATOM      1  N   UNL     1      -8.186  -2.702   2.788  0.00  0.00    +0.388 N 
ATOM      2  H   UNL     1      -7.965  -3.684   2.853  0.00  0.00    -0.085 HD
ATOM      3  H   UNL     1      -7.939  -2.244   3.652  0.00  0.00    -0.085 HD
ENDROOT
BRANCH   1   4
ATOM      4  C   UNL     1      -9.626  -2.539   2.543  0.00  0.00    -0.044 C 
ATOM      5  C   UNL     1      -9.989  -1.050   2.578  0.00  0.00    -0.013 C 
ATOM      6  C   UNL     1     -11.455  -0.829   2.212  0.00  0.00    +0.003 C 
ATOM      7  C   UNL     1     -12.367  -1.497   3.256  0.00  0.00    +0.033 C 
ATOM      8  C   UNL     1     -11.886  -2.919   3.402  0.00  0.00    -0.040 C 
ATOM      9  C   UNL     1     -12.530  -4.078   3.350  0.00  0.00    +0.001 A 
ATOM     10  C   UNL     1     -13.963  -4.400   3.249  0.00  0.00    +0.042 A 
ATOM     11  C   UNL     1     -14.277  -5.721   3.195  0.00  0.00    +0.127 A 
ATOM     12  C   UNL     1     -13.322  -6.742   3.229  0.00  0.00    +0.035 A 
ATOM     13  C   UNL     1     -11.985  -6.538   3.330  0.00  0.00    +0.028 A 
ATOM     14  C   UNL     1     -11.531  -5.189   3.405  0.00  0.00    +0.043 A 
ATOM     15  N   UNL     1     -10.327  -4.712   3.530  0.00  0.00    -0.379 N 
ATOM     16  C   UNL     1     -10.418  -3.261   3.634  0.00  0.00    +0.092 C 
ATOM     17  H   UNL     1      -9.509  -5.233   3.550  0.00  0.00    +0.160 HD
BRANCH  11  18
ATOM     18  N   UNL     1     -15.705  -6.099   3.094  0.00  0.00    +0.056 N 
ATOM     19  O   UNL     1     -16.556  -5.241   3.062  0.00  0.00    -0.126 OA
ATOM     20  O   UNL     1     -16.020  -7.265   3.043  0.00  0.00    -0.126 OA
ENDBRANCH  11  18
ENDBRANCH   1   4
BRANCH   1  21
ATOM     21  C   UNL     1      -7.430  -2.102   1.681  0.00  0.00    +0.015 C 
BRANCH  21  23
ATOM     22  N   UNL     1      -5.060  -1.792   1.044  0.00  0.00    -0.304 N 
ATOM     23  C   UNL     1      -5.953  -2.269   1.933  0.00  0.00    +0.197 C 
ATOM     24  O   UNL     1      -5.569  -2.832   2.936  0.00  0.00    -0.278 OA
ATOM     25  H   UNL     1      -5.367  -1.341   0.242  0.00  0.00    +0.150 HD
BRANCH  22  27
ATOM     26  C   UNL     1      -2.881  -2.427   0.017  0.00  0.00    +0.155 C 
ATOM     27  C   UNL     1      -3.624  -1.955   1.289  0.00  0.00    +0.153 C 
ATOM     28  S   UNL     1      -3.281  -3.407   2.369  0.00  0.00    -0.106 S 
ATOM     29  C   UNL     1      -2.940  -4.600   1.095  0.00  0.00    -0.013 C 
ATOM     30  C   UNL     1      -2.771  -3.930  -0.035  0.00  0.00    -0.044 C 
ATOM     31  C   UNL     1      -2.477  -4.661  -1.343  0.00  0.00    +0.032 C 
ATOM     32  C   UNL     1      -1.962  -6.065  -1.028  0.00  0.00    +0.005 C 
ATOM     33  C   UNL     1      -2.940  -6.767  -0.080  0.00  0.00    +0.005 C 
ATOM     34  C   UNL     1      -2.862  -6.089   1.285  0.00  0.00    +0.042 C 
BRANCH  26  35
ATOM     35  C   UNL     1      -1.496  -1.832   0.006  0.00  0.00    +0.317 C 
ATOM     36  O   UNL     1      -0.528  -2.555  -0.007  0.00  0.00    -0.250 OA
BRANCH  35  37
ATOM     37  O   UNL     1      -1.339  -0.499   0.012  0.00  0.00    -0.464 OA
BRANCH  37  39
ATOM     38  C   UNL     1      -0.019   1.526   0.010  0.00  0.00    +0.048 C 
ATOM     39  C   UNL     1       0.002  -0.004   0.002  0.00  0.00    +0.229 C 
ENDBRANCH  37  39
ENDBRANCH  35  37
ENDBRANCH  26  35
ENDBRANCH  22  27
ENDBRANCH  21  23
ENDBRANCH   1  21
TORSDOF 8
