REMARK  Name = ZINC09223663
REMARK  6 active torsions:
REMARK  status: ('A' for Active; 'I' for Inactive)
REMARK    1  A    between atoms: C_6  and  C_7
REMARK    2  A    between atoms: C_7  and  C_8
REMARK    3  A    between atoms: N_10  and  N_11
REMARK    4  A    between atoms: C_12  and  C_13
REMARK    5  A    between atoms: C_16  and  C_18
REMARK    6  A    between atoms: C_22  and  C_24
REMARK                            x       y       z     vdW  Elec       q    Type
REMARK                         _______ _______ _______ _____ _____    ______ ____
ROOT
ATOM      1  N   UNL     1       5.668  -1.827  -3.069  0.00  0.00    -0.185 NA
ATOM      2  C   UNL     1       6.780  -2.454  -3.325  0.00  0.00    +0.176 C 
ENDROOT
BRANCH   2   3
ATOM      3  C   UNL     1       7.187  -2.685  -4.713  0.00  0.00    +0.148 A 
ATOM      4  C   UNL     1       8.335  -3.327  -5.122  0.00  0.00    +0.051 A 
ATOM      5  C   UNL     1       8.320  -3.326  -6.524  0.00  0.00    +0.050 A 
ATOM      6  C   UNL     1       7.182  -2.683  -6.912  0.00  0.00    +0.136 A 
ATOM      7  O   UNL     1       6.506  -2.301  -5.812  0.00  0.00    -0.454 OA
BRANCH   6   8
ATOM      8  C   UNL     1       6.761  -2.447  -8.307  0.00  0.00    +0.018 A 
ATOM      9  C   UNL     1       7.556  -2.897  -9.365  0.00  0.00    +0.013 A 
ATOM     10  C   UNL     1       7.165  -2.677 -10.669  0.00  0.00    +0.021 A 
ATOM     11  C   UNL     1       5.984  -2.011 -10.940  0.00  0.00    +0.055 A 
ATOM     12  C   UNL     1       5.179  -1.554  -9.892  0.00  0.00    +0.082 A 
ATOM     13  C   UNL     1       5.566  -1.779  -8.572  0.00  0.00    +0.028 A 
ATOM     14 CL   UNL     1       5.500  -1.739 -12.585  0.00  0.00    -0.083 Cl
BRANCH  12  15
ATOM     15  C   UNL     1       3.918  -0.843 -10.182  0.00  0.00    +0.388 C 
ATOM     16  O   UNL     1       3.579  -0.653 -11.333  0.00  0.00    -0.241 OA
ATOM     17  O   UNL     1       3.144  -0.404  -9.170  0.00  0.00    -0.241 OA
ENDBRANCH  12  15
ENDBRANCH   6   8
ENDBRANCH   2   3
BRANCH   1  20
ATOM     18  C   UNL     1       4.128  -0.956  -1.476  0.00  0.00    +0.237 C 
ATOM     19  O   UNL     1       3.430  -0.562  -2.387  0.00  0.00    -0.274 OA
ATOM     20  N   UNL     1       5.279  -1.605  -1.742  0.00  0.00    -0.207 N 
ATOM     21  H   UNL     1       5.837  -1.920  -1.014  0.00  0.00    +0.177 HD
BRANCH  18  22
ATOM     22  C   UNL     1       3.709  -0.718  -0.048  0.00  0.00    +0.132 C 
BRANCH  22  28
ATOM     23  C   UNL     1       1.208  -0.680  -0.016  0.00  0.00    +0.008 A 
ATOM     24  C   UNL     1       0.002  -0.004   0.002  0.00  0.00    +0.050 A 
ATOM     25  C   UNL     1      -0.017   1.382   0.010  0.00  0.00    +0.162 A 
ATOM     26  C   UNL     1       1.180   2.090   0.002  0.00  0.00    +0.162 A 
ATOM     27  C   UNL     1       2.386   1.406  -0.017  0.00  0.00    +0.053 A 
ATOM     28  C   UNL     1       2.397   0.023  -0.027  0.00  0.00    -0.035 A 
ATOM     29  O   UNL     1       1.184   3.451   0.018  0.00  0.00    -0.485 OA
ATOM     30  C   UNL     1      -0.040   4.103  -0.340  0.00  0.00    +0.270 C 
ATOM     31  C   UNL     1      -1.188   3.413   0.408  0.00  0.00    +0.270 C 
ATOM     32  O   UNL     1      -1.211   2.034   0.019  0.00  0.00    -0.485 OA
ENDBRANCH  22  28
ENDBRANCH  18  22
ENDBRANCH   1  20
TORSDOF 6
