REMARK  Name = ZINC39666996
REMARK  11 active torsions:
REMARK  status: ('A' for Active; 'I' for Inactive)
REMARK    1  A    between atoms: C_1  and  C_2
REMARK    2  A    between atoms: C_5  and  C_9
REMARK    3  A    between atoms: C_6  and  C_8
REMARK    4  A    between atoms: C_9  and  C_10
REMARK    5  A    between atoms: C_10  and  N_11
REMARK    6  A    between atoms: C_12  and  C_14
REMARK    7  A    between atoms: C_25  and  C_27
REMARK    8  A    between atoms: C_30  and  O_35
REMARK    9  A    between atoms: C_32  and  O_33
REMARK   10  A    between atoms: O_33  and  C_34
REMARK   11  A    between atoms: O_35  and  C_36
REMARK                            x       y       z     vdW  Elec       q    Type
REMARK                         _______ _______ _______ _____ _____    ______ ____
ROOT
ATOM      1  C   UNL     1      -2.478  -8.467   0.197  0.00  0.00    +0.100 C 
ATOM      2  C   UNL     1      -1.597  -9.005   1.347  0.00  0.00    +0.121 C 
ATOM      3  N   UNL     1      -2.545  -9.265   2.455  0.00  0.00    -0.296 N 
ATOM      4  C   UNL     1      -3.744  -9.830   1.790  0.00  0.00    +0.115 C 
ATOM      5  C   UNL     1      -3.885  -9.013   0.489  0.00  0.00    -0.004 C 
ATOM      6  C   UNL     1      -4.867  -7.863   0.694  0.00  0.00    -0.010 C 
ATOM      7  C   UNL     1      -6.270  -8.430   0.927  0.00  0.00    -0.082 C 
ATOM      8  N   UNL     1      -6.670  -9.242  -0.229  0.00  0.00    +0.379 N 
ATOM      9  C   UNL     1      -5.775 -10.398  -0.363  0.00  0.00    -0.082 C 
ATOM     10  C   UNL     1      -4.351  -9.914  -0.651  0.00  0.00    -0.010 C 
ATOM     11  C   UNL     1      -2.360  -9.040   3.771  0.00  0.00    +0.250 C 
ATOM     12  O   UNL     1      -1.352  -8.479   4.156  0.00  0.00    -0.270 OA
ATOM     13  H   UNL     1      -7.617  -9.564  -0.101  0.00  0.00    -0.086 HD
ATOM     14  H   UNL     1      -6.619  -8.680  -1.066  0.00  0.00    -0.086 HD
ENDROOT
BRANCH  11  15
ATOM     15  C   UNL     1      -3.378  -9.474   4.743  0.00  0.00    +0.079 A 
ATOM     16  C   UNL     1      -4.097 -10.654   4.527  0.00  0.00    +0.020 A 
ATOM     17  C   UNL     1      -5.047 -11.056   5.437  0.00  0.00    +0.046 A 
ATOM     18  C   UNL     1      -5.296 -10.292   6.574  0.00  0.00    +0.124 A 
ATOM     19  C   UNL     1      -4.589  -9.120   6.798  0.00  0.00    +0.092 A 
ATOM     20  C   UNL     1      -3.626  -8.708   5.892  0.00  0.00    +0.136 A 
BRANCH  20  21
ATOM     21  O   UNL     1      -2.930  -7.565   6.112  0.00  0.00    -0.494 OA
ATOM     22  C   UNL     1      -3.236  -6.837   7.303  0.00  0.00    +0.277 C 
ENDBRANCH  20  21
BRANCH  18  23
ATOM     23  O   UNL     1      -6.235 -10.695   7.467  0.00  0.00    -0.495 OA
ATOM     24  C   UNL     1      -6.927 -11.911   7.176  0.00  0.00    +0.277 C 
ENDBRANCH  18  23
ENDBRANCH  11  15
BRANCH   1  26
ATOM     25  N   UNL     1      -2.632  -6.282  -0.952  0.00  0.00    -0.315 N 
ATOM     26  C   UNL     1      -2.488  -6.960   0.204  0.00  0.00    +0.218 C 
ATOM     27  O   UNL     1      -2.365  -6.358   1.250  0.00  0.00    -0.275 OA
ATOM     28  H   UNL     1      -2.730  -6.764  -1.788  0.00  0.00    +0.149 HD
BRANCH  25  29
ATOM     29  C   UNL     1      -2.642  -4.817  -0.945  0.00  0.00    +0.109 C 
BRANCH  29  30
ATOM     30  C   UNL     1      -2.818  -4.301  -2.374  0.00  0.00    +0.054 C 
BRANCH  30  35
ATOM     31  C   UNL     1      -2.855   1.477  -2.343  0.00  0.00    +0.044 C 
ATOM     32  C   UNL     1      -2.846  -0.030  -2.352  0.00  0.00    -0.050 A 
ATOM     33  C   UNL     1      -4.038  -0.729  -2.317  0.00  0.00    +0.003 A 
ATOM     34  C   UNL     1      -4.029  -2.111  -2.324  0.00  0.00    +0.004 A 
ATOM     35  C   UNL     1      -2.828  -2.794  -2.367  0.00  0.00    -0.043 A 
ATOM     36  C   UNL     1      -1.636  -2.095  -2.403  0.00  0.00    -0.047 A 
ATOM     37  C   UNL     1      -1.645  -0.713  -2.400  0.00  0.00    +0.007 A 
ATOM     38  C   UNL     1      -0.327  -2.840  -2.449  0.00  0.00    +0.044 C 
ENDBRANCH  30  35
ENDBRANCH  29  30
ENDBRANCH  25  29
ENDBRANCH   1  26
TORSDOF 7
