REMARK  Name = ZINC12541458
REMARK  6 active torsions:
REMARK  status: ('A' for Active; 'I' for Inactive)
REMARK    1  A    between atoms: C_6  and  C_10
REMARK    2  A    between atoms: C_10  and  N_11
REMARK    3  A    between atoms: C_12  and  C_14
REMARK    4  A    between atoms: C_17  and  S_20
REMARK    5  A    between atoms: S_20  and  N_23
REMARK    6  A    between atoms: N_23  and  C_24
REMARK                            x       y       z     vdW  Elec       q    Type
REMARK                         _______ _______ _______ _____ _____    ______ ____
ROOT
ATOM      1  C   UNL     1       6.460  -1.773   0.555  0.00  0.00    +0.037 A 
ATOM      2  C   UNL     1       5.848  -2.974   0.918  0.00  0.00    +0.015 A 
ATOM      3  C   UNL     1       4.593  -3.280   0.434  0.00  0.00    +0.029 A 
ATOM      4  C   UNL     1       3.941  -2.399  -0.411  0.00  0.00    +0.109 A 
ATOM      5  C   UNL     1       4.544  -1.210  -0.780  0.00  0.00    +0.029 A 
ATOM      6  C   UNL     1       5.797  -0.889  -0.298  0.00  0.00    +0.015 A 
ENDROOT
BRANCH   1   8
ATOM      7  N   UNL     1       8.392  -0.279   0.718  0.00  0.00    -0.306 N 
ATOM      8  C   UNL     1       7.804  -1.439   1.071  0.00  0.00    +0.244 C 
ATOM      9  O   UNL     1       8.379  -2.210   1.814  0.00  0.00    -0.270 OA
ATOM     10  H   UNL     1       7.934   0.337   0.125  0.00  0.00    +0.149 HD
BRANCH   7  11
ATOM     11  C   UNL     1       9.725   0.053   1.229  0.00  0.00    +0.161 C 
BRANCH  11  17
ATOM     12  C   UNL     1      11.666   5.003  -1.542  0.00  0.00    +0.005 A 
ATOM     13  C   UNL     1      11.192   5.628  -0.377  0.00  0.00    +0.018 A 
ATOM     14  C   UNL     1      10.632   4.896   0.609  0.00  0.00    +0.092 A 
ATOM     15  N   UNL     1      10.517   3.542   0.490  0.00  0.00    -0.306 N 
ATOM     16  C   UNL     1       9.998   2.580   1.314  0.00  0.00    +0.117 A 
ATOM     17  C   UNL     1      10.151   1.393   0.688  0.00  0.00    +0.077 A 
ATOM     18  N   UNL     1      10.739   1.606  -0.492  0.00  0.00    -0.231 NA
ATOM     19  C   UNL     1      10.970   2.903  -0.635  0.00  0.00    +0.138 A 
ATOM     20  C   UNL     1      11.558   3.653  -1.673  0.00  0.00    +0.047 A 
ENDBRANCH  11  17
ENDBRANCH   7  11
ENDBRANCH   1   8
BRANCH   4  21
ATOM     21  S   UNL     1       2.339  -2.797  -1.026  0.00  0.00    +0.072 S 
ATOM     22  O   UNL     1       2.179  -4.200  -0.863  0.00  0.00    -0.150 OA
ATOM     23  O   UNL     1       2.218  -2.159  -2.290  0.00  0.00    -0.150 OA
BRANCH  21  24
ATOM     24  N   UNL     1       1.236  -2.076  -0.024  0.00  0.00    -0.216 N 
ATOM     25  H   UNL     1       0.628  -1.406  -0.374  0.00  0.00    +0.174 HD
BRANCH  24  26
ATOM     26  C   UNL     1       1.182  -2.431   1.327  0.00  0.00    +0.048 A 
ATOM     27  C   UNL     1       1.110  -1.446   2.303  0.00  0.00    +0.027 A 
ATOM     28  C   UNL     1       1.057  -1.799   3.638  0.00  0.00    +0.040 A 
ATOM     29  C   UNL     1       1.075  -3.135   4.002  0.00  0.00    +0.124 A 
ATOM     30  C   UNL     1       1.147  -4.119   3.031  0.00  0.00    +0.040 A 
ATOM     31  C   UNL     1       1.200  -3.770   1.695  0.00  0.00    +0.027 A 
ATOM     32  F   UNL     1       1.023  -3.478   5.308  0.00  0.00    -0.205 F 
ENDBRANCH  24  26
ENDBRANCH  21  24
ENDBRANCH   4  21
TORSDOF 6
