REMARK  Name = ZINC65119138
REMARK  11 active torsions:
REMARK  status: ('A' for Active; 'I' for Inactive)
REMARK    1  A    between atoms: C_1  and  C_2
REMARK    2  A    between atoms: C_5  and  C_16
REMARK    3  A    between atoms: C_7  and  S_8
REMARK    4  A    between atoms: S_8  and  N_11
REMARK    5  A    between atoms: C_17  and  C_27
REMARK    6  A    between atoms: C_22  and  C_26
REMARK    7  A    between atoms: C_24  and  C_25
REMARK    8  A    between atoms: N_29  and  C_30
REMARK    9  A    between atoms: C_31  and  C_38
REMARK   10  A    between atoms: C_33  and  C_37
REMARK   11  A    between atoms: C_35  and  C_36
REMARK                            x       y       z     vdW  Elec       q    Type
REMARK                         _______ _______ _______ _____ _____    ______ ____
ROOT
ATOM      1  C   UNL     1      -0.562  -4.729  -1.079  0.00  0.00    +0.058 A 
ATOM      2  C   UNL     1      -0.969  -5.306   0.142  0.00  0.00    +0.158 A 
ATOM      3  N   UNL     1      -0.065  -6.200   0.504  0.00  0.00    -0.159 NA
ATOM      4  N   UNL     1       0.952  -6.239  -0.456  0.00  0.00    -0.218 N 
ATOM      5  C   UNL     1       0.646  -5.335  -1.440  0.00  0.00    +0.164 A 
ATOM      6  N   UNL     1       1.457  -5.172  -2.491  0.00  0.00    -0.232 NA
ATOM      7  C   UNL     1       2.559  -5.874  -2.607  0.00  0.00    +0.042 A 
ATOM      8  C   UNL     1       2.906  -6.812  -1.624  0.00  0.00    +0.046 A 
ATOM      9  C   UNL     1       2.097  -6.980  -0.549  0.00  0.00    +0.044 A 
ATOM     10  C   UNL     1       2.446  -7.984   0.520  0.00  0.00    +0.066 C 
ATOM     11  C   UNL     1       3.456  -5.672  -3.801  0.00  0.00    +0.066 C 
ENDROOT
BRANCH   1  16
ATOM     12  C   UNL     1      -3.362  -0.661  -4.035  0.00  0.00    +0.046 C 
ATOM     13  C   UNL     1      -2.629  -1.726  -3.261  0.00  0.00    -0.024 A 
ATOM     14  C   UNL     1      -2.478  -2.990  -3.803  0.00  0.00    +0.006 A 
ATOM     15  C   UNL     1      -1.808  -3.970  -3.100  0.00  0.00    +0.009 A 
ATOM     16  C   UNL     1      -1.281  -3.683  -1.839  0.00  0.00    -0.010 A 
ATOM     17  C   UNL     1      -1.437  -2.406  -1.299  0.00  0.00    +0.037 A 
ATOM     18  C   UNL     1      -2.104  -1.434  -2.015  0.00  0.00    +0.109 A 
BRANCH  18  19
ATOM     19  S   UNL     1      -2.296   0.181  -1.337  0.00  0.00    +0.061 S 
ATOM     20  O   UNL     1      -3.669   0.520  -1.477  0.00  0.00    -0.153 OA
ATOM     21  O   UNL     1      -1.637   0.174  -0.078  0.00  0.00    -0.153 OA
BRANCH  19  22
ATOM     22  N   UNL     1      -1.450   1.223  -2.307  0.00  0.00    -0.177 NA
ATOM     23  C   UNL     1      -0.005   1.483  -2.231  0.00  0.00    +0.109 C 
ATOM     24  C   UNL     1       0.328   2.538  -3.308  0.00  0.00    +0.018 C 
ATOM     25  C   UNL     1      -1.039   3.230  -3.551  0.00  0.00    +0.018 C 
ATOM     26  C   UNL     1      -2.021   2.039  -3.395  0.00  0.00    +0.109 C 
ENDBRANCH  19  22
ENDBRANCH  18  19
ENDBRANCH   1  16
BRANCH   2  27
ATOM     27  C   UNL     1      -2.197  -4.968   0.889  0.00  0.00    +0.269 C 
ATOM     28  O   UNL     1      -2.958  -4.125   0.457  0.00  0.00    -0.268 OA
ATOM     29  N   UNL     1      -2.473  -5.595   2.050  0.00  0.00    -0.280 N 
ATOM     30  H   UNL     1      -1.903  -6.316   2.359  0.00  0.00    +0.155 HD
BRANCH  29  31
ATOM     31  C   UNL     1      -3.582  -5.206   2.807  0.00  0.00    +0.040 A 
ATOM     32  C   UNL     1      -4.505  -6.155   3.228  0.00  0.00    -0.029 A 
ATOM     33  C   UNL     1      -5.599  -5.768   3.976  0.00  0.00    +0.008 A 
ATOM     34  C   UNL     1      -5.777  -4.437   4.307  0.00  0.00    -0.050 A 
ATOM     35  C   UNL     1      -4.860  -3.490   3.889  0.00  0.00    +0.008 A 
ATOM     36  C   UNL     1      -3.761  -3.871   3.146  0.00  0.00    -0.029 A 
ATOM     37  C   UNL     1      -2.759  -2.839   2.696  0.00  0.00    +0.045 C 
ATOM     38  C   UNL     1      -6.972  -4.018   5.123  0.00  0.00    +0.044 C 
ATOM     39  C   UNL     1      -4.313  -7.606   2.867  0.00  0.00    +0.045 C 
ENDBRANCH  29  31
ENDBRANCH   2  27
TORSDOF 5
