REMARK  Name = ZINC39686139
REMARK  6 active torsions:
REMARK  status: ('A' for Active; 'I' for Inactive)
REMARK    1  A    between atoms: C_1  and  C_2
REMARK    2  A    between atoms: C_2  and  C_3
REMARK    3  A    between atoms: C_2  and  C_4
REMARK    4  A    between atoms: C_9  and  N_12
REMARK    5  A    between atoms: C_13  and  C_15
REMARK    6  A    between atoms: C_26  and  C_28
REMARK                            x       y       z     vdW  Elec       q    Type
REMARK                         _______ _______ _______ _____ _____    ______ ____
ROOT
ATOM      1  C   UNL     1      -2.738  -7.305   3.522  0.00  0.00    +0.100 C 
ATOM      2  C   UNL     1      -3.253  -6.525   4.753  0.00  0.00    +0.121 C 
ATOM      3  N   UNL     1      -4.704  -6.822   4.804  0.00  0.00    -0.300 N 
ATOM      4  C   UNL     1      -4.799  -8.256   4.440  0.00  0.00    +0.115 C 
ATOM      5  C   UNL     1      -3.753  -8.442   3.322  0.00  0.00    -0.004 C 
ATOM      6  C   UNL     1      -3.064  -9.796   3.464  0.00  0.00    -0.010 C 
ATOM      7  C   UNL     1      -4.081 -10.911   3.203  0.00  0.00    -0.082 C 
ATOM      8  N   UNL     1      -4.639 -10.762   1.854  0.00  0.00    +0.379 N 
ATOM      9  C   UNL     1      -5.379  -9.498   1.755  0.00  0.00    -0.082 C 
ATOM     10  C   UNL     1      -4.417  -8.324   1.954  0.00  0.00    -0.010 C 
ATOM     11  C   UNL     1      -5.709  -5.980   5.113  0.00  0.00    +0.219 C 
ATOM     12  O   UNL     1      -6.855  -6.378   5.112  0.00  0.00    -0.275 OA
ATOM     13  H   UNL     1      -3.889 -10.764   1.179  0.00  0.00    -0.086 HD
ATOM     14  H   UNL     1      -5.262 -11.531   1.662  0.00  0.00    -0.086 HD
ENDROOT
BRANCH  11  15
ATOM     15  C   UNL     1      -5.410  -4.544   5.460  0.00  0.00    +0.079 C 
ATOM     16  C   UNL     1      -4.505  -4.493   6.695  0.00  0.00    +0.041 C 
ATOM     17  C   UNL     1      -4.271  -3.032   7.086  0.00  0.00    +0.160 C 
ATOM     18  O   UNL     1      -5.528  -2.398   7.329  0.00  0.00    -0.380 OA
ATOM     19  C   UNL     1      -6.398  -2.373   6.196  0.00  0.00    +0.160 C 
ATOM     20  C   UNL     1      -6.717  -3.808   5.768  0.00  0.00    +0.041 C 
ENDBRANCH  11  15
BRANCH   1  22
ATOM     21  N   UNL     1      -1.792  -6.619   1.342  0.00  0.00    -0.312 N 
ATOM     22  C   UNL     1      -2.707  -6.410   2.309  0.00  0.00    +0.218 C 
ATOM     23  O   UNL     1      -3.505  -5.503   2.204  0.00  0.00    -0.275 OA
ATOM     24  H   UNL     1      -1.153  -7.344   1.426  0.00  0.00    +0.149 HD
BRANCH  21  30
ATOM     25  C   UNL     1       0.560  -3.881  -2.664  0.00  0.00    +0.218 C 
ATOM     26  O   UNL     1       1.167  -2.889  -2.322  0.00  0.00    -0.275 OA
ATOM     27  N   UNL     1      -0.464  -4.336  -1.915  0.00  0.00    -0.301 N 
ATOM     28  C   UNL     1      -1.130  -5.603  -2.249  0.00  0.00    +0.109 C 
ATOM     29  C   UNL     1      -1.129  -6.502  -1.010  0.00  0.00    +0.041 C 
ATOM     30  C   UNL     1      -1.761  -5.749   0.163  0.00  0.00    +0.076 C 
ATOM     31  C   UNL     1      -0.936  -4.498   0.473  0.00  0.00    +0.041 C 
ATOM     32  C   UNL     1      -0.931  -3.579  -0.746  0.00  0.00    +0.109 C 
BRANCH  25  34
ATOM     33  C   UNL     1       1.637  -3.628  -4.883  0.00  0.00    +0.017 C 
ATOM     34  C   UNL     1       0.950  -4.605  -3.927  0.00  0.00    +0.069 C 
ATOM     35  C   UNL     1       1.912  -5.745  -3.585  0.00  0.00    +0.017 C 
ENDBRANCH  25  34
ENDBRANCH  21  30
ENDBRANCH   1  22
TORSDOF 4
