REMARK  Name = ZINC24772381
REMARK  10 active torsions:
REMARK  status: ('A' for Active; 'I' for Inactive)
REMARK    1  A    between atoms: C_1  and  C_2
REMARK    2  A    between atoms: C_2  and  C_23
REMARK    3  A    between atoms: N_5  and  N_9
REMARK    4  A    between atoms: C_10  and  C_12
REMARK    5  A    between atoms: C_12  and  N_13
REMARK    6  A    between atoms: N_13  and  C_14
REMARK    7  A    between atoms: N_13  and  C_15
REMARK    8  A    between atoms: C_15  and  C_16
REMARK    9  A    between atoms: C_26  and  O_29
REMARK   10  A    between atoms: O_29  and  C_30
REMARK                            x       y       z     vdW  Elec       q    Type
REMARK                         _______ _______ _______ _____ _____    ______ ____
ROOT
ATOM      1  C   UNL     1       0.115  -4.821   1.408  0.00  0.00    +0.047 C 
ATOM      2  C   UNL     1       0.060  -4.277  -0.021  0.00  0.00    +0.137 C 
ATOM      3  C   UNL     1       1.231  -4.790  -0.836  0.00  0.00    +0.267 C 
ATOM      4  O   UNL     1       2.409  -4.600  -0.625  0.00  0.00    -0.271 OA
ATOM      5  N   UNL     1       0.689  -5.500  -1.845  0.00  0.00    -0.137 N 
ATOM      6  C   UNL     1      -0.648  -5.507  -1.782  0.00  0.00    +0.327 C 
ATOM      7  O   UNL     1      -1.359  -6.081  -2.583  0.00  0.00    -0.251 OA
ATOM      8  N   UNL     1      -1.116  -4.807  -0.733  0.00  0.00    -0.280 N 
ATOM      9  H   UNL     1      -2.128  -4.591  -0.360  0.00  0.00    +0.152 HD
ENDROOT
BRANCH   2  10
ATOM     10  C   UNL     1       0.040  -2.770  -0.013  0.00  0.00    -0.015 A 
ATOM     11  C   UNL     1      -1.168  -2.096   0.002  0.00  0.00    +0.010 A 
ATOM     12  C   UNL     1      -1.189  -0.715   0.010  0.00  0.00    +0.046 A 
ATOM     13  C   UNL     1       0.002  -0.004   0.002  0.00  0.00    +0.120 A 
ATOM     14  C   UNL     1       1.212  -0.682  -0.019  0.00  0.00    +0.046 A 
ATOM     15  C   UNL     1       1.228  -2.064  -0.021  0.00  0.00    +0.010 A 
BRANCH  13  16
ATOM     16  O   UNL     1      -0.016   1.355   0.009  0.00  0.00    -0.495 OA
ATOM     17  C   UNL     1       1.248   2.021   0.001  0.00  0.00    +0.277 C 
ENDBRANCH  13  16
ENDBRANCH   2  10
BRANCH   5  18
ATOM     18  N   UNL     1       1.433  -6.150  -2.839  0.00  0.00    -0.225 N 
ATOM     19  C   UNL     1       1.499  -5.630  -4.080  0.00  0.00    +0.213 C 
ATOM     20  O   UNL     1       0.915  -4.598  -4.337  0.00  0.00    -0.276 OA
ATOM     21  H   UNL     1       1.962  -7.086  -2.606  0.00  0.00    +0.173 HD
BRANCH  19  22
ATOM     22  C   UNL     1       2.300  -6.329  -5.149  0.00  0.00    +0.020 C 
BRANCH  22  23
ATOM     23  N   UNL     1       2.214  -5.567  -6.402  0.00  0.00    +0.386 N 
ATOM     24  C   UNL     1       0.844  -5.575  -6.930  0.00  0.00    -0.095 C 
ATOM     25  H   UNL     1       2.486  -4.524  -6.183  0.00  0.00    -0.081 HD
BRANCH  23  26
ATOM     26  C   UNL     1       3.165  -6.082  -7.396  0.00  0.00    -0.043 C 
BRANCH  26  27
ATOM     27  C   UNL     1       3.227  -5.136  -8.568  0.00  0.00    -0.064 A 
ATOM     28  C   UNL     1       2.374  -5.310  -9.642  0.00  0.00    +0.004 A 
ATOM     29  C   UNL     1       2.426  -4.440 -10.715  0.00  0.00    +0.038 A 
ATOM     30  C   UNL     1       3.341  -3.401 -10.719  0.00  0.00    +0.123 A 
ATOM     31  C   UNL     1       4.199  -3.231  -9.645  0.00  0.00    +0.038 A 
ATOM     32  C   UNL     1       4.141  -4.099  -8.571  0.00  0.00    +0.004 A 
ATOM     33  F   UNL     1       3.397  -2.553 -11.769  0.00  0.00    -0.205 F 
ENDBRANCH  26  27
ENDBRANCH  23  26
ENDBRANCH  22  23
ENDBRANCH  19  22
ENDBRANCH   5  18
TORSDOF 7
