REMARK  Name = ZINC32528834
REMARK  10 active torsions:
REMARK  status: ('A' for Active; 'I' for Inactive)
REMARK    1  A    between atoms: C_1  and  C_2
REMARK    2  A    between atoms: C_9  and  S_13
REMARK    3  A    between atoms: C_11  and  C_12
REMARK    4  A    between atoms: S_13  and  C_14
REMARK    5  A    between atoms: C_14  and  C_16
REMARK    6  A    between atoms: C_14  and  C_17
REMARK    7  A    between atoms: N_19  and  C_20
REMARK    8  A    between atoms: C_23  and  S_26
REMARK    9  A    between atoms: S_26  and  N_29
REMARK   10  A    between atoms: N_29  and  C_30
REMARK                            x       y       z     vdW  Elec       q    Type
REMARK                         _______ _______ _______ _____ _____    ______ ____
ROOT
ATOM      1  C   UNL     1       5.288   1.782  -0.160  0.00  0.00    +0.230 C 
ATOM      2  O   UNL     1       5.536   0.628   0.119  0.00  0.00    -0.274 OA
ATOM      3  N   UNL     1       6.271   2.599  -0.588  0.00  0.00    -0.285 N 
ATOM      4  H   UNL     1       6.033   3.622  -0.914  0.00  0.00    +0.155 HD
ENDROOT
BRANCH   3   5
ATOM      5  C   UNL     1       7.594   2.145  -0.618  0.00  0.00    +0.034 A 
ATOM      6  C   UNL     1       8.636   3.020  -0.341  0.00  0.00    +0.025 A 
ATOM      7  C   UNL     1       9.941   2.567  -0.366  0.00  0.00    +0.030 A 
ATOM      8  C   UNL     1      10.210   1.247  -0.677  0.00  0.00    +0.105 A 
ATOM      9  C   UNL     1       9.175   0.375  -0.960  0.00  0.00    +0.030 A 
ATOM     10  C   UNL     1       7.868   0.820  -0.931  0.00  0.00    +0.025 A 
BRANCH   8  11
ATOM     11  S   UNL     1      11.877   0.675  -0.715  0.00  0.00    +0.059 S 
ATOM     12  O   UNL     1      12.625   1.549   0.119  0.00  0.00    -0.153 OA
ATOM     13  O   UNL     1      11.829  -0.729  -0.498  0.00  0.00    -0.153 OA
BRANCH  11  14
ATOM     14  N   UNL     1      12.436   0.897  -2.257  0.00  0.00    -0.187 NA
ATOM     15  H   UNL     1      12.543   0.027  -2.921  0.00  0.00    +0.148 HD
BRANCH  14  16
ATOM     16  C   UNL     1      12.576   2.252  -2.797  0.00  0.00    +0.077 C 
ATOM     17  C   UNL     1      11.320   2.617  -3.591  0.00  0.00    +0.020 C 
ATOM     18  C   UNL     1      11.467   4.032  -4.155  0.00  0.00    +0.002 C 
ATOM     19  C   UNL     1      12.687   4.090  -5.077  0.00  0.00    +0.000 C 
ATOM     20  C   UNL     1      13.943   3.724  -4.283  0.00  0.00    +0.002 C 
ATOM     21  C   UNL     1      13.796   2.310  -3.719  0.00  0.00    +0.020 C 
ENDBRANCH  14  16
ENDBRANCH  11  14
ENDBRANCH   8  11
ENDBRANCH   3   5
BRANCH   1  22
ATOM     22  C   UNL     1       3.880   2.303  -0.029  0.00  0.00    +0.136 C 
ATOM     23  C   UNL     1       3.745   3.086   1.278  0.00  0.00    +0.029 C 
BRANCH  22  24
ATOM     24  S   UNL     1       2.721   0.912  -0.020  0.00  0.00    -0.093 S 
BRANCH  24  33
ATOM     25  C   UNL     1       1.403   5.953  -0.018  0.00  0.00    +0.046 C 
ATOM     26  C   UNL     1       0.088   5.216  -0.010  0.00  0.00    -0.024 A 
ATOM     27  C   UNL     1      -1.084   5.909  -0.004  0.00  0.00    +0.005 A 
ATOM     28  C   UNL     1      -2.309   5.247   0.004  0.00  0.00    +0.001 A 
ATOM     29  C   UNL     1      -2.368   3.886   0.007  0.00  0.00    +0.010 A 
ATOM     30  C   UNL     1      -1.179   3.140   0.001  0.00  0.00    +0.004 A 
ATOM     31  C   UNL     1       0.068   3.811  -0.007  0.00  0.00    +0.075 A 
ATOM     32  N   UNL     1       1.205   3.106  -0.013  0.00  0.00    -0.240 NA
ATOM     33  C   UNL     1       1.192   1.788  -0.012  0.00  0.00    +0.099 A 
ATOM     34  C   UNL     1      -0.011   1.066  -0.004  0.00  0.00    +0.038 A 
ATOM     35  C   UNL     1      -1.200   1.730  -0.003  0.00  0.00    -0.039 A 
ATOM     36  C   UNL     1      -2.506   0.977  -0.002  0.00  0.00    +0.044 C 
ENDBRANCH  24  33
ENDBRANCH  22  24
ENDBRANCH   1  22
TORSDOF 7
