REMARK  Name = ZINC09447280
REMARK  8 active torsions:
REMARK  status: ('A' for Active; 'I' for Inactive)
REMARK    1  A    between atoms: C_1  and  C_2
REMARK    2  A    between atoms: C_5  and  C_8
REMARK    3  A    between atoms: C_10  and  C_14
REMARK    4  A    between atoms: C_17  and  S_20
REMARK    5  A    between atoms: N_18  and  N_19
REMARK    6  A    between atoms: S_20  and  C_21
REMARK    7  A    between atoms: C_21  and  C_22
REMARK    8  A    between atoms: N_24  and  C_25
REMARK                            x       y       z     vdW  Elec       q    Type
REMARK                         _______ _______ _______ _____ _____    ______ ____
ROOT
ATOM      1  C   UNL     1       0.161  -7.593   1.520  0.00  0.00    +0.199 A 
ATOM      2  N   UNL     1       0.427  -7.634   2.806  0.00  0.00    -0.125 NA
ATOM      3  N   UNL     1       0.340  -8.843   3.233  0.00  0.00    -0.120 NA
ATOM      4  C   UNL     1       0.013  -9.649   2.248  0.00  0.00    +0.209 A 
ATOM      5  N   UNL     1      -0.118  -8.882   1.124  0.00  0.00    -0.223 N 
ENDROOT
BRANCH   1   8
ATOM      6  C   UNL     1       0.146  -4.270  -0.045  0.00  0.00    +0.093 A 
ATOM      7  C   UNL     1       0.148  -5.095   1.091  0.00  0.00    +0.061 A 
ATOM      8  C   UNL     1       0.156  -6.394   0.664  0.00  0.00    +0.105 A 
ATOM      9  N   UNL     1       0.158  -6.376  -0.702  0.00  0.00    -0.273 N 
ATOM     10  H   UNL     1       0.163  -7.152  -1.283  0.00  0.00    +0.189 HD
ATOM     11  N   UNL     1       0.147  -5.037  -1.115  0.00  0.00    -0.173 NA
BRANCH   6  16
ATOM     12  C   UNL     1       0.112   1.490  -0.027  0.00  0.00    +0.044 C 
ATOM     13  C   UNL     1       0.121  -0.017  -0.032  0.00  0.00    -0.050 A 
ATOM     14  C   UNL     1       0.123  -0.703  -1.233  0.00  0.00    +0.004 A 
ATOM     15  C   UNL     1       0.131  -2.083  -1.243  0.00  0.00    +0.010 A 
ATOM     16  C   UNL     1       0.138  -2.786  -0.040  0.00  0.00    +0.002 A 
ATOM     17  C   UNL     1       0.137  -2.090   1.167  0.00  0.00    +0.010 A 
ATOM     18  C   UNL     1       0.134  -0.710   1.165  0.00  0.00    +0.004 A 
ENDBRANCH   6  16
ENDBRANCH   1   8
BRANCH   5  19
ATOM     19  N   UNL     1      -0.454  -9.307  -0.130  0.00  0.00    -0.295 N 
ATOM     20  H   UNL     1       0.368  -9.556  -0.659  0.00  0.00    +0.163 HD
ATOM     21  H   UNL     1      -1.105 -10.076  -0.089  0.00  0.00    +0.163 HD
ENDBRANCH   5  19
BRANCH   4  22
ATOM     22  S   UNL     1      -0.220 -11.392   2.356  0.00  0.00    -0.075 S 
BRANCH  22  23
ATOM     23  C   UNL     1       0.093 -11.768   4.103  0.00  0.00    +0.173 C 
BRANCH  23  24
ATOM     24  C   UNL     1      -0.074 -13.248   4.336  0.00  0.00    +0.228 C 
ATOM     25  O   UNL     1      -0.376 -13.976   3.414  0.00  0.00    -0.275 OA
ATOM     26  N   UNL     1       0.110 -13.761   5.568  0.00  0.00    -0.283 N 
ATOM     27  H   UNL     1       0.414 -13.190   6.291  0.00  0.00    +0.155 HD
BRANCH  26  28
ATOM     28  C   UNL     1      -0.136 -15.120   5.805  0.00  0.00    +0.069 A 
ATOM     29  C   UNL     1       0.132 -16.058   4.818  0.00  0.00    +0.027 A 
ATOM     30  C   UNL     1      -0.112 -17.397   5.054  0.00  0.00    +0.017 A 
ATOM     31  C   UNL     1      -0.624 -17.805   6.273  0.00  0.00    +0.021 A 
ATOM     32  C   UNL     1      -0.893 -16.873   7.260  0.00  0.00    +0.055 A 
ATOM     33  C   UNL     1      -0.645 -15.531   7.032  0.00  0.00    +0.146 A 
ATOM     34  F   UNL     1      -0.903 -14.622   7.997  0.00  0.00    -0.204 F 
ATOM     35 BR   UNL     1      -0.957 -19.639   6.591  0.00  0.00    -0.050 Br
ENDBRANCH  26  28
ENDBRANCH  23  24
ENDBRANCH  22  23
ENDBRANCH   4  22
TORSDOF 7
