REMARK  Name = ZINC39659254
REMARK  7 active torsions:
REMARK  status: ('A' for Active; 'I' for Inactive)
REMARK    1  A    between atoms: C_1  and  C_2
REMARK    2  A    between atoms: C_2  and  C_33
REMARK    3  A    between atoms: C_5  and  C_8
REMARK    4  A    between atoms: C_8  and  N_9
REMARK    5  A    between atoms: C_10  and  C_12
REMARK    6  A    between atoms: C_23  and  C_25
REMARK    7  A    between atoms: C_25  and  C_26
REMARK                            x       y       z     vdW  Elec       q    Type
REMARK                         _______ _______ _______ _____ _____    ______ ____
ROOT
ATOM      1  C   UNL     1       3.020  -2.669   5.320  0.00  0.00    +0.100 C 
ATOM      2  C   UNL     1       4.201  -1.840   4.766  0.00  0.00    +0.121 C 
ATOM      3  N   UNL     1       5.369  -2.268   5.573  0.00  0.00    -0.300 N 
ATOM      4  C   UNL     1       5.187  -3.730   5.738  0.00  0.00    +0.115 C 
ATOM      5  C   UNL     1       3.671  -3.908   5.956  0.00  0.00    -0.004 C 
ATOM      6  C   UNL     1       3.355  -3.964   7.447  0.00  0.00    -0.010 C 
ATOM      7  C   UNL     1       3.965  -5.235   8.046  0.00  0.00    -0.082 C 
ATOM      8  N   UNL     1       3.415  -6.412   7.364  0.00  0.00    +0.379 N 
ATOM      9  C   UNL     1       3.801  -6.398   5.949  0.00  0.00    -0.082 C 
ATOM     10  C   UNL     1       3.184  -5.176   5.261  0.00  0.00    -0.010 C 
ATOM     11  C   UNL     1       6.370  -1.501   6.048  0.00  0.00    +0.220 C 
ATOM     12  O   UNL     1       7.263  -2.003   6.697  0.00  0.00    -0.275 OA
ATOM     13  H   UNL     1       3.771  -7.249   7.801  0.00  0.00    -0.086 HD
ATOM     14  H   UNL     1       2.408  -6.401   7.437  0.00  0.00    -0.086 HD
ENDROOT
BRANCH   1  16
ATOM     15  N   UNL     1       0.786  -3.275   4.448  0.00  0.00    -0.312 N 
ATOM     16  C   UNL     1       2.096  -3.077   4.201  0.00  0.00    +0.218 C 
ATOM     17  O   UNL     1       2.531  -3.227   3.079  0.00  0.00    -0.275 OA
ATOM     18  H   UNL     1       0.438  -3.156   5.345  0.00  0.00    +0.149 HD
BRANCH  15  19
ATOM     19  C   UNL     1      -0.112  -3.672   3.361  0.00  0.00    +0.138 C 
BRANCH  19  24
ATOM     20  C   UNL     1      -4.383  -2.324   5.021  0.00  0.00    +0.074 C 
ATOM     21  C   UNL     1      -3.477  -2.574   3.814  0.00  0.00    +0.165 C 
ATOM     22  O   UNL     1      -3.765  -3.866   3.253  0.00  0.00    -0.347 OA
ATOM     23  C   UNL     1      -2.483  -4.370   2.807  0.00  0.00    +0.196 C 
ATOM     24  C   UNL     1      -1.533  -3.830   3.905  0.00  0.00    +0.164 C 
ATOM     25  O   UNL     1      -2.105  -2.546   4.228  0.00  0.00    -0.342 OA
ATOM     26  C   UNL     1      -3.717  -1.494   2.758  0.00  0.00    +0.074 C 
ENDBRANCH  19  24
ENDBRANCH  15  19
ENDBRANCH   1  16
BRANCH  11  27
ATOM     27  C   UNL     1       6.380  -0.019   5.773  0.00  0.00    +0.131 C 
BRANCH  27  28
ATOM     28  C   UNL     1       7.596   0.602   6.410  0.00  0.00    -0.039 A 
ATOM     29  C   UNL     1       7.533   1.072   7.708  0.00  0.00    +0.005 A 
ATOM     30  C   UNL     1       8.648   1.641   8.293  0.00  0.00    +0.020 A 
ATOM     31  C   UNL     1       9.829   1.741   7.578  0.00  0.00    +0.041 A 
ATOM     32  C   UNL     1       9.892   1.270   6.279  0.00  0.00    +0.020 A 
ATOM     33  C   UNL     1       8.777   0.696   5.697  0.00  0.00    +0.005 A 
ATOM     34 CL   UNL     1      11.230   2.456   8.312  0.00  0.00    -0.084 Cl
ENDBRANCH  27  28
ENDBRANCH  11  27
TORSDOF 5
