REMARK  Name = ZINC33655618
REMARK  9 active torsions:
REMARK  status: ('A' for Active; 'I' for Inactive)
REMARK    1  A    between atoms: C_1  and  C_2
REMARK    2  A    between atoms: C_3  and  C_24
REMARK    3  A    between atoms: C_11  and  O_14
REMARK    4  A    between atoms: O_14  and  C_15
REMARK    5  A    between atoms: N_19  and  C_20
REMARK    6  A    between atoms: C_20  and  C_21
REMARK    7  A    between atoms: C_21  and  O_22
REMARK    8  A    between atoms: O_22  and  C_23
REMARK    9  A    between atoms: N_26  and  C_27
REMARK                            x       y       z     vdW  Elec       q    Type
REMARK                         _______ _______ _______ _____ _____    ______ ____
ROOT
ATOM      1  C   UNL     1      -3.705   5.241   0.249  0.00  0.00    +0.079 C 
ATOM      2  C   UNL     1      -2.285   4.881  -0.192  0.00  0.00    +0.190 C 
ATOM      3  C   UNL     1      -1.275   5.714   0.611  0.00  0.00    +0.162 C 
ATOM      4  C   UNL     1       0.116   5.405   0.033  0.00  0.00    +0.123 C 
ATOM      5  C   UNL     1       0.316   3.907   0.055  0.00  0.00    +0.019 A 
ATOM      6  C   UNL     1       1.606   3.404   0.079  0.00  0.00    +0.009 A 
ATOM      7  C   UNL     1       1.821   2.039   0.090  0.00  0.00    +0.004 A 
ATOM      8  C   UNL     1       0.746   1.170   0.074  0.00  0.00    +0.049 A 
ATOM      9  C   UNL     1      -0.545   1.667   0.045  0.00  0.00    +0.162 A 
ATOM     10  C   UNL     1      -0.765   3.046   0.044  0.00  0.00    +0.170 A 
ATOM     11  O   UNL     1      -2.046   3.500   0.066  0.00  0.00    -0.464 OA
ATOM     12  N   UNL     1       0.134   5.831  -1.376  0.00  0.00    -0.318 N 
ATOM     13  C   UNL     1      -0.983   5.651  -2.121  0.00  0.00    +0.136 C 
ATOM     14  S   UNL     1      -0.924   6.063  -3.782  0.00  0.00    -0.019 S 
ATOM     15  N   UNL     1      -2.130   5.173  -1.614  0.00  0.00    -0.272 N 
ATOM     16  H   UNL     1       1.042   6.284  -1.802  0.00  0.00    +0.148 HD
ENDROOT
BRANCH   3  17
ATOM     17  C   UNL     1      -1.327   5.323   2.066  0.00  0.00    +0.228 C 
ATOM     18  O   UNL     1      -2.128   4.495   2.443  0.00  0.00    -0.275 OA
ATOM     19  N   UNL     1      -0.482   5.895   2.947  0.00  0.00    -0.285 N 
ATOM     20  H   UNL     1       0.301   6.581   2.593  0.00  0.00    +0.155 HD
BRANCH  19  21
ATOM     21  C   UNL     1      -0.603   5.615   4.313  0.00  0.00    +0.033 A 
ATOM     22  C   UNL     1      -1.854   5.381   4.868  0.00  0.00    +0.025 A 
ATOM     23  C   UNL     1      -1.969   5.101   6.215  0.00  0.00    +0.022 A 
ATOM     24  C   UNL     1      -0.840   5.064   7.015  0.00  0.00    +0.041 A 
ATOM     25  C   UNL     1       0.407   5.303   6.466  0.00  0.00    +0.022 A 
ATOM     26  C   UNL     1       0.529   5.578   5.118  0.00  0.00    +0.025 A 
ATOM     27 CL   UNL     1      -0.990   4.720   8.710  0.00  0.00    -0.084 Cl
ENDBRANCH  19  21
ENDBRANCH   3  17
BRANCH   9  28
ATOM     28  O   UNL     1      -1.602   0.812   0.023  0.00  0.00    -0.491 OA
ATOM     29  C   UNL     1      -1.305  -0.586   0.031  0.00  0.00    +0.277 C 
ENDBRANCH   9  28
BRANCH  15  30
ATOM     30  C   UNL     1      -3.260   4.937  -2.515  0.00  0.00    +0.138 C 
BRANCH  30  31
ATOM     31  C   UNL     1      -4.116   6.203  -2.602  0.00  0.00    +0.178 C 
BRANCH  31  32
ATOM     32  O   UNL     1      -3.357   7.249  -3.213  0.00  0.00    -0.381 OA
ATOM     33  C   UNL     1      -4.068   8.482  -3.343  0.00  0.00    +0.194 C 
ENDBRANCH  31  32
ENDBRANCH  30  31
ENDBRANCH  15  30
TORSDOF 6
