REMARK  Name = ZINC08823942
REMARK  7 active torsions:
REMARK  status: ('A' for Active; 'I' for Inactive)
REMARK    1  A    between atoms: C_3  and  N_26
REMARK    2  A    between atoms: C_6  and  C_7
REMARK    3  A    between atoms: N_9  and  N_10
REMARK    4  A    between atoms: C_11  and  C_13
REMARK    5  A    between atoms: C_13  and  S_14
REMARK    6  A    between atoms: S_14  and  C_15
REMARK    7  A    between atoms: C_19  and  C_21
REMARK                            x       y       z     vdW  Elec       q    Type
REMARK                         _______ _______ _______ _____ _____    ______ ____
ROOT
ATOM      1  N   UNL     1       2.455  -4.213  -0.043  0.00  0.00    -0.233 N 
ATOM      2  C   UNL     1       3.635  -4.865  -0.058  0.00  0.00    +0.239 C 
ATOM      3  O   UNL     1       4.673  -4.239  -0.065  0.00  0.00    -0.273 OA
ATOM      4  H   UNL     1       1.624  -4.714  -0.037  0.00  0.00    +0.173 HD
ENDROOT
BRANCH   1   7
ATOM      5  C   UNL     1       1.250  -2.160  -0.021  0.00  0.00    +0.260 C 
ATOM      6  O   UNL     1       0.208  -2.788  -0.014  0.00  0.00    -0.269 OA
ATOM      7  N   UNL     1       2.429  -2.812  -0.036  0.00  0.00    -0.230 N 
ATOM      8  H   UNL     1       3.260  -2.312  -0.041  0.00  0.00    +0.173 HD
BRANCH   5  14
ATOM      9  C   UNL     1       0.002  -0.004   0.002  0.00  0.00    +0.015 A 
ATOM     10  C   UNL     1      -0.017   1.375   0.010  0.00  0.00    +0.033 A 
ATOM     11  C   UNL     1       1.170   2.086   0.002  0.00  0.00    +0.126 A 
ATOM     12  C   UNL     1       2.383   1.420  -0.013  0.00  0.00    +0.033 A 
ATOM     13  C   UNL     1       2.416   0.041  -0.021  0.00  0.00    +0.015 A 
ATOM     14  C   UNL     1       1.222  -0.682  -0.013  0.00  0.00    +0.038 A 
BRANCH  11  15
ATOM     15  N   UNL     1       1.143   3.566   0.010  0.00  0.00    +0.056 N 
ATOM     16  O   UNL     1       0.077   4.155   0.024  0.00  0.00    -0.126 OA
ATOM     17  O   UNL     1       2.186   4.195   0.004  0.00  0.00    -0.126 OA
ENDBRANCH  11  15
ENDBRANCH   5  14
ENDBRANCH   1   7
BRANCH   2  18
ATOM     18  C   UNL     1       3.663  -6.372  -0.066  0.00  0.00    +0.171 C 
BRANCH  18  19
ATOM     19  S   UNL     1       5.384  -6.944  -0.085  0.00  0.00    -0.116 S 
BRANCH  19  20
ATOM     20  C   UNL     1       5.249  -8.701  -0.093  0.00  0.00    +0.009 A 
ATOM     21  C   UNL     1       3.996  -9.303  -0.078  0.00  0.00    +0.016 A 
ATOM     22  C   UNL     1       3.893 -10.680  -0.089  0.00  0.00    +0.021 A 
ATOM     23  C   UNL     1       5.036 -11.461  -0.104  0.00  0.00    +0.053 A 
ATOM     24  C   UNL     1       6.285 -10.864  -0.113  0.00  0.00    +0.074 A 
ATOM     25  C   UNL     1       6.394  -9.487  -0.108  0.00  0.00    +0.028 A 
ATOM     26 CL   UNL     1       4.903 -13.191  -0.110  0.00  0.00    -0.083 Cl
BRANCH  24  27
ATOM     27  C   UNL     1       7.527 -11.718  -0.130  0.00  0.00    +0.419 C 
ATOM     28  F   UNL     1       8.658 -10.895  -0.138  0.00  0.00    -0.166 F 
ATOM     29  F   UNL     1       7.549 -12.531   1.008  0.00  0.00    -0.166 F 
ATOM     30  F   UNL     1       7.526 -12.520  -1.276  0.00  0.00    -0.166 F 
ENDBRANCH  24  27
ENDBRANCH  19  20
ENDBRANCH  18  19
ENDBRANCH   2  18
TORSDOF 7
