REMARK  Name = ZINC39603964
REMARK  12 active torsions:
REMARK  status: ('A' for Active; 'I' for Inactive)
REMARK    1  A    between atoms: C_1  and  C_2
REMARK    2  A    between atoms: C_2  and  O_3
REMARK    3  A    between atoms: O_3  and  C_4
REMARK    4  A    between atoms: C_4  and  C_6
REMARK    5  A    between atoms: C_6  and  C_7
REMARK    6  A    between atoms: C_7  and  N_8
REMARK    7  A    between atoms: C_9  and  C_11
REMARK    8  A    between atoms: C_22  and  C_24
REMARK    9  A    between atoms: C_27  and  O_32
REMARK   10  A    between atoms: C_29  and  O_30
REMARK   11  A    between atoms: O_30  and  C_31
REMARK   12  A    between atoms: O_32  and  C_33
REMARK                            x       y       z     vdW  Elec       q    Type
REMARK                         _______ _______ _______ _____ _____    ______ ____
ROOT
ATOM      1  C   UNL     1      -5.674  -6.459   0.021  0.00  0.00    +0.100 C 
ATOM      2  C   UNL     1      -6.486  -5.965  -1.197  0.00  0.00    +0.121 C 
ATOM      3  N   UNL     1      -6.303  -7.020  -2.221  0.00  0.00    -0.296 N 
ATOM      4  C   UNL     1      -6.353  -8.289  -1.456  0.00  0.00    +0.115 C 
ATOM      5  C   UNL     1      -5.592  -7.985  -0.151  0.00  0.00    -0.004 C 
ATOM      6  C   UNL     1      -4.137  -8.425  -0.275  0.00  0.00    -0.010 C 
ATOM      7  C   UNL     1      -4.078  -9.951  -0.388  0.00  0.00    -0.082 C 
ATOM      8  N   UNL     1      -4.694 -10.556   0.799  0.00  0.00    +0.379 N 
ATOM      9  C   UNL     1      -6.117 -10.202   0.861  0.00  0.00    -0.082 C 
ATOM     10  C   UNL     1      -6.262  -8.687   1.027  0.00  0.00    -0.010 C 
ATOM     11  C   UNL     1      -6.130  -6.862  -3.549  0.00  0.00    +0.250 C 
ATOM     12  O   UNL     1      -6.014  -5.746  -4.018  0.00  0.00    -0.270 OA
ATOM     13  H   UNL     1      -4.600 -11.559   0.751  0.00  0.00    -0.086 HD
ATOM     14  H   UNL     1      -4.228 -10.216   1.628  0.00  0.00    -0.086 HD
ENDROOT
BRANCH  11  15
ATOM     15  C   UNL     1      -6.082  -8.040  -4.431  0.00  0.00    +0.079 A 
ATOM     16  C   UNL     1      -6.875  -9.158  -4.153  0.00  0.00    +0.020 A 
ATOM     17  C   UNL     1      -6.827 -10.257  -4.979  0.00  0.00    +0.046 A 
ATOM     18  C   UNL     1      -5.992 -10.261  -6.093  0.00  0.00    +0.124 A 
ATOM     19  C   UNL     1      -5.201  -9.158  -6.377  0.00  0.00    +0.092 A 
ATOM     20  C   UNL     1      -5.245  -8.044  -5.557  0.00  0.00    +0.136 A 
BRANCH  20  21
ATOM     21  O   UNL     1      -4.476  -6.962  -5.837  0.00  0.00    -0.494 OA
ATOM     22  C   UNL     1      -3.649  -7.037  -6.999  0.00  0.00    +0.277 C 
ENDBRANCH  20  21
BRANCH  18  23
ATOM     23  O   UNL     1      -5.951 -11.349  -6.902  0.00  0.00    -0.495 OA
ATOM     24  C   UNL     1      -6.791 -12.451  -6.552  0.00  0.00    +0.277 C 
ENDBRANCH  18  23
ENDBRANCH  11  15
BRANCH   1  26
ATOM     25  N   UNL     1      -3.652  -5.621   1.174  0.00  0.00    -0.314 N 
ATOM     26  C   UNL     1      -4.293  -5.855   0.012  0.00  0.00    +0.218 C 
ATOM     27  O   UNL     1      -3.759  -5.580  -1.042  0.00  0.00    -0.275 OA
ATOM     28  H   UNL     1      -4.079  -5.841   2.016  0.00  0.00    +0.149 HD
BRANCH  25  29
ATOM     29  C   UNL     1      -2.310  -5.034   1.164  0.00  0.00    +0.115 C 
BRANCH  29  30
ATOM     30  C   UNL     1      -1.813  -4.873   2.603  0.00  0.00    +0.139 C 
BRANCH  30  31
ATOM     31  C   UNL     1      -0.432  -4.270   2.593  0.00  0.00    +0.309 C 
ATOM     32  O   UNL     1       0.100  -3.996   1.543  0.00  0.00    -0.251 OA
BRANCH  31  33
ATOM     33  O   UNL     1       0.206  -4.036   3.750  0.00  0.00    -0.465 OA
BRANCH  33  35
ATOM     34  C   UNL     1       2.077  -3.271   5.075  0.00  0.00    +0.048 C 
ATOM     35  C   UNL     1       1.512  -3.462   3.666  0.00  0.00    +0.229 C 
ENDBRANCH  33  35
ENDBRANCH  31  33
ENDBRANCH  30  31
ENDBRANCH  29  30
ENDBRANCH  25  29
ENDBRANCH   1  26
TORSDOF 9
