REMARK  Name = ZINC01094882
REMARK  7 active torsions:
REMARK  status: ('A' for Active; 'I' for Inactive)
REMARK    1  A    between atoms: C_1  and  C_2
REMARK    2  A    between atoms: C_2  and  C_3
REMARK    3  A    between atoms: C_13  and  C_17
REMARK    4  A    between atoms: C_19  and  N_27
REMARK    5  A    between atoms: C_20  and  C_23
REMARK    6  A    between atoms: C_23  and  O_25
REMARK    7  A    between atoms: O_25  and  C_26
REMARK                            x       y       z     vdW  Elec       q    Type
REMARK                         _______ _______ _______ _____ _____    ______ ____
ROOT
ATOM      1  C   UNL     1       1.337  -3.964   0.071  0.00  0.00    +0.132 A 
ATOM      2  N   UNL     1       0.932  -2.707   0.078  0.00  0.00    -0.212 NA
ATOM      3  C   UNL     1       1.775  -1.694  -0.024  0.00  0.00    +0.168 A 
ATOM      4  C   UNL     1       3.165  -1.961  -0.151  0.00  0.00    +0.055 A 
ATOM      5  C   UNL     1       4.272  -1.013  -0.284  0.00  0.00    -0.024 A 
ATOM      6  C   UNL     1       5.512  -1.532  -0.390  0.00  0.00    -0.004 A 
ATOM      7  S   UNL     1       5.288  -3.288  -0.306  0.00  0.00    -0.073 S 
ATOM      8  C   UNL     1       3.522  -3.325  -0.144  0.00  0.00    +0.114 A 
ATOM      9  N   UNL     1       2.615  -4.275  -0.038  0.00  0.00    -0.225 NA
ATOM     10  C   UNL     1       6.801  -0.780  -0.534  0.00  0.00    +0.046 C 
ATOM     11  C   UNL     1       6.476   0.670  -0.919  0.00  0.00    -0.009 C 
ATOM     12  C   UNL     1       5.379   1.192   0.013  0.00  0.00    +0.008 C 
ATOM     13  C   UNL     1       4.054   0.498  -0.304  0.00  0.00    +0.037 C 
ATOM     14  C   UNL     1       7.729   1.536  -0.774  0.00  0.00    +0.008 C 
ATOM     15  N   UNL     1       1.307  -0.382  -0.013  0.00  0.00    -0.199 N 
ATOM     16  C   UNL     1       0.569   0.190   0.974  0.00  0.00    +0.136 A 
ATOM     17  C   UNL     1       0.318   1.504   0.584  0.00  0.00    +0.118 A 
ATOM     18  C   UNL     1       0.938   1.687  -0.675  0.00  0.00    +0.151 A 
ATOM     19  N   UNL     1       1.516   0.571  -1.015  0.00  0.00    -0.171 NA
ENDROOT
BRANCH  16  20
ATOM     20  N   UNL     1       0.148  -0.414   2.139  0.00  0.00    -0.342 N 
ATOM     21  H   UNL     1      -0.378   0.086   2.783  0.00  0.00    +0.144 HD
ATOM     22  H   UNL     1       0.379  -1.340   2.316  0.00  0.00    +0.144 HD
ENDBRANCH  16  20
BRANCH   1  24
ATOM     23  C   UNL     1      -0.159  -5.476  -1.204  0.00  0.00    +0.012 C 
ATOM     24  C   UNL     1       0.318  -5.067   0.192  0.00  0.00    +0.073 C 
ENDBRANCH   1  24
BRANCH  17  25
ATOM     25  C   UNL     1      -0.448   2.505   1.333  0.00  0.00    +0.344 C 
ATOM     26  O   UNL     1      -0.938   2.216   2.408  0.00  0.00    -0.245 OA
BRANCH  25  27
ATOM     27  O   UNL     1      -0.610   3.745   0.829  0.00  0.00    -0.464 OA
ATOM     28  C   UNL     1      -1.380   4.684   1.625  0.00  0.00    +0.280 C 
ENDBRANCH  25  27
ENDBRANCH  17  25
TORSDOF 4
