REMARK  Name = ZINC63929239
REMARK  7 active torsions:
REMARK  status: ('A' for Active; 'I' for Inactive)
REMARK    1  A    between atoms: C_1  and  C_2
REMARK    2  A    between atoms: C_4  and  C_17
REMARK    3  A    between atoms: C_7  and  O_12
REMARK    4  A    between atoms: O_12  and  C_13
REMARK    5  A    between atoms: C_17  and  C_18
REMARK    6  A    between atoms: C_18  and  N_19
REMARK    7  A    between atoms: C_20  and  C_22
REMARK                            x       y       z     vdW  Elec       q    Type
REMARK                         _______ _______ _______ _____ _____    ______ ____
ROOT
ATOM      1  C   UNL     1       0.352  -0.269  -2.664  0.00  0.00    +0.052 C 
ENDROOT
BRANCH   1   4
ATOM      2  C   UNL     1      -0.019   1.526   0.010  0.00  0.00    +0.035 C 
ATOM      3  C   UNL     1       0.002  -0.004   0.002  0.00  0.00    +0.103 C 
ATOM      4  C   UNL     1       0.729  -0.509  -1.224  0.00  0.00    -0.037 C 
ATOM      5  C   UNL     1       1.785  -1.220  -0.768  0.00  0.00    +0.003 A 
ATOM      6  C   UNL     1       2.858  -1.954  -1.447  0.00  0.00    +0.056 A 
ATOM      7  C   UNL     1       3.803  -2.586  -0.711  0.00  0.00    +0.131 A 
ATOM      8  C   UNL     1       3.796  -2.567   0.695  0.00  0.00    +0.048 A 
ATOM      9  C   UNL     1       2.851  -1.919   1.409  0.00  0.00    +0.029 A 
ATOM     10  C   UNL     1       1.779  -1.200   0.713  0.00  0.00    +0.043 A 
ATOM     11  N   UNL     1       0.758  -0.506   1.155  0.00  0.00    -0.378 N 
ATOM     12  H   UNL     1       0.540  -0.349   2.087  0.00  0.00    +0.160 HD
BRANCH   7  13
ATOM     13  O   UNL     1       4.792  -3.263  -1.353  0.00  0.00    -0.406 OA
BRANCH  13  14
ATOM     14  C   UNL     1       5.767  -3.915  -0.537  0.00  0.00    +0.575 C 
ATOM     15  F   UNL     1       5.136  -4.859   0.280  0.00  0.00    -0.133 F 
ATOM     16  F   UNL     1       6.704  -4.558  -1.354  0.00  0.00    -0.133 F 
ATOM     17  F   UNL     1       6.417  -2.968   0.261  0.00  0.00    -0.133 F 
ENDBRANCH  13  14
ENDBRANCH   7  13
ENDBRANCH   1   4
BRANCH   1  18
ATOM     18  C   UNL     1       1.363  -0.963  -3.578  0.00  0.00    +0.108 C 
BRANCH  18  19
ATOM     19  N   UNL     1       0.997  -0.729  -4.977  0.00  0.00    -0.314 N 
ATOM     20  C   UNL     1       1.750  -1.249  -5.967  0.00  0.00    +0.227 C 
ATOM     21  O   UNL     1       2.731  -1.910  -5.699  0.00  0.00    -0.275 OA
ATOM     22  H   UNL     1       0.212  -0.201  -5.192  0.00  0.00    +0.149 HD
BRANCH  20  23
ATOM     23  C   UNL     1       1.373  -1.009  -7.406  0.00  0.00    +0.188 C 
ATOM     24  C   UNL     1       2.393  -1.682  -8.330  0.00  0.00    +0.063 C 
ATOM     25  C   UNL     1       3.666  -0.875  -8.361  0.00  0.00    -0.003 A 
ATOM     26  C   UNL     1       4.834  -1.498  -8.774  0.00  0.00    +0.022 A 
ATOM     27  C   UNL     1       6.021  -0.794  -8.823  0.00  0.00    +0.018 A 
ATOM     28  C   UNL     1       6.050   0.541  -8.460  0.00  0.00    +0.019 A 
ATOM     29  C   UNL     1       4.891   1.166  -8.047  0.00  0.00    +0.048 A 
ATOM     30  C   UNL     1       3.695   0.458  -7.992  0.00  0.00    +0.135 A 
ATOM     31  O   UNL     1       2.579   1.107  -7.560  0.00  0.00    -0.425 OA
ATOM     32  C   UNL     1       1.395   0.477  -7.703  0.00  0.00    +0.325 C 
ATOM     33  O   UNL     1       0.400   1.067  -8.052  0.00  0.00    -0.250 OA
ATOM     34 BR   UNL     1       7.608  -1.655  -9.386  0.00  0.00    -0.050 Br
ENDBRANCH  20  23
ENDBRANCH  18  19
ENDBRANCH   1  18
TORSDOF 6
