REMARK  Name = ZINC51994630
REMARK  5 active torsions:
REMARK  status: ('A' for Active; 'I' for Inactive)
REMARK    1  A    between atoms: C_2  and  N_22
REMARK    2  A    between atoms: C_6  and  S_7
REMARK    3  A    between atoms: S_7  and  N_10
REMARK    4  A    between atoms: N_10  and  C_11
REMARK    5  A    between atoms: C_17  and  O_19
REMARK                            x       y       z     vdW  Elec       q    Type
REMARK                         _______ _______ _______ _____ _____    ______ ____
ROOT
ATOM      1  S   UNL     1      -1.605  -0.998   0.057  0.00  0.00    +0.060 S 
ATOM      2  O   UNL     1      -2.664  -0.057  -0.062  0.00  0.00    -0.153 OA
ATOM      3  O   UNL     1      -0.291  -0.621   0.444  0.00  0.00    -0.153 OA
ENDROOT
BRANCH   1   9
ATOM      4  C   UNL     1      -1.314  -2.587   2.256  0.00  0.00    +0.055 A 
ATOM      5  C   UNL     1      -1.736  -3.545   3.167  0.00  0.00    +0.062 A 
ATOM      6  C   UNL     1      -2.991  -4.129   3.027  0.00  0.00    +0.145 A 
ATOM      7  C   UNL     1      -3.814  -3.752   1.982  0.00  0.00    +0.062 A 
ATOM      8  C   UNL     1      -3.389  -2.796   1.076  0.00  0.00    +0.070 A 
ATOM      9  C   UNL     1      -2.141  -2.215   1.214  0.00  0.00    +0.125 A 
ATOM     10 CL   UNL     1      -4.424  -2.326  -0.236  0.00  0.00    -0.081 Cl
ATOM     11  F   UNL     1      -3.405  -5.062   3.912  0.00  0.00    -0.204 F 
BRANCH   5  12
ATOM     12  N   UNL     1      -0.900  -3.924   4.223  0.00  0.00    -0.356 N 
ATOM     13  H   UNL     1      -0.025  -3.517   4.319  0.00  0.00    +0.142 HD
ATOM     14  H   UNL     1      -1.196  -4.594   4.859  0.00  0.00    +0.142 HD
ENDBRANCH   5  12
ENDBRANCH   1   9
BRANCH   1  15
ATOM     15  N   UNL     1      -1.470  -1.746  -1.414  0.00  0.00    -0.184 NA
ATOM     16  H   UNL     1      -2.041  -1.476  -2.150  0.00  0.00    +0.148 HD
BRANCH  15  17
ATOM     17  C   UNL     1      -0.489  -2.817  -1.603  0.00  0.00    +0.105 C 
ATOM     18  C   UNL     1       0.792  -2.235  -2.205  0.00  0.00    +0.023 C 
ATOM     19  C   UNL     1       0.473  -1.590  -3.556  0.00  0.00    +0.002 C 
ATOM     20  C   UNL     1      -0.101  -2.647  -4.502  0.00  0.00    +0.003 C 
ATOM     21  C   UNL     1      -1.381  -3.229  -3.900  0.00  0.00    +0.033 C 
ATOM     22  C   UNL     1      -1.063  -3.873  -2.550  0.00  0.00    +0.133 C 
BRANCH  22  23
ATOM     23  O   UNL     1      -2.258  -4.417  -1.987  0.00  0.00    -0.390 OA
ATOM     24  H   UNL     1      -2.678  -5.095  -2.535  0.00  0.00    +0.210 HD
ENDBRANCH  22  23
ENDBRANCH  15  17
ENDBRANCH   1  15
TORSDOF 5
