REMARK  Name = ZINC39957935
REMARK  8 active torsions:
REMARK  status: ('A' for Active; 'I' for Inactive)
REMARK    1  A    between atoms: C_1  and  C_2
REMARK    2  A    between atoms: C_4  and  C_16
REMARK    3  A    between atoms: C_6  and  C_14
REMARK    4  A    between atoms: C_7  and  N_13
REMARK    5  A    between atoms: C_17  and  O_28
REMARK    6  A    between atoms: C_23  and  O_26
REMARK    7  A    between atoms: O_26  and  C_27
REMARK    8  A    between atoms: O_28  and  C_29
REMARK                            x       y       z     vdW  Elec       q    Type
REMARK                         _______ _______ _______ _____ _____    ______ ____
ROOT
ATOM      1  C   UNL     1      -0.230   1.668   0.470  0.00  0.00    +0.067 C 
ATOM      2  C   UNL     1      -0.096   0.167   0.433  0.00  0.00    +0.066 C 
ATOM      3  C   UNL     1      -1.088  -0.668   0.241  0.00  0.00    +0.030 C 
ATOM      4  C   UNL     1      -2.537  -0.492  -0.122  0.00  0.00    +0.102 C 
ATOM      5  C   UNL     1      -2.834  -1.569  -1.149  0.00  0.00    +0.098 C 
ATOM      6  C   UNL     1      -1.946  -2.547  -1.428  0.00  0.00    +0.195 C 
ATOM      7  O   UNL     1      -0.722  -2.697  -0.893  0.00  0.00    -0.448 OA
ATOM      8  C   UNL     1      -0.466  -2.060   0.362  0.00  0.00    +0.343 C 
ATOM      9  N   UNL     1       0.955  -1.744   0.544  0.00  0.00    -0.138 NA
ATOM     10  N   UNL     1       1.069  -0.512   0.589  0.00  0.00    -0.155 NA
ENDROOT
BRANCH   4  11
ATOM     11  C   UNL     1      -2.762   0.875  -0.717  0.00  0.00    +0.015 A 
ATOM     12  C   UNL     1      -2.196   1.204  -1.916  0.00  0.00    +0.125 A 
ATOM     13  C   UNL     1      -2.396   2.468  -2.480  0.00  0.00    +0.046 A 
ATOM     14  C   UNL     1      -3.158   3.402  -1.850  0.00  0.00    +0.012 A 
ATOM     15  C   UNL     1      -3.755   3.098  -0.615  0.00  0.00    -0.017 A 
ATOM     16  C   UNL     1      -3.560   1.815  -0.044  0.00  0.00    -0.007 A 
ATOM     17  C   UNL     1      -4.162   1.509   1.188  0.00  0.00    +0.054 A 
ATOM     18  C   UNL     1      -4.930   2.448   1.815  0.00  0.00    +0.121 A 
ATOM     19  C   UNL     1      -5.127   3.711   1.247  0.00  0.00    +0.046 A 
ATOM     20  C   UNL     1      -4.548   4.041   0.061  0.00  0.00    +0.012 A 
BRANCH  18  21
ATOM     21  O   UNL     1      -5.512   2.151   3.007  0.00  0.00    -0.495 OA
ATOM     22  C   UNL     1      -6.305   3.174   3.614  0.00  0.00    +0.277 C 
ENDBRANCH  18  21
BRANCH  12  23
ATOM     23  O   UNL     1      -1.430   0.292  -2.569  0.00  0.00    -0.495 OA
ATOM     24  C   UNL     1      -0.865   0.694  -3.818  0.00  0.00    +0.277 C 
ENDBRANCH  12  23
ENDBRANCH   4  11
BRANCH   6  25
ATOM     25  N   UNL     1      -2.334  -3.484  -2.352  0.00  0.00    -0.329 N 
ATOM     26  H   UNL     1      -3.208  -3.423  -2.768  0.00  0.00    +0.145 HD
ATOM     27  H   UNL     1      -1.734  -4.209  -2.589  0.00  0.00    +0.145 HD
ENDBRANCH   6  25
BRANCH   5  28
ATOM     28  C   UNL     1      -4.088  -1.548  -1.840  0.00  0.00    +0.101 C 
ATOM     29  N   UNL     1      -5.083  -1.531  -2.388  0.00  0.00    -0.191 NA
ENDBRANCH   5  28
TORSDOF 5
