REMARK  Name = ZINC39561001
REMARK  8 active torsions:
REMARK  status: ('A' for Active; 'I' for Inactive)
REMARK    1  A    between atoms: C_1  and  C_2
REMARK    2  A    between atoms: C_6  and  N_25
REMARK    3  A    between atoms: C_7  and  N_8
REMARK    4  A    between atoms: C_9  and  C_11
REMARK    5  A    between atoms: C_11  and  O_12
REMARK    6  A    between atoms: O_12  and  C_13
REMARK    7  A    between atoms: C_13  and  C_15
REMARK    8  A    between atoms: C_17  and  N_23
REMARK                            x       y       z     vdW  Elec       q    Type
REMARK                         _______ _______ _______ _____ _____    ______ ____
ROOT
ATOM      1  C   UNL     1      -0.396  -0.009   4.887  0.00  0.00    +0.328 C 
ENDROOT
BRANCH   1   3
ATOM      2  N   UNL     1      -0.199  -0.038   2.422  0.00  0.00    -0.281 N 
ATOM      3  C   UNL     1      -0.390  -0.729   3.563  0.00  0.00    +0.255 C 
ATOM      4  O   UNL     1      -0.557  -1.929   3.525  0.00  0.00    -0.272 OA
ATOM      5  H   UNL     1      -0.114   0.928   2.448  0.00  0.00    +0.155 HD
BRANCH   2  12
ATOM      6  C   UNL     1       1.720  -2.122   2.154  0.00  0.00    +0.046 C 
ATOM      7  C   UNL     1       0.798  -1.738   1.026  0.00  0.00    -0.027 A 
ATOM      8  C   UNL     1       0.866  -2.408  -0.181  0.00  0.00    +0.005 A 
ATOM      9  C   UNL     1       0.021  -2.056  -1.217  0.00  0.00    +0.003 A 
ATOM     10  C   UNL     1      -0.895  -1.033  -1.049  0.00  0.00    +0.034 A 
ATOM     11  C   UNL     1      -0.968  -0.360   0.155  0.00  0.00    +0.148 A 
ATOM     12  C   UNL     1      -0.124  -0.715   1.199  0.00  0.00    +0.067 A 
BRANCH  11  13
ATOM     13  N   UNL     1      -1.948   0.734   0.333  0.00  0.00    +0.058 N 
ATOM     14  O   UNL     1      -2.752   0.974  -0.538  0.00  0.00    -0.126 OA
ATOM     15  O   UNL     1      -1.946   1.388   1.350  0.00  0.00    -0.126 OA
ENDBRANCH  11  13
ENDBRANCH   2  12
ENDBRANCH   1   3
BRANCH   1  16
ATOM     16  O   UNL     1      -0.615  -0.950   5.940  0.00  0.00    -0.451 OA
BRANCH  16  17
ATOM     17  C   UNL     1      -0.649  -0.465   7.196  0.00  0.00    +0.360 C 
ATOM     18  O   UNL     1      -0.497   0.723   7.393  0.00  0.00    -0.243 OA
BRANCH  17  19
ATOM     19  C   UNL     1      -0.872  -1.381   8.336  0.00  0.00    +0.169 A 
ATOM     20  C   UNL     1      -0.911  -0.872   9.632  0.00  0.00    +0.095 A 
ATOM     21  C   UNL     1      -1.123  -1.749  10.696  0.00  0.00    +0.067 A 
ATOM     22  C   UNL     1      -1.286  -3.105  10.415  0.00  0.00    +0.100 A 
ATOM     23  C   UNL     1      -1.234  -3.534   9.098  0.00  0.00    +0.150 A 
ATOM     24  N   UNL     1      -1.038  -2.681   8.114  0.00  0.00    -0.226 NA
ATOM     25 CL   UNL     1      -1.436  -5.221   8.740  0.00  0.00    -0.060 Cl
ATOM     26 CL   UNL     1      -1.551  -4.242  11.699  0.00  0.00    -0.078 Cl
ATOM     27 CL   UNL     1      -0.700   0.827   9.918  0.00  0.00    -0.079 Cl
BRANCH  21  28
ATOM     28  N   UNL     1      -1.169  -1.282  12.008  0.00  0.00    -0.356 N 
ATOM     29  H   UNL     1      -1.054  -0.336  12.191  0.00  0.00    +0.142 HD
ATOM     30  H   UNL     1      -1.317  -1.903  12.739  0.00  0.00    +0.142 HD
ENDBRANCH  21  28
ENDBRANCH  17  19
ENDBRANCH  16  17
ENDBRANCH   1  16
TORSDOF 7
