REMARK  Name = ZINC01137178
REMARK  6 active torsions:
REMARK  status: ('A' for Active; 'I' for Inactive)
REMARK    1  A    between atoms: C_5  and  N_7
REMARK    2  A    between atoms: N_7  and  S_8
REMARK    3  A    between atoms: S_8  and  C_11
REMARK    4  A    between atoms: C_14  and  N_17
REMARK    5  A    between atoms: N_17  and  S_18
REMARK    6  A    between atoms: S_18  and  C_21
REMARK                            x       y       z     vdW  Elec       q    Type
REMARK                         _______ _______ _______ _____ _____    ______ ____
ROOT
ATOM      1  C   UNL     1      -1.024  -2.355   2.422  0.00  0.00    +0.109 A 
ATOM      2  C   UNL     1       0.220  -2.272   3.019  0.00  0.00    +0.030 A 
ATOM      3  C   UNL     1       0.326  -1.959   4.360  0.00  0.00    +0.026 A 
ATOM      4  C   UNL     1      -0.821  -1.738   5.112  0.00  0.00    +0.048 A 
ATOM      5  C   UNL     1      -2.070  -1.827   4.510  0.00  0.00    +0.026 A 
ATOM      6  C   UNL     1      -2.168  -2.136   3.168  0.00  0.00    +0.030 A 
ENDROOT
BRANCH   1   7
ATOM      7  S   UNL     1      -1.154  -2.749   0.710  0.00  0.00    +0.072 S 
ATOM      8  O   UNL     1      -2.446  -3.307   0.517  0.00  0.00    -0.150 OA
ATOM      9  O   UNL     1       0.036  -3.443   0.361  0.00  0.00    -0.150 OA
BRANCH   7  10
ATOM     10  N   UNL     1      -1.128  -1.318  -0.125  0.00  0.00    -0.215 N 
ATOM     11  H   UNL     1      -1.883  -1.066  -0.678  0.00  0.00    +0.174 HD
BRANCH  10  16
ATOM     12  C   UNL     1       2.354  -0.177   0.166  0.00  0.00    +0.002 A 
ATOM     13  C   UNL     1       2.182   1.195   0.153  0.00  0.00    +0.002 A 
ATOM     14  C   UNL     1       0.914   1.735   0.049  0.00  0.00    +0.022 A 
ATOM     15  C   UNL     1      -0.187   0.904  -0.043  0.00  0.00    +0.063 A 
ATOM     16  C   UNL     1      -0.017  -0.475  -0.031  0.00  0.00    +0.066 A 
ATOM     17  C   UNL     1       1.259  -1.013   0.074  0.00  0.00    +0.026 A 
ATOM     18 CL   UNL     1      -1.779   1.583  -0.182  0.00  0.00    -0.082 Cl
ENDBRANCH  10  16
ENDBRANCH   7  10
ENDBRANCH   1   7
BRANCH   4  19
ATOM     19  N   UNL     1      -0.719  -1.426   6.469  0.00  0.00    -0.216 N 
ATOM     20  H   UNL     1      -1.252  -0.707   6.843  0.00  0.00    +0.174 HD
BRANCH  19  21
ATOM     21  S   UNL     1       0.313  -2.283   7.440  0.00  0.00    +0.074 S 
ATOM     22  O   UNL     1       1.569  -2.307   6.777  0.00  0.00    -0.150 OA
ATOM     23  O   UNL     1       0.156  -1.767   8.755  0.00  0.00    -0.150 OA
BRANCH  21  24
ATOM     24  C   UNL     1      -0.269  -3.946   7.479  0.00  0.00    +0.128 A 
ATOM     25  C   UNL     1       0.506  -4.961   6.951  0.00  0.00    +0.050 A 
ATOM     26  C   UNL     1       0.049  -6.266   6.981  0.00  0.00    +0.043 A 
ATOM     27  C   UNL     1      -1.183  -6.556   7.540  0.00  0.00    +0.021 A 
ATOM     28  C   UNL     1      -1.958  -5.540   8.068  0.00  0.00    +0.023 A 
ATOM     29  C   UNL     1      -1.498  -4.235   8.043  0.00  0.00    +0.068 A 
ATOM     30 CL   UNL     1      -2.467  -2.961   8.714  0.00  0.00    -0.082 Cl
ATOM     31 CL   UNL     1       1.022  -7.542   6.318  0.00  0.00    -0.083 Cl
ENDBRANCH  21  24
ENDBRANCH  19  21
ENDBRANCH   4  19
TORSDOF 6
