REMARK  Name = ZINC39678704
REMARK  9 active torsions:
REMARK  status: ('A' for Active; 'I' for Inactive)
REMARK    1  A    between atoms: C_1  and  C_2
REMARK    2  A    between atoms: C_2  and  C_3
REMARK    3  A    between atoms: C_2  and  O_4
REMARK    4  A    between atoms: O_4  and  C_5
REMARK    5  A    between atoms: C_5  and  C_7
REMARK    6  A    between atoms: C_7  and  N_8
REMARK    7  A    between atoms: C_9  and  C_11
REMARK    8  A    between atoms: C_22  and  C_24
REMARK    9  A    between atoms: C_24  and  C_25
REMARK                            x       y       z     vdW  Elec       q    Type
REMARK                         _______ _______ _______ _____ _____    ______ ____
ROOT
ATOM      1  C   UNL     1      -5.384  -1.952  -4.397  0.00  0.00    +0.100 C 
ATOM      2  C   UNL     1      -5.510  -0.561  -5.059  0.00  0.00    +0.121 C 
ATOM      3  N   UNL     1      -6.677  -0.681  -5.964  0.00  0.00    -0.300 N 
ATOM      4  C   UNL     1      -7.652  -1.497  -5.202  0.00  0.00    +0.115 C 
ATOM      5  C   UNL     1      -6.793  -2.563  -4.493  0.00  0.00    -0.004 C 
ATOM      6  C   UNL     1      -7.344  -2.841  -3.098  0.00  0.00    -0.010 C 
ATOM      7  C   UNL     1      -8.720  -3.501  -3.219  0.00  0.00    -0.082 C 
ATOM      8  N   UNL     1      -8.599  -4.752  -3.978  0.00  0.00    +0.379 N 
ATOM      9  C   UNL     1      -8.157  -4.466  -5.348  0.00  0.00    -0.082 C 
ATOM     10  C   UNL     1      -6.757  -3.847  -5.316  0.00  0.00    -0.010 C 
ATOM     11  C   UNL     1      -6.820  -0.164  -7.200  0.00  0.00    +0.220 C 
ATOM     12  O   UNL     1      -7.845  -0.351  -7.821  0.00  0.00    -0.275 OA
ATOM     13  H   UNL     1      -7.925  -5.354  -3.527  0.00  0.00    -0.086 HD
ATOM     14  H   UNL     1      -9.494  -5.216  -4.004  0.00  0.00    -0.086 HD
ENDROOT
BRANCH   1  16
ATOM     15  N   UNL     1      -4.265  -2.793  -2.358  0.00  0.00    -0.305 N 
ATOM     16  C   UNL     1      -4.970  -1.812  -2.955  0.00  0.00    +0.219 C 
ATOM     17  O   UNL     1      -5.270  -0.816  -2.332  0.00  0.00    -0.275 OA
ATOM     18  H   UNL     1      -4.025  -3.590  -2.857  0.00  0.00    +0.149 HD
BRANCH  15  19
ATOM     19  C   UNL     1      -3.862  -2.657  -0.957  0.00  0.00    +0.224 C 
BRANCH  19  20
ATOM     20  C   UNL     1      -3.091  -3.881  -0.534  0.00  0.00    +0.325 C 
ATOM     21  O   UNL     1      -2.899  -4.776  -1.323  0.00  0.00    -0.249 OA
BRANCH  20  22
ATOM     22  O   UNL     1      -2.619  -3.978   0.719  0.00  0.00    -0.461 OA
BRANCH  22  24
ATOM     23  C   UNL     1      -0.411  -4.960   0.754  0.00  0.00    +0.052 C 
ATOM     24  C   UNL     1      -1.898  -5.166   1.050  0.00  0.00    +0.170 C 
ATOM     25  C   UNL     1      -2.083  -5.477   2.537  0.00  0.00    +0.052 C 
ENDBRANCH  22  24
ENDBRANCH  20  22
ENDBRANCH  19  20
ENDBRANCH  15  19
ENDBRANCH   1  16
BRANCH  11  26
ATOM     26  C   UNL     1      -5.705   0.646  -7.812  0.00  0.00    +0.131 C 
BRANCH  26  27
ATOM     27  C   UNL     1      -6.114   1.104  -9.188  0.00  0.00    -0.039 A 
ATOM     28  C   UNL     1      -5.840   0.314 -10.289  0.00  0.00    +0.005 A 
ATOM     29  C   UNL     1      -6.215   0.734 -11.552  0.00  0.00    +0.020 A 
ATOM     30  C   UNL     1      -6.865   1.944 -11.713  0.00  0.00    +0.041 A 
ATOM     31  C   UNL     1      -7.139   2.735 -10.611  0.00  0.00    +0.020 A 
ATOM     32  C   UNL     1      -6.768   2.311  -9.349  0.00  0.00    +0.005 A 
ATOM     33 CL   UNL     1      -7.335   2.472 -13.299  0.00  0.00    -0.084 Cl
ENDBRANCH  26  27
ENDBRANCH  11  26
TORSDOF 7
