REMARK  Name = ZINC40383055
REMARK  5 active torsions:
REMARK  status: ('A' for Active; 'I' for Inactive)
REMARK    1  A    between atoms: C_1  and  C_2
REMARK    2  A    between atoms: C_3  and  N_9
REMARK    3  A    between atoms: C_10  and  C_12
REMARK    4  A    between atoms: C_27  and  C_35
REMARK    5  A    between atoms: C_32  and  C_34
REMARK                            x       y       z     vdW  Elec       q    Type
REMARK                         _______ _______ _______ _____ _____    ______ ____
ROOT
ATOM      1  C   UNL     1       0.237   0.274  -5.028  0.00  0.00    +0.122 C 
ATOM      2  C   UNL     1      -1.050   1.087  -5.180  0.00  0.00    +0.114 C 
ATOM      3  C   UNL     1      -2.208   0.158  -5.432  0.00  0.00    +0.219 C 
ATOM      4  O   UNL     1      -3.291   0.403  -4.944  0.00  0.00    -0.275 OA
ATOM      5  N   UNL     1      -2.055  -0.940  -6.192  0.00  0.00    -0.270 N 
ATOM      6  C   UNL     1      -0.809  -1.301  -6.676  0.00  0.00    +0.138 A 
ATOM      7  C   UNL     1       0.334  -0.729  -6.146  0.00  0.00    +0.069 A 
ATOM      8  C   UNL     1       1.580  -1.094  -6.664  0.00  0.00    +0.258 A 
ATOM      9  O   UNL     1       2.606  -0.598  -6.227  0.00  0.00    -0.267 OA
ATOM     10  N   UNL     1       1.625  -2.007  -7.658  0.00  0.00    -0.295 N 
ATOM     11  H   UNL     1       2.478  -2.263  -8.043  0.00  0.00    +0.172 HD
ATOM     12  C   UNL     1       0.475  -2.568  -8.120  0.00  0.00    +0.200 A 
ATOM     13  N   UNL     1      -0.699  -2.224  -7.637  0.00  0.00    -0.200 NA
ATOM     14  N   UNL     1       0.542  -3.512  -9.111  0.00  0.00    -0.295 N 
ATOM     15  C   UNL     1      -0.683  -4.025  -9.739  0.00  0.00    +0.073 C 
ATOM     16  C   UNL     1      -0.564  -3.862 -11.258  0.00  0.00    +0.022 C 
ATOM     17  C   UNL     1       0.721  -4.539 -11.740  0.00  0.00    +0.004 C 
ATOM     18  C   UNL     1       1.931  -3.867 -11.085  0.00  0.00    +0.022 C 
ATOM     19  C   UNL     1       1.839  -4.026  -9.569  0.00  0.00    +0.073 C 
ATOM     20  C   UNL     1       1.962  -5.507  -9.204  0.00  0.00    +0.028 C 
ATOM     21  C   UNL     1      -1.891  -3.235  -9.230  0.00  0.00    +0.028 C 
ATOM     22  H   UNL     1      -2.827  -1.486  -6.405  0.00  0.00    +0.156 HD
ENDROOT
BRANCH   1  24
ATOM     23  N   UNL     1       0.140   0.252  -2.557  0.00  0.00    -0.285 N 
ATOM     24  C   UNL     1       0.222  -0.448  -3.706  0.00  0.00    +0.225 C 
ATOM     25  O   UNL     1       0.283  -1.659  -3.675  0.00  0.00    -0.275 OA
ATOM     26  H   UNL     1       0.009   1.212  -2.582  0.00  0.00    +0.155 HD
BRANCH  23  29
ATOM     27  C   UNL     1      -1.043   1.471  -0.274  0.00  0.00    +0.047 C 
ATOM     28  C   UNL     1      -0.319   0.152  -0.188  0.00  0.00    -0.011 A 
ATOM     29  C   UNL     1       0.244  -0.408  -1.327  0.00  0.00    +0.038 A 
ATOM     30  C   UNL     1       0.910  -1.623  -1.244  0.00  0.00    +0.023 A 
ATOM     31  C   UNL     1       1.011  -2.273  -0.029  0.00  0.00    +0.003 A 
ATOM     32  C   UNL     1       0.450  -1.714   1.104  0.00  0.00    +0.020 A 
ATOM     33  C   UNL     1      -0.210  -0.500   1.026  0.00  0.00    +0.046 A 
ATOM     34 CL   UNL     1      -0.907   0.202   2.453  0.00  0.00    -0.083 Cl
ENDBRANCH  23  29
ENDBRANCH   1  24
TORSDOF 2
