REMARK  Name = ZINC10134007
REMARK  9 active torsions:
REMARK  status: ('A' for Active; 'I' for Inactive)
REMARK    1  A    between atoms: C_1  and  C_2
REMARK    2  A    between atoms: C_2  and  C_3
REMARK    3  A    between atoms: N_11  and  C_15
REMARK    4  A    between atoms: C_15  and  C_16
REMARK    5  A    between atoms: C_16  and  O_18
REMARK    6  A    between atoms: O_18  and  C_19
REMARK    7  A    between atoms: C_19  and  C_21
REMARK    8  A    between atoms: C_19  and  C_22
REMARK    9  A    between atoms: N_24  and  C_25
REMARK                            x       y       z     vdW  Elec       q    Type
REMARK                         _______ _______ _______ _____ _____    ______ ____
ROOT
ATOM      1  C   UNL     1       4.636   3.433  12.308  0.00  0.00    -0.011 C 
ATOM      2  C   UNL     1       4.851   3.249  10.805  0.00  0.00    +0.006 C 
ATOM      3  C   UNL     1       4.623   1.782  10.434  0.00  0.00    +0.035 C 
ATOM      4  C   UNL     1       3.203   1.376  10.814  0.00  0.00    +0.113 C 
ATOM      5  C   UNL     1       2.967   1.574  12.308  0.00  0.00    +0.035 C 
ATOM      6  C   UNL     1       3.202   3.042  12.672  0.00  0.00    +0.006 C 
ATOM      7  C   UNL     1       2.196   2.167  10.012  0.00  0.00    +0.247 C 
ATOM      8  O   UNL     1       2.042   3.370  10.010  0.00  0.00    -0.273 OA
ATOM      9  N   UNL     1       1.504   1.254   9.300  0.00  0.00    -0.213 N 
ATOM     10  C   UNL     1       1.932   0.009   9.547  0.00  0.00    +0.310 C 
ATOM     11  O   UNL     1       1.460  -0.983   9.028  0.00  0.00    -0.252 OA
ATOM     12  N   UNL     1       2.946  -0.019  10.433  0.00  0.00    -0.285 N 
ATOM     13  H   UNL     1       3.413  -0.805  10.757  0.00  0.00    +0.151 HD
ENDROOT
BRANCH   1  15
ATOM     14  C   UNL     1       4.782   5.058  14.201  0.00  0.00    +0.004 C 
ATOM     15  C   UNL     1       4.875   4.898  12.682  0.00  0.00    -0.000 C 
ENDBRANCH   1  15
BRANCH   9  16
ATOM     16  C   UNL     1       0.417   1.582   8.376  0.00  0.00    +0.238 C 
BRANCH  16  17
ATOM     17  C   UNL     1       0.981   1.813   6.997  0.00  0.00    +0.326 C 
ATOM     18  O   UNL     1       2.170   1.713   6.807  0.00  0.00    -0.249 OA
BRANCH  17  19
ATOM     19  O   UNL     1       0.163   2.129   5.981  0.00  0.00    -0.451 OA
BRANCH  19  20
ATOM     20  C   UNL     1       0.776   2.337   4.682  0.00  0.00    +0.258 C 
ATOM     21  C   UNL     1       1.157   3.810   4.527  0.00  0.00    +0.062 C 
BRANCH  20  22
ATOM     22  C   UNL     1      -0.200   1.954   3.599  0.00  0.00    +0.254 C 
ATOM     23  O   UNL     1      -1.333   1.633   3.889  0.00  0.00    -0.272 OA
ATOM     24  N   UNL     1       0.186   1.969   2.308  0.00  0.00    -0.309 N 
ATOM     25  H   UNL     1       1.092   2.226   2.075  0.00  0.00    +0.149 HD
BRANCH  24  26
ATOM     26  C   UNL     1      -0.763   1.597   1.255  0.00  0.00    +0.073 C 
ATOM     27  C   UNL     1      -0.013   1.086   0.008  0.00  0.00    +0.022 C 
ATOM     28  C   UNL     1      -0.784   1.609  -1.216  0.00  0.00    +0.002 C 
ATOM     29  C   UNL     1      -1.978   2.421  -0.670  0.00  0.00    +0.002 C 
ATOM     30  C   UNL     1      -1.531   2.845   0.750  0.00  0.00    +0.022 C 
ENDBRANCH  24  26
ENDBRANCH  20  22
ENDBRANCH  19  20
ENDBRANCH  17  19
ENDBRANCH  16  17
ENDBRANCH   9  16
TORSDOF 7
