REMARK  Name = ZINC04840600
REMARK  9 active torsions:
REMARK  status: ('A' for Active; 'I' for Inactive)
REMARK    1  A    between atoms: C_1  and  C_2
REMARK    2  A    between atoms: C_7  and  N_12
REMARK    3  A    between atoms: C_9  and  C_11
REMARK    4  A    between atoms: C_13  and  C_15
REMARK    5  A    between atoms: C_15  and  O_16
REMARK    6  A    between atoms: O_16  and  C_17
REMARK    7  A    between atoms: C_17  and  C_19
REMARK    8  A    between atoms: C_22  and  N_28
REMARK    9  A    between atoms: C_23  and  N_25
REMARK                            x       y       z     vdW  Elec       q    Type
REMARK                         _______ _______ _______ _____ _____    ______ ____
ROOT
ATOM      1  C   UNL     1       1.682   0.232   8.351  0.00  0.00    +0.340 C 
ATOM      2  O   UNL     1       2.392  -0.750   8.439  0.00  0.00    -0.245 OA
ENDROOT
BRANCH   1   3
ATOM      3  C   UNL     1       1.456   1.086   9.530  0.00  0.00    +0.061 A 
ATOM      4  C   UNL     1       0.634   2.214   9.432  0.00  0.00    +0.017 A 
ATOM      5  C   UNL     1       0.425   3.005  10.525  0.00  0.00    +0.026 A 
ATOM      6  C   UNL     1       1.029   2.694  11.741  0.00  0.00    +0.060 A 
ATOM      7  C   UNL     1       1.849   1.573  11.848  0.00  0.00    +0.148 A 
ATOM      8  C   UNL     1       2.059   0.768  10.752  0.00  0.00    +0.049 A 
BRANCH   6   9
ATOM      9  N   UNL     1       0.812   3.503  12.850  0.00  0.00    -0.328 N 
ATOM     10  C   UNL     1       1.621   4.670  13.231  0.00  0.00    +0.105 C 
ATOM     11  C   UNL     1       1.025   5.235  14.537  0.00  0.00    +0.020 C 
ATOM     12  C   UNL     1       0.260   4.019  15.124  0.00  0.00    +0.020 C 
ATOM     13  C   UNL     1      -0.271   3.337  13.836  0.00  0.00    +0.105 C 
ENDBRANCH   6   9
BRANCH   7  14
ATOM     14  N   UNL     1       2.489   1.245  13.142  0.00  0.00    +0.058 N 
ATOM     15  O   UNL     1       3.201   0.273  13.234  0.00  0.00    -0.126 OA
ATOM     16  O   UNL     1       2.300   1.950  14.106  0.00  0.00    -0.126 OA
ENDBRANCH   7  14
ENDBRANCH   1   3
BRANCH   1  17
ATOM     17  O   UNL     1       1.100   0.539   7.175  0.00  0.00    -0.452 OA
BRANCH  17  18
ATOM     18  C   UNL     1       1.363  -0.333   6.074  0.00  0.00    +0.328 C 
BRANCH  18  20
ATOM     19  N   UNL     1       0.735  -0.503   3.687  0.00  0.00    -0.309 N 
ATOM     20  C   UNL     1       0.634   0.166   4.853  0.00  0.00    +0.251 C 
ATOM     21  O   UNL     1      -0.044   1.170   4.919  0.00  0.00    -0.272 OA
ATOM     22  H   UNL     1       1.276  -1.306   3.634  0.00  0.00    +0.149 HD
BRANCH  19  28
ATOM     23  C   UNL     1      -0.019   1.526   0.010  0.00  0.00    +0.008 C 
ATOM     24  C   UNL     1       0.002  -0.004   0.002  0.00  0.00    -0.009 C 
ATOM     25  C   UNL     1      -1.433  -0.534   0.013  0.00  0.00    +0.003 C 
ATOM     26  C   UNL     1      -2.149  -0.040   1.272  0.00  0.00    +0.002 C 
ATOM     27  C   UNL     1      -1.409  -0.547   2.511  0.00  0.00    +0.022 C 
ATOM     28  C   UNL     1       0.026  -0.018   2.500  0.00  0.00    +0.076 C 
ATOM     29  C   UNL     1       0.742  -0.511   1.242  0.00  0.00    +0.009 C 
ATOM     30  C   UNL     1       2.178   0.019   1.231  0.00  0.00    +0.009 C 
ENDBRANCH  19  28
ENDBRANCH  18  20
ENDBRANCH  17  18
ENDBRANCH   1  17
TORSDOF 7
