REMARK  Name = ZINC24235757
REMARK  8 active torsions:
REMARK  status: ('A' for Active; 'I' for Inactive)
REMARK    1  A    between atoms: C_4  and  C_11
REMARK    2  A    between atoms: C_6  and  S_7
REMARK    3  A    between atoms: S_7  and  N_10
REMARK    4  A    between atoms: C_11  and  O_13
REMARK    5  A    between atoms: O_13  and  C_14
REMARK    6  A    between atoms: C_14  and  C_15
REMARK    7  A    between atoms: N_17  and  C_18
REMARK    8  A    between atoms: C_23  and  N_24
REMARK                            x       y       z     vdW  Elec       q    Type
REMARK                         _______ _______ _______ _____ _____    ______ ____
ROOT
ATOM      1  O   UNL     1      -3.754  -0.720   3.186  0.00  0.00    -0.452 OA
ENDROOT
BRANCH   1   2
ATOM      2  C   UNL     1      -3.558   0.500   3.724  0.00  0.00    +0.342 C 
ATOM      3  O   UNL     1      -4.194   0.843   4.701  0.00  0.00    -0.245 OA
BRANCH   2   7
ATOM      4  C   UNL     1      -0.712   3.145   2.007  0.00  0.00    +0.031 A 
ATOM      5  C   UNL     1      -1.437   3.543   3.116  0.00  0.00    +0.041 A 
ATOM      6  C   UNL     1      -2.364   2.687   3.682  0.00  0.00    +0.137 A 
ATOM      7  C   UNL     1      -2.570   1.420   3.127  0.00  0.00    +0.096 A 
ATOM      8  C   UNL     1      -1.837   1.030   2.004  0.00  0.00    +0.046 A 
ATOM      9  C   UNL     1      -0.916   1.894   1.450  0.00  0.00    +0.106 A 
ATOM     10  F   UNL     1      -3.069   3.074   4.768  0.00  0.00    -0.205 F 
BRANCH   9  11
ATOM     11  S   UNL     1       0.009   1.403   0.034  0.00  0.00    +0.056 S 
ATOM     12  O   UNL     1       0.031  -0.018   0.036  0.00  0.00    -0.153 OA
ATOM     13  O   UNL     1       1.197   2.183   0.034  0.00  0.00    -0.153 OA
BRANCH  11  14
ATOM     14  N   UNL     1      -0.858   1.861  -1.300  0.00  0.00    -0.204 NA
ATOM     15  H   UNL     1      -0.312   1.571  -2.210  0.00  0.00    +0.144 HD
ATOM     16  H   UNL     1      -0.998   2.952  -1.290  0.00  0.00    +0.144 HD
ENDBRANCH  11  14
ENDBRANCH   9  11
ENDBRANCH   2   7
ENDBRANCH   1   2
BRANCH   1  17
ATOM     17  C   UNL     1      -4.740  -1.571   3.826  0.00  0.00    +0.328 C 
BRANCH  17  18
ATOM     18  C   UNL     1      -4.822  -2.885   3.091  0.00  0.00    +0.255 C 
ATOM     19  O   UNL     1      -4.117  -3.084   2.124  0.00  0.00    -0.272 OA
ATOM     20  N   UNL     1      -5.677  -3.839   3.509  0.00  0.00    -0.281 N 
ATOM     21  H   UNL     1      -6.249  -3.696   4.438  0.00  0.00    +0.155 HD
BRANCH  20  22
ATOM     22  C   UNL     1      -5.838  -5.011   2.762  0.00  0.00    +0.064 A 
ATOM     23  C   UNL     1      -5.570  -5.010   1.399  0.00  0.00    +0.027 A 
ATOM     24  C   UNL     1      -5.729  -6.168   0.664  0.00  0.00    +0.022 A 
ATOM     25  C   UNL     1      -6.154  -7.330   1.284  0.00  0.00    +0.043 A 
ATOM     26  C   UNL     1      -6.421  -7.334   2.642  0.00  0.00    +0.054 A 
ATOM     27  C   UNL     1      -6.259  -6.180   3.383  0.00  0.00    +0.149 A 
ATOM     28 CL   UNL     1      -6.353  -8.784   0.357  0.00  0.00    -0.083 Cl
BRANCH  27  29
ATOM     29  N   UNL     1      -6.539  -6.187   4.836  0.00  0.00    +0.058 N 
ATOM     30  O   UNL     1      -6.821  -7.230   5.397  0.00  0.00    -0.126 OA
ATOM     31  O   UNL     1      -6.487  -5.149   5.471  0.00  0.00    -0.126 OA
ENDBRANCH  27  29
ENDBRANCH  20  22
ENDBRANCH  17  18
ENDBRANCH   1  17
TORSDOF 8
