REMARK  Name = ZINC06193205
REMARK  14 active torsions:
REMARK  status: ('A' for Active; 'I' for Inactive)
REMARK    1  A    between atoms: C_1  and  C_2
REMARK    2  A    between atoms: C_2  and  N_69
REMARK    3  A    between atoms: C_3  and  C_4
REMARK    4  A    between atoms: C_3  and  N_69
REMARK    5  A    between atoms: C_5  and  C_6
REMARK    6  A    between atoms: C_5  and  N_69
REMARK    7  A    between atoms: C_6  and  C_7
REMARK    8  A    between atoms: C_7  and  N_8
REMARK    9  A    between atoms: N_8  and  C_9
REMARK   10  A    between atoms: C_9  and  N_11
REMARK   11  A    between atoms: N_11  and  C_12
REMARK   12  A    between atoms: N_11  and  C_22
REMARK   13  A    between atoms: C_12  and  C_13
REMARK   14  A    between atoms: C_22  and  C_23
REMARK                            x       y       z     vdW  Elec       q    Type
REMARK                         _______ _______ _______ _____ _____    ______ ____
ROOT
ATOM      1  N   UNL     1      -2.851   0.495   1.260  0.00  0.00    -0.304 N 
ENDROOT
BRANCH   1   2
ATOM      2  C   UNL     1      -3.666   1.415   1.813  0.00  0.00    +0.133 C 
ATOM      3  S   UNL     1      -3.972   1.384   3.498  0.00  0.00    -0.019 S 
BRANCH   2   4
ATOM      4  N   UNL     1      -4.239   2.359   1.041  0.00  0.00    -0.326 N 
ATOM      5  H   UNL     1      -4.065   2.376   0.087  0.00  0.00    +0.148 HD
BRANCH   4   6
ATOM      6  C   UNL     1      -5.124   3.359   1.643  0.00  0.00    +0.101 C 
BRANCH   6   7
ATOM      7  C   UNL     1      -5.638   4.306   0.556  0.00  0.00    +0.000 C 
BRANCH   7   8
ATOM      8  C   UNL     1      -6.562   5.350   1.185  0.00  0.00    -0.077 C 
BRANCH   8   9
ATOM      9  N   UNL     1      -7.124   6.194   0.109  0.00  0.00    +0.379 N 
ATOM     10  H   UNL     1      -6.383   6.405  -0.570  0.00  0.00    -0.082 HD
BRANCH   9  12
ATOM     11  C   UNL     1      -8.625   6.270  -1.821  0.00  0.00    -0.017 C 
ATOM     12  C   UNL     1      -8.215   5.474  -0.580  0.00  0.00    -0.082 C 
ENDBRANCH   9  12
BRANCH   9  13
ATOM     13  C   UNL     1      -7.633   7.461   0.675  0.00  0.00    -0.082 C 
ATOM     14  C   UNL     1      -6.446   8.387   0.950  0.00  0.00    -0.017 C 
ENDBRANCH   9  13
ENDBRANCH   8   9
ENDBRANCH   7   8
ENDBRANCH   6   7
ENDBRANCH   4   6
ENDBRANCH   2   4
ENDBRANCH   1   2
BRANCH   1  15
ATOM     15  C   UNL     1      -2.526   0.568  -0.167  0.00  0.00    +0.142 C 
BRANCH  15  16
ATOM     16  C   UNL     1      -1.247   1.342  -0.352  0.00  0.00    -0.026 A 
ATOM     17  C   UNL     1      -0.029   0.697  -0.247  0.00  0.00    +0.009 A 
ATOM     18  C   UNL     1       1.148   1.401  -0.421  0.00  0.00    +0.050 A 
ATOM     19  C   UNL     1       1.109   2.759  -0.697  0.00  0.00    +0.166 A 
ATOM     20  C   UNL     1      -0.118   3.410  -0.797  0.00  0.00    +0.167 A 
ATOM     21  C   UNL     1      -1.293   2.697  -0.620  0.00  0.00    +0.054 A 
ATOM     22  O   UNL     1       0.109   4.728  -1.072  0.00  0.00    -0.453 OA
ATOM     23  C   UNL     1       1.468   4.794  -1.542  0.00  0.00    +0.466 C 
ATOM     24  O   UNL     1       2.104   3.668  -0.909  0.00  0.00    -0.453 OA
ENDBRANCH  15  16
ENDBRANCH   1  15
BRANCH   1  25
ATOM     25  C   UNL     1      -2.290  -0.579   2.085  0.00  0.00    +0.147 C 
BRANCH  25  26
ATOM     26  C   UNL     1      -3.149  -1.810   1.957  0.00  0.00    +0.035 A 
ATOM     27  C   UNL     1      -2.817  -2.776   1.063  0.00  0.00    +0.020 A 
ATOM     28  C   UNL     1      -3.670  -3.960   0.964  0.00  0.00    +0.003 A 
ATOM     29  C   UNL     1      -3.375  -4.989   0.061  0.00  0.00    +0.059 A 
ATOM     30  C   UNL     1      -4.197  -6.093  -0.009  0.00  0.00    +0.167 A 
ATOM     31  C   UNL     1      -5.323  -6.188   0.818  0.00  0.00    +0.168 A 
ATOM     32  C   UNL     1      -5.621  -5.176   1.713  0.00  0.00    +0.075 A 
ATOM     33  C   UNL     1      -4.802  -4.058   1.796  0.00  0.00    +0.053 A 
ATOM     34  N   UNL     1      -5.084  -3.039   2.684  0.00  0.00    -0.322 N 
ATOM     35  H   UNL     1      -5.891  -3.107   3.271  0.00  0.00    +0.169 HD
ATOM     36  C   UNL     1      -4.290  -1.958   2.771  0.00  0.00    +0.254 A 
ATOM     37  O   UNL     1      -4.567  -1.081   3.571  0.00  0.00    -0.268 OA
ATOM     38  O   UNL     1      -5.957  -7.366   0.551  0.00  0.00    -0.453 OA
ATOM     39  C   UNL     1      -4.991  -8.175  -0.144  0.00  0.00    +0.466 C 
ATOM     40  O   UNL     1      -4.134  -7.213  -0.788  0.00  0.00    -0.453 OA
ENDBRANCH  25  26
ENDBRANCH   1  25
TORSDOF 12
