REMARK  Name = ZINC14930833
REMARK  13 active torsions:
REMARK  status: ('A' for Active; 'I' for Inactive)
REMARK    1  A    between atoms: C_1  and  C_2
REMARK    2  A    between atoms: C_3  and  C_4
REMARK    3  A    between atoms: C_4  and  O_6
REMARK    4  A    between atoms: O_6  and  C_7
REMARK    5  A    between atoms: C_7  and  C_8
REMARK    6  A    between atoms: C_10  and  O_41
REMARK    7  A    between atoms: C_12  and  O_40
REMARK    8  A    between atoms: C_14  and  O_39
REMARK    9  A    between atoms: C_16  and  O_19
REMARK   10  A    between atoms: O_19  and  C_20
REMARK   11  A    between atoms: C_22  and  O_38
REMARK   12  A    between atoms: C_27  and  C_31
REMARK   13  A    between atoms: C_34  and  O_37
REMARK                            x       y       z     vdW  Elec       q    Type
REMARK                         _______ _______ _______ _____ _____    ______ ____
ROOT
ATOM      1  C   UNL     1      -3.699   3.362  -1.301  0.00  0.00    +0.131 A 
ATOM      2  C   UNL     1      -4.220   2.504  -0.339  0.00  0.00    +0.092 A 
ATOM      3  C   UNL     1      -4.932   3.013   0.732  0.00  0.00    +0.135 A 
ATOM      4  C   UNL     1      -5.124   4.396   0.839  0.00  0.00    +0.105 A 
ATOM      5  C   UNL     1      -5.875   4.979   1.963  0.00  0.00    +0.197 A 
ATOM      6  O   UNL     1      -6.355   4.276   2.838  0.00  0.00    -0.287 OA
ATOM      7  C   UNL     1      -6.019   6.387   1.989  0.00  0.00    +0.098 A 
ATOM      8  C   UNL     1      -5.469   7.136   0.996  0.00  0.00    +0.139 A 
ATOM      9  O   UNL     1      -4.786   6.592  -0.024  0.00  0.00    -0.454 OA
ATOM     10  C   UNL     1      -4.596   5.260  -0.136  0.00  0.00    +0.146 A 
ATOM     11  C   UNL     1      -3.880   4.732  -1.199  0.00  0.00    +0.093 A 
ENDROOT
BRANCH   8  12
ATOM     12  C   UNL     1      -5.630   8.601   1.041  0.00  0.00    +0.018 A 
ATOM     13  C   UNL     1      -6.340   9.197   2.087  0.00  0.00    +0.015 A 
ATOM     14  C   UNL     1      -6.484  10.566   2.128  0.00  0.00    +0.046 A 
ATOM     15  C   UNL     1      -5.932  11.355   1.125  0.00  0.00    +0.117 A 
ATOM     16  C   UNL     1      -5.229  10.766   0.080  0.00  0.00    +0.046 A 
ATOM     17  C   UNL     1      -5.077   9.398   0.035  0.00  0.00    +0.015 A 
BRANCH  15  18
ATOM     18  O   UNL     1      -6.081  12.703   1.166  0.00  0.00    -0.507 OA
ATOM     19  H   UNL     1      -6.872  13.026   0.713  0.00  0.00    +0.292 HD
ENDBRANCH  15  18
ENDBRANCH   8  12
BRANCH   3  20
ATOM     20  O   UNL     1      -5.441   2.177   1.673  0.00  0.00    -0.506 OA
ATOM     21  H   UNL     1      -4.840   2.004   2.411  0.00  0.00    +0.292 HD
ENDBRANCH   3  20
BRANCH   1  22
ATOM     22  O   UNL     1      -3.002   2.853  -2.349  0.00  0.00    -0.461 OA
BRANCH  22  27
ATOM     23  C   UNL     1      -0.753   1.593  -1.232  0.00  0.00    +0.191 C 
ATOM     24  C   UNL     1       0.031   1.205  -2.488  0.00  0.00    +0.178 C 
ATOM     25  C   UNL     1      -0.746   1.662  -3.727  0.00  0.00    +0.180 C 
ATOM     26  C   UNL     1      -2.145   1.038  -3.698  0.00  0.00    +0.214 C 
ATOM     27  C   UNL     1      -2.844   1.433  -2.394  0.00  0.00    +0.339 C 
ATOM     28  O   UNL     1      -2.054   1.005  -1.283  0.00  0.00    -0.330 OA
BRANCH  26  29
ATOM     29  O   UNL     1      -2.904   1.515  -4.810  0.00  0.00    -0.383 OA
ATOM     30  H   UNL     1      -3.804   1.163  -4.852  0.00  0.00    +0.210 HD
ENDBRANCH  26  29
BRANCH  25  31
ATOM     31  O   UNL     1      -0.858   3.087  -3.721  0.00  0.00    -0.386 OA
ATOM     32  H   UNL     1      -1.345   3.446  -4.475  0.00  0.00    +0.210 HD
ENDBRANCH  25  31
BRANCH  24  33
ATOM     33  O   UNL     1       0.199  -0.214  -2.527  0.00  0.00    -0.386 OA
ATOM     34  H   UNL     1       0.688  -0.531  -3.299  0.00  0.00    +0.210 HD
ENDBRANCH  24  33
BRANCH  23  35
ATOM     35  C   UNL     1      -0.013   1.086   0.008  0.00  0.00    +0.266 C 
BRANCH  35  36
ATOM     36  O   UNL     1      -0.692   1.554   1.203  0.00  0.00    -0.459 OA
BRANCH  36  37
ATOM     37  C   UNL     1      -0.164   1.192   2.389  0.00  0.00    +0.332 C 
ATOM     38  O   UNL     1       0.838   0.505   2.424  0.00  0.00    -0.246 OA
BRANCH  37  41
ATOM     39  C   UNL     1      -0.928   1.722   6.094  0.00  0.00    +0.035 C 
ATOM     40  C   UNL     1      -0.277   1.273   4.811  0.00  0.00    -0.023 C 
ATOM     41  C   UNL     1      -0.799   1.630   3.640  0.00  0.00    +0.087 C 
ENDBRANCH  37  41
ENDBRANCH  36  37
ENDBRANCH  35  36
ENDBRANCH  23  35
ENDBRANCH  22  27
ENDBRANCH   1  22
TORSDOF 12
