REMARK  Name = ZINC08845270
REMARK  7 active torsions:
REMARK  status: ('A' for Active; 'I' for Inactive)
REMARK    1  A    between atoms: C_1  and  C_2
REMARK    2  A    between atoms: N_7  and  S_9
REMARK    3  A    between atoms: S_9  and  C_12
REMARK    4  A    between atoms: C_15  and  N_18
REMARK    5  A    between atoms: C_19  and  C_21
REMARK    6  A    between atoms: C_23  and  C_27
REMARK    7  A    between atoms: C_32  and  O_33
REMARK                            x       y       z     vdW  Elec       q    Type
REMARK                         _______ _______ _______ _____ _____    ______ ____
ROOT
ATOM      1  N   UNL     1       4.931  -3.675   6.081  0.00  0.00    -0.280 N 
ATOM      2  C   UNL     1       6.034  -4.327   5.665  0.00  0.00    +0.268 C 
ATOM      3  O   UNL     1       6.128  -4.685   4.507  0.00  0.00    -0.268 OA
ATOM      4  H   UNL     1       4.888  -3.322   6.984  0.00  0.00    +0.155 HD
ENDROOT
BRANCH   1   8
ATOM      5  C   UNL     1       1.705  -3.174   3.494  0.00  0.00    +0.106 A 
ATOM      6  C   UNL     1       2.482  -4.316   3.416  0.00  0.00    +0.030 A 
ATOM      7  C   UNL     1       3.552  -4.485   4.272  0.00  0.00    +0.025 A 
ATOM      8  C   UNL     1       3.848  -3.507   5.212  0.00  0.00    +0.034 A 
ATOM      9  C   UNL     1       3.066  -2.361   5.288  0.00  0.00    +0.025 A 
ATOM     10  C   UNL     1       2.001  -2.196   4.425  0.00  0.00    +0.030 A 
BRANCH   5  11
ATOM     11  S   UNL     1       0.340  -2.963   2.400  0.00  0.00    +0.061 S 
ATOM     12  O   UNL     1      -0.553  -2.058   3.035  0.00  0.00    -0.153 OA
ATOM     13  O   UNL     1      -0.057  -4.264   1.989  0.00  0.00    -0.153 OA
BRANCH  11  19
ATOM     14  C   UNL     1       0.303   1.216  -0.481  0.00  0.00    +0.009 C 
ATOM     15  C   UNL     1       0.190  -0.300  -0.311  0.00  0.00    +0.002 C 
ATOM     16  C   UNL     1       0.830  -0.998  -1.514  0.00  0.00    +0.006 C 
ATOM     17  C   UNL     1       0.688  -2.514  -1.360  0.00  0.00    +0.017 C 
ATOM     18  C   UNL     1       1.421  -2.966  -0.093  0.00  0.00    +0.109 C 
ATOM     19  N   UNL     1       0.911  -2.194   1.048  0.00  0.00    -0.176 NA
ATOM     20  C   UNL     1       0.916  -0.727   0.969  0.00  0.00    +0.112 C 
ENDBRANCH  11  19
ENDBRANCH   5  11
ENDBRANCH   1   8
BRANCH   2  21
ATOM     21  C   UNL     1       7.130  -4.607   6.615  0.00  0.00    +0.148 A 
ATOM     22  C   UNL     1       8.341  -5.272   6.324  0.00  0.00    +0.062 A 
ATOM     23  C   UNL     1       9.035  -5.297   7.501  0.00  0.00    +0.070 A 
ATOM     24  N   UNL     1       8.257  -4.673   8.431  0.00  0.00    -0.276 N 
ATOM     25  H   UNL     1       8.497  -4.543   9.361  0.00  0.00    +0.189 HD
ATOM     26  N   UNL     1       7.160  -4.277   7.891  0.00  0.00    -0.169 NA
BRANCH  23  27
ATOM     27  C   UNL     1      10.373  -5.888   7.724  0.00  0.00    +0.041 A 
ATOM     28  C   UNL     1      10.715  -7.096   7.117  0.00  0.00    +0.013 A 
ATOM     29  C   UNL     1      11.965  -7.642   7.328  0.00  0.00    +0.001 A 
ATOM     30  C   UNL     1      12.880  -6.996   8.140  0.00  0.00    +0.004 A 
ATOM     31  C   UNL     1      12.552  -5.798   8.747  0.00  0.00    +0.046 A 
ATOM     32  C   UNL     1      11.303  -5.234   8.540  0.00  0.00    +0.126 A 
BRANCH  32  33
ATOM     33  O   UNL     1      10.981  -4.055   9.131  0.00  0.00    -0.506 OA
ATOM     34  H   UNL     1      10.578  -4.150  10.005  0.00  0.00    +0.292 HD
ENDBRANCH  32  33
ENDBRANCH  23  27
ENDBRANCH   2  21
TORSDOF 6
