REMARK  Name = ZINC13640144
REMARK  7 active torsions:
REMARK  status: ('A' for Active; 'I' for Inactive)
REMARK    1  A    between atoms: C_1  and  C_2
REMARK    2  A    between atoms: C_2  and  C_3
REMARK    3  A    between atoms: C_2  and  N_4
REMARK    4  A    between atoms: C_5  and  C_7
REMARK    5  A    between atoms: C_14  and  C_23
REMARK    6  A    between atoms: C_26  and  O_30
REMARK    7  A    between atoms: C_28  and  O_29
REMARK                            x       y       z     vdW  Elec       q    Type
REMARK                         _______ _______ _______ _____ _____    ______ ____
ROOT
ATOM      1  C   UNL     1      -1.980   3.688   2.439  0.00  0.00    +0.058 A 
ATOM      2  C   UNL     1      -2.024   2.878   3.572  0.00  0.00    +0.015 A 
ATOM      3  C   UNL     1      -2.667   3.316   4.709  0.00  0.00    +0.001 A 
ATOM      4  C   UNL     1      -3.276   4.560   4.721  0.00  0.00    +0.006 A 
ATOM      5  C   UNL     1      -3.248   5.371   3.608  0.00  0.00    -0.019 A 
ATOM      6  C   UNL     1      -2.585   4.961   2.447  0.00  0.00    +0.044 A 
ATOM      7  N   UNL     1      -2.469   5.733   1.303  0.00  0.00    -0.336 N 
ATOM      8  C   UNL     1      -3.190   7.016   1.289  0.00  0.00    +0.108 C 
ATOM      9  C   UNL     1      -3.055   7.617   2.672  0.00  0.00    +0.029 C 
ATOM     10  C   UNL     1      -3.923   6.688   3.587  0.00  0.00    +0.049 C 
ATOM     11  C   UNL     1      -4.122   7.537   4.803  0.00  0.00    -0.023 C 
ATOM     12  C   UNL     1      -4.054   8.818   4.457  0.00  0.00    -0.030 C 
ATOM     13  C   UNL     1      -3.776   8.940   2.957  0.00  0.00    +0.033 C 
ATOM     14  H   UNL     1      -1.501   5.860   1.049  0.00  0.00    +0.147 HD
ENDROOT
BRANCH   8  15
ATOM     15  C   UNL     1      -4.645   6.784   0.970  0.00  0.00    +0.015 A 
ATOM     16  C   UNL     1      -5.224   5.558   1.240  0.00  0.00    +0.012 A 
ATOM     17  C   UNL     1      -6.558   5.344   0.953  0.00  0.00    +0.046 A 
ATOM     18  C   UNL     1      -7.318   6.357   0.384  0.00  0.00    +0.120 A 
ATOM     19  C   UNL     1      -6.738   7.585   0.108  0.00  0.00    +0.091 A 
ATOM     20  C   UNL     1      -5.400   7.799   0.402  0.00  0.00    +0.125 A 
BRANCH  20  21
ATOM     21  O   UNL     1      -4.829   9.003   0.133  0.00  0.00    -0.506 OA
ATOM     22  H   UNL     1      -4.441   9.065  -0.751  0.00  0.00    +0.292 HD
ENDBRANCH  20  21
BRANCH  18  23
ATOM     23  O   UNL     1      -8.629   6.144   0.097  0.00  0.00    -0.507 OA
ATOM     24  H   UNL     1      -8.787   5.797  -0.791  0.00  0.00    +0.292 HD
ENDBRANCH  18  23
ENDBRANCH   8  15
BRANCH   1  26
ATOM     25  N   UNL     1      -0.704   1.998   1.216  0.00  0.00    -0.309 N 
ATOM     26  C   UNL     1      -1.290   3.212   1.226  0.00  0.00    +0.246 C 
ATOM     27  O   UNL     1      -1.248   3.916   0.235  0.00  0.00    -0.270 OA
ATOM     28  H   UNL     1      -0.737   1.437   2.006  0.00  0.00    +0.149 HD
BRANCH  25  30
ATOM     29  C   UNL     1       0.002  -0.004   0.002  0.00  0.00    +0.027 C 
ATOM     30  C   UNL     1      -0.019   1.526   0.010  0.00  0.00    +0.067 C 
ATOM     31  C   UNL     1       1.417   2.055  -0.000  0.00  0.00    +0.027 C 
ENDBRANCH  25  30
ENDBRANCH   1  26
TORSDOF 5
