REMARK  Name = ZINC17958571
REMARK  12 active torsions:
REMARK  status: ('A' for Active; 'I' for Inactive)
REMARK    1  A    between atoms: C_1  and  C_2
REMARK    2  A    between atoms: C_7  and  C_8
REMARK    3  A    between atoms: N_10  and  C_11
REMARK    4  A    between atoms: C_11  and  C_13
REMARK    5  A    between atoms: C_11  and  C_17
REMARK    6  A    between atoms: C_13  and  C_14
REMARK    7  A    between atoms: C_14  and  C_15
REMARK    8  A    between atoms: C_14  and  C_16
REMARK    9  A    between atoms: N_19  and  C_20
REMARK   10  A    between atoms: C_20  and  C_21
REMARK   11  A    between atoms: N_23  and  C_24
REMARK   12  A    between atoms: C_29  and  C_30
REMARK                            x       y       z     vdW  Elec       q    Type
REMARK                         _______ _______ _______ _____ _____    ______ ____
ROOT
ATOM      1  C   UNL     1      -3.403   1.905  -0.618  0.00  0.00    +0.234 C 
ATOM      2  O   UNL     1      -3.269   3.011  -0.138  0.00  0.00    -0.274 OA
ATOM      3  N   UNL     1      -4.634   1.372  -0.748  0.00  0.00    -0.305 N 
ATOM      4  H   UNL     1      -4.741   0.488  -1.132  0.00  0.00    +0.149 HD
ENDROOT
BRANCH   1   5
ATOM      5  C   UNL     1      -2.194   1.128  -1.070  0.00  0.00    +0.159 C 
BRANCH   5   8
ATOM      6  C   UNL     1       0.202   1.302  -0.661  0.00  0.00    +0.245 C 
ATOM      7  O   UNL     1       0.270   0.090  -0.718  0.00  0.00    -0.270 OA
ATOM      8  N   UNL     1      -0.985   1.919  -0.824  0.00  0.00    -0.300 N 
ATOM      9  H   UNL     1      -1.039   2.886  -0.778  0.00  0.00    +0.150 HD
BRANCH   6  16
ATOM     10  C   UNL     1       2.692  -0.040  -0.052  0.00  0.00    +0.044 C 
ATOM     11  C   UNL     1       2.629   1.464  -0.124  0.00  0.00    -0.038 A 
ATOM     12  C   UNL     1       3.765   2.214   0.101  0.00  0.00    +0.004 A 
ATOM     13  C   UNL     1       3.709   3.595   0.035  0.00  0.00    +0.000 A 
ATOM     14  C   UNL     1       2.516   4.232  -0.256  0.00  0.00    +0.001 A 
ATOM     15  C   UNL     1       1.375   3.494  -0.488  0.00  0.00    +0.013 A 
ATOM     16  C   UNL     1       1.423   2.100  -0.418  0.00  0.00    +0.040 A 
ENDBRANCH   6  16
ENDBRANCH   5   8
BRANCH   5  17
ATOM     17  C   UNL     1      -2.310   0.828  -2.566  0.00  0.00    +0.034 C 
BRANCH  17  18
ATOM     18  C   UNL     1      -1.147  -0.067  -2.999  0.00  0.00    -0.015 C 
ATOM     19  C   UNL     1      -1.260  -1.424  -2.303  0.00  0.00    +0.007 C 
ATOM     20  C   UNL     1      -1.192  -0.265  -4.515  0.00  0.00    +0.007 C 
ENDBRANCH  17  18
ENDBRANCH   5  17
ENDBRANCH   1   5
BRANCH   3  21
ATOM     21  C   UNL     1      -5.810   2.127  -0.309  0.00  0.00    +0.200 C 
BRANCH  21  22
ATOM     22  C   UNL     1      -7.053   1.314  -0.562  0.00  0.00    +0.234 C 
ATOM     23  O   UNL     1      -6.965   0.212  -1.061  0.00  0.00    -0.274 OA
ATOM     24  N   UNL     1      -8.262   1.812  -0.235  0.00  0.00    -0.284 N 
ATOM     25  H   UNL     1      -8.339   2.719   0.099  0.00  0.00    +0.155 HD
BRANCH  24  26
ATOM     26  C   UNL     1      -9.407   1.019  -0.376  0.00  0.00    +0.036 A 
ATOM     27  C   UNL     1      -9.481   0.081  -1.397  0.00  0.00    +0.024 A 
ATOM     28  C   UNL     1     -10.611  -0.701  -1.535  0.00  0.00    +0.017 A 
ATOM     29  C   UNL     1     -11.669  -0.549  -0.656  0.00  0.00    +0.018 A 
ATOM     30  C   UNL     1     -11.598   0.385   0.362  0.00  0.00    +0.020 A 
ATOM     31  C   UNL     1     -10.467   1.165   0.507  0.00  0.00    -0.028 A 
ATOM     32  C   UNL     1     -10.388   2.178   1.620  0.00  0.00    +0.046 C 
ATOM     33 BR   UNL     1     -13.216  -1.621  -0.847  0.00  0.00    -0.050 Br
ENDBRANCH  24  26
ENDBRANCH  21  22
ENDBRANCH   3  21
TORSDOF 8
