REMARK  Name = ZINC35926291
REMARK  6 active torsions:
REMARK  status: ('A' for Active; 'I' for Inactive)
REMARK    1  A    between atoms: C_1  and  C_2
REMARK    2  A    between atoms: C_2  and  C_3
REMARK    3  A    between atoms: C_6  and  C_9
REMARK    4  A    between atoms: C_23  and  C_25
REMARK    5  A    between atoms: C_25  and  N_26
REMARK    6  A    between atoms: N_29  and  C_32
REMARK                            x       y       z     vdW  Elec       q    Type
REMARK                         _______ _______ _______ _____ _____    ______ ____
ROOT
ATOM      1  C   UNL     1       2.418  -4.164   3.958  0.00  0.00    +0.247 C 
ATOM      2  O   UNL     1       1.848  -3.657   3.013  0.00  0.00    -0.270 OA
ATOM      3  N   UNL     1       1.723  -4.504   5.061  0.00  0.00    -0.295 N 
ATOM      4  C   UNL     1       2.415  -5.001   6.259  0.00  0.00    +0.127 C 
ATOM      5  C   UNL     1       2.017  -4.125   7.454  0.00  0.00    +0.127 C 
ATOM      6  N   UNL     1       0.553  -4.006   7.481  0.00  0.00    -0.298 N 
ATOM      7  C   UNL     1      -0.140  -3.509   6.284  0.00  0.00    +0.127 C 
ATOM      8  C   UNL     1       0.259  -4.379   5.091  0.00  0.00    +0.127 C 
ATOM      9  C   UNL     1      -0.154  -4.351   8.602  0.00  0.00    +0.198 A 
ATOM     10  N   UNL     1       0.516  -4.693   9.735  0.00  0.00    -0.295 N 
ATOM     11  H   UNL     1       1.486  -4.691   9.747  0.00  0.00    +0.172 HD
ATOM     12  C   UNL     1      -0.174  -5.034  10.845  0.00  0.00    +0.253 A 
ATOM     13  O   UNL     1       0.411  -5.343  11.870  0.00  0.00    -0.268 OA
ATOM     14  C   UNL     1      -1.579  -5.027  10.796  0.00  0.00    +0.091 A 
ATOM     15  C   UNL     1      -2.196  -4.675   9.630  0.00  0.00    +0.034 A 
ATOM     16  N   UNL     1      -1.471  -4.342   8.565  0.00  0.00    -0.223 NA
ENDROOT
BRANCH   1  20
ATOM     17  C   UNL     1       6.604  -4.865   3.788  0.00  0.00    -0.048 A 
ATOM     18  C   UNL     1       6.063  -3.767   3.143  0.00  0.00    +0.004 A 
ATOM     19  C   UNL     1       4.704  -3.534   3.194  0.00  0.00    +0.013 A 
ATOM     20  C   UNL     1       3.875  -4.408   3.899  0.00  0.00    +0.037 A 
ATOM     21  C   UNL     1       4.428  -5.514   4.547  0.00  0.00    +0.013 A 
ATOM     22  C   UNL     1       5.787  -5.739   4.483  0.00  0.00    +0.004 A 
BRANCH  17  24
ATOM     23  C   UNL     1       8.412  -5.981   2.509  0.00  0.00    +0.009 C 
ATOM     24  C   UNL     1       8.089  -5.113   3.727  0.00  0.00    +0.032 C 
ENDBRANCH  17  24
ENDBRANCH   1  20
BRANCH  15  25
ATOM     25  C   UNL     1      -3.701  -4.659   9.552  0.00  0.00    -0.022 C 
BRANCH  25  26
ATOM     26  N   UNL     1      -4.165  -3.283   9.332  0.00  0.00    +0.385 N 
ATOM     27  C   UNL     1      -3.818  -2.460  10.498  0.00  0.00    -0.059 C 
ATOM     28  C   UNL     1      -4.199  -1.001  10.223  0.00  0.00    +0.086 C 
ATOM     29  N   UNL     1      -5.620  -0.953   9.847  0.00  0.00    -0.331 N 
ATOM     30  C   UNL     1      -6.090  -1.867   8.794  0.00  0.00    +0.086 C 
ATOM     31  C   UNL     1      -5.620  -3.284   9.136  0.00  0.00    -0.059 C 
ATOM     32  H   UNL     1      -3.717  -2.905   8.511  0.00  0.00    -0.081 HD
BRANCH  29  33
ATOM     33  C   UNL     1      -6.500  -0.064  10.473  0.00  0.00    +0.065 A 
ATOM     34  C   UNL     1      -6.694   1.207   9.950  0.00  0.00    +0.026 A 
ATOM     35  C   UNL     1      -7.564   2.083  10.570  0.00  0.00    +0.002 A 
ATOM     36  C   UNL     1      -8.242   1.696  11.711  0.00  0.00    +0.003 A 
ATOM     37  C   UNL     1      -8.052   0.431  12.237  0.00  0.00    +0.040 A 
ATOM     38  C   UNL     1      -7.187  -0.453  11.618  0.00  0.00    +0.144 A 
ATOM     39  F   UNL     1      -7.006  -1.691  12.127  0.00  0.00    -0.204 F 
ENDBRANCH  29  33
ENDBRANCH  25  26
ENDBRANCH  15  25
TORSDOF 5
