REMARK  Name = ZINC39992739
REMARK  8 active torsions:
REMARK  status: ('A' for Active; 'I' for Inactive)
REMARK    1  A    between atoms: C_3  and  S_30
REMARK    2  A    between atoms: C_6  and  C_7
REMARK    3  A    between atoms: C_10  and  C_12
REMARK    4  A    between atoms: C_13  and  C_14
REMARK    5  A    between atoms: C_13  and  C_16
REMARK    6  A    between atoms: N_18  and  C_19
REMARK    7  A    between atoms: C_20  and  C_28
REMARK    8  A    between atoms: S_30  and  N_33
REMARK                            x       y       z     vdW  Elec       q    Type
REMARK                         _______ _______ _______ _____ _____    ______ ____
ROOT
ATOM      1  C   UNL     1      -4.808  -1.054   0.038  0.00  0.00    +0.070 C 
ATOM      2  C   UNL     1      -5.354   0.223   0.044  0.00  0.00    +0.117 C 
ENDROOT
BRANCH   1   6
ATOM      3  C   UNL     1      -1.264  -0.763   0.011  0.00  0.00    +0.136 A 
ATOM      4  C   UNL     1      -1.378  -2.137   0.010  0.00  0.00    +0.050 A 
ATOM      5  C   UNL     1      -2.740  -2.434   0.020  0.00  0.00    +0.050 A 
ATOM      6  C   UNL     1      -3.414  -1.221   0.027  0.00  0.00    +0.130 A 
ATOM      7  O   UNL     1      -2.497  -0.230   0.026  0.00  0.00    -0.455 OA
BRANCH   3  13
ATOM      8  C   UNL     1      -0.017   1.393   0.010  0.00  0.00    +0.013 A 
ATOM      9  C   UNL     1       1.170   2.095   0.002  0.00  0.00    +0.029 A 
ATOM     10  C   UNL     1       2.378   1.420  -0.013  0.00  0.00    +0.105 A 
ATOM     11  C   UNL     1       2.404   0.036  -0.021  0.00  0.00    +0.029 A 
ATOM     12  C   UNL     1       1.225  -0.679  -0.014  0.00  0.00    +0.013 A 
ATOM     13  C   UNL     1       0.002  -0.004   0.002  0.00  0.00    +0.017 A 
BRANCH  10  14
ATOM     14  S   UNL     1       3.889   2.326  -0.023  0.00  0.00    +0.056 S 
ATOM     15  O   UNL     1       4.872   1.469  -0.587  0.00  0.00    -0.153 OA
ATOM     16  O   UNL     1       3.592   3.606  -0.564  0.00  0.00    -0.153 OA
BRANCH  14  17
ATOM     17  N   UNL     1       4.324   2.569   1.557  0.00  0.00    -0.204 NA
ATOM     18  H   UNL     1       3.765   2.226   2.272  0.00  0.00    +0.144 HD
ATOM     19  H   UNL     1       5.137   3.054   1.766  0.00  0.00    +0.144 HD
ENDBRANCH  14  17
ENDBRANCH  10  14
ENDBRANCH   3  13
ENDBRANCH   1   6
BRANCH   2  20
ATOM     20  C   UNL     1      -6.811   0.398   0.055  0.00  0.00    +0.259 C 
ATOM     21  O   UNL     1      -7.541  -0.576   0.059  0.00  0.00    -0.269 OA
ATOM     22  N   UNL     1      -7.341   1.637   0.061  0.00  0.00    -0.274 N 
ATOM     23  H   UNL     1      -6.759   2.413   0.058  0.00  0.00    +0.156 HD
BRANCH  22  24
ATOM     24  C   UNL     1      -8.717   1.802   0.071  0.00  0.00    +0.090 A 
ATOM     25  C   UNL     1      -9.433   2.989   0.073  0.00  0.00    +0.084 A 
ATOM     26  C   UNL     1     -10.882   2.891   0.085  0.00  0.00    -0.018 A 
ATOM     27  C   UNL     1     -11.350   1.624   0.094  0.00  0.00    -0.004 A 
ATOM     28  S   UNL     1      -9.900   0.610   0.078  0.00  0.00    -0.077 S 
ATOM     29  C   UNL     1     -12.784   1.195   0.109  0.00  0.00    +0.043 C 
ATOM     30  C   UNL     1     -13.646   2.407   0.494  0.00  0.00    +0.005 C 
ATOM     31  C   UNL     1     -13.215   3.609  -0.351  0.00  0.00    +0.005 C 
ATOM     32  C   UNL     1     -11.827   4.083   0.087  0.00  0.00    +0.037 C 
BRANCH  25  33
ATOM     33  C   UNL     1      -8.771   4.259   0.063  0.00  0.00    +0.102 C 
ATOM     34  N   UNL     1      -8.246   5.266   0.056  0.00  0.00    -0.191 NA
ENDBRANCH  25  33
ENDBRANCH  22  24
ENDBRANCH   2  20
BRANCH   2  35
ATOM     35  C   UNL     1      -4.495   1.369   0.039  0.00  0.00    +0.104 C 
ATOM     36  N   UNL     1      -3.814   2.278   0.035  0.00  0.00    -0.191 NA
ENDBRANCH   2  35
TORSDOF 8
