REMARK  Name = ZINC39695014
REMARK  5 active torsions:
REMARK  status: ('A' for Active; 'I' for Inactive)
REMARK    1  A    between atoms: C_1  and  C_2
REMARK    2  A    between atoms: C_3  and  C_9
REMARK    3  A    between atoms: C_9  and  N_10
REMARK    4  A    between atoms: C_11  and  C_13
REMARK    5  A    between atoms: C_24  and  C_26
REMARK                            x       y       z     vdW  Elec       q    Type
REMARK                         _______ _______ _______ _____ _____    ______ ____
ROOT
ATOM      1  C   UNL     1       2.483   2.187  -3.995  0.00  0.00    +0.100 C 
ATOM      2  C   UNL     1       3.243   3.107  -3.012  0.00  0.00    +0.121 C 
ATOM      3  N   UNL     1       4.035   4.009  -3.880  0.00  0.00    -0.296 N 
ATOM      4  C   UNL     1       3.132   4.317  -5.014  0.00  0.00    +0.115 C 
ATOM      5  C   UNL     1       2.412   2.986  -5.307  0.00  0.00    -0.004 C 
ATOM      6  C   UNL     1       3.130   2.232  -6.423  0.00  0.00    -0.010 C 
ATOM      7  C   UNL     1       2.997   3.019  -7.731  0.00  0.00    -0.082 C 
ATOM      8  N   UNL     1       1.577   3.186  -8.061  0.00  0.00    +0.379 N 
ATOM      9  C   UNL     1       0.913   3.991  -7.027  0.00  0.00    -0.082 C 
ATOM     10  C   UNL     1       0.959   3.246  -5.690  0.00  0.00    -0.010 C 
ATOM     11  C   UNL     1       5.293   4.450  -3.682  0.00  0.00    +0.247 C 
ATOM     12  O   UNL     1       5.956   4.006  -2.765  0.00  0.00    -0.270 OA
ATOM     13  H   UNL     1       1.492   3.651  -8.953  0.00  0.00    -0.086 HD
ATOM     14  H   UNL     1       1.136   2.280  -8.114  0.00  0.00    -0.086 HD
ENDROOT
BRANCH  11  15
ATOM     15  C   UNL     1       5.867   5.474  -4.581  0.00  0.00    +0.037 A 
ATOM     16  C   UNL     1       5.027   6.292  -5.338  0.00  0.00    +0.014 A 
ATOM     17  C   UNL     1       5.569   7.245  -6.175  0.00  0.00    +0.016 A 
ATOM     18  C   UNL     1       6.943   7.391  -6.265  0.00  0.00    +0.018 A 
ATOM     19  C   UNL     1       7.781   6.583  -5.516  0.00  0.00    +0.016 A 
ATOM     20  C   UNL     1       7.252   5.630  -4.671  0.00  0.00    +0.014 A 
ATOM     21 BR   UNL     1       7.677   8.701  -7.415  0.00  0.00    -0.050 Br
ENDBRANCH  11  15
BRANCH   1  23
ATOM     22  N   UNL     1       0.494   0.733  -3.781  0.00  0.00    -0.311 N 
ATOM     23  C   UNL     1       1.096   1.900  -3.480  0.00  0.00    +0.218 C 
ATOM     24  O   UNL     1       0.522   2.720  -2.794  0.00  0.00    -0.275 OA
ATOM     25  H   UNL     1       0.953   0.077  -4.329  0.00  0.00    +0.149 HD
BRANCH  22  26
ATOM     26  C   UNL     1      -0.854   0.454  -3.280  0.00  0.00    +0.139 C 
BRANCH  26  29
ATOM     27  C   UNL     1       0.067  -1.921  -1.916  0.00  0.00    +0.045 C 
ATOM     28  C   UNL     1      -0.855  -2.043  -3.103  0.00  0.00    -0.027 A 
ATOM     29  C   UNL     1      -1.295  -0.907  -3.756  0.00  0.00    -0.026 A 
ATOM     30  C   UNL     1      -2.140  -1.018  -4.844  0.00  0.00    +0.005 A 
ATOM     31  C   UNL     1      -2.545  -2.266  -5.280  0.00  0.00    +0.002 A 
ATOM     32  C   UNL     1      -2.105  -3.402  -4.628  0.00  0.00    +0.020 A 
ATOM     33  C   UNL     1      -1.255  -3.292  -3.542  0.00  0.00    +0.044 A 
ATOM     34 CL   UNL     1      -0.697  -4.719  -2.727  0.00  0.00    -0.083 Cl
ENDBRANCH  26  29
ENDBRANCH  22  26
ENDBRANCH   1  23
TORSDOF 4
