REMARK  Name = ZINC39637425
REMARK  8 active torsions:
REMARK  status: ('A' for Active; 'I' for Inactive)
REMARK    1  A    between atoms: C_1  and  C_2
REMARK    2  A    between atoms: C_4  and  C_7
REMARK    3  A    between atoms: C_8  and  C_13
REMARK    4  A    between atoms: C_9  and  C_12
REMARK    5  A    between atoms: C_17  and  C_26
REMARK    6  A    between atoms: N_28  and  C_29
REMARK    7  A    between atoms: C_34  and  C_39
REMARK    8  A    between atoms: C_36  and  C_38
REMARK                            x       y       z     vdW  Elec       q    Type
REMARK                         _______ _______ _______ _____ _____    ______ ____
ROOT
ATOM      1  C   UNL     1       0.488  -5.204   0.015  0.00  0.00    +0.252 C 
ATOM      2  O   UNL     1       1.107  -5.353   1.051  0.00  0.00    -0.270 OA
ATOM      3  N   UNL     1       1.108  -5.369  -1.170  0.00  0.00    -0.296 N 
ATOM      4  C   UNL     1       0.529  -5.225  -2.526  0.00  0.00    +0.121 C 
ATOM      5  C   UNL     1       1.637  -4.536  -3.353  0.00  0.00    +0.100 C 
ATOM      6  C   UNL     1       2.944  -4.876  -2.618  0.00  0.00    -0.004 C 
ATOM      7  C   UNL     1       2.526  -5.729  -1.411  0.00  0.00    +0.115 C 
ATOM      8  C   UNL     1       3.873  -5.670  -3.531  0.00  0.00    -0.010 C 
ATOM      9  C   UNL     1       5.189  -5.947  -2.797  0.00  0.00    -0.082 C 
ATOM     10  N   UNL     1       5.815  -4.675  -2.416  0.00  0.00    +0.379 N 
ATOM     11  C   UNL     1       4.956  -3.959  -1.464  0.00  0.00    -0.082 C 
ATOM     12  C   UNL     1       3.630  -3.599  -2.142  0.00  0.00    -0.010 C 
ATOM     13  H   UNL     1       6.710  -4.857  -1.987  0.00  0.00    -0.086 HD
ATOM     14  H   UNL     1       5.949  -4.107  -3.239  0.00  0.00    -0.086 HD
ENDROOT
BRANCH   1  16
ATOM     15  C   UNL     1      -1.463  -3.558   0.070  0.00  0.00    +0.201 A 
ATOM     16  C   UNL     1      -0.939  -4.843   0.055  0.00  0.00    +0.108 A 
ATOM     17  C   UNL     1      -2.034  -5.742   0.085  0.00  0.00    +0.093 A 
ATOM     18  N   UNL     1      -3.130  -5.046   0.115  0.00  0.00    -0.082 NA
ATOM     19  O   UNL     1      -2.800  -3.671   0.112  0.00  0.00    -0.352 OA
ATOM     20  C   UNL     1      -1.941  -7.247   0.081  0.00  0.00    +0.070 C 
BRANCH  15  24
ATOM     21  C   UNL     1      -0.326   1.387   0.050  0.00  0.00    +0.089 C 
ATOM     22  C   UNL     1      -0.206  -0.115   0.042  0.00  0.00    +0.135 A 
ATOM     23  C   UNL     1      -1.230  -0.986   0.070  0.00  0.00    +0.079 A 
ATOM     24  C   UNL     1      -0.691  -2.297   0.049  0.00  0.00    +0.152 A 
ATOM     25  N   UNL     1       0.618  -2.191   0.009  0.00  0.00    -0.075 NA
ATOM     26  O   UNL     1       0.940  -0.812  -0.002  0.00  0.00    -0.359 OA
ENDBRANCH  15  24
ENDBRANCH   1  16
BRANCH   5  27
ATOM     27  C   UNL     1       1.664  -5.086  -4.756  0.00  0.00    +0.218 C 
ATOM     28  O   UNL     1       1.342  -6.237  -4.963  0.00  0.00    -0.275 OA
ATOM     29  N   UNL     1       2.045  -4.298  -5.782  0.00  0.00    -0.312 N 
ATOM     30  H   UNL     1       2.302  -3.378  -5.617  0.00  0.00    +0.149 HD
BRANCH  29  31
ATOM     31  C   UNL     1       2.070  -4.833  -7.146  0.00  0.00    +0.076 C 
ATOM     32  C   UNL     1       3.402  -5.545  -7.389  0.00  0.00    +0.022 C 
ATOM     33  C   UNL     1       3.429  -6.103  -8.814  0.00  0.00    +0.002 C 
ATOM     34  C   UNL     1       3.273  -4.956  -9.814  0.00  0.00    +0.003 C 
ATOM     35  C   UNL     1       1.941  -4.244  -9.570  0.00  0.00    -0.009 C 
ATOM     36  C   UNL     1       1.915  -3.686  -8.146  0.00  0.00    +0.009 C 
ATOM     37  C   UNL     1       3.064  -2.692  -7.966  0.00  0.00    +0.009 C 
ATOM     38  C   UNL     1       1.785  -3.097 -10.570  0.00  0.00    +0.008 C 
ENDBRANCH  29  31
ENDBRANCH   5  27
TORSDOF 4
