REMARK  Name = ZINC38903746
REMARK  11 active torsions:
REMARK  status: ('A' for Active; 'I' for Inactive)
REMARK    1  A    between atoms: C_1  and  C_2
REMARK    2  A    between atoms: C_2  and  C_3
REMARK    3  A    between atoms: C_2  and  C_4
REMARK    4  A    between atoms: C_2  and  C_5
REMARK    5  A    between atoms: C_8  and  C_11
REMARK    6  A    between atoms: C_13  and  C_16
REMARK    7  A    between atoms: C_16  and  N_17
REMARK    8  A    between atoms: C_21  and  C_24
REMARK    9  A    between atoms: N_26  and  C_27
REMARK   10  A    between atoms: C_27  and  C_28
REMARK   11  A    between atoms: C_32  and  N_34
REMARK                            x       y       z     vdW  Elec       q    Type
REMARK                         _______ _______ _______ _____ _____    ______ ____
ROOT
ATOM      1  N   UNL     1       6.465  -3.175  -6.528  0.00  0.00    +0.386 N 
ATOM      2  C   UNL     1       6.744  -3.015  -5.095  0.00  0.00    -0.078 C 
ATOM      3  C   UNL     1       7.543  -4.218  -4.590  0.00  0.00    -0.018 C 
ATOM      4  C   UNL     1       8.863  -4.307  -5.361  0.00  0.00    +0.009 C 
ATOM      5  C   UNL     1       8.562  -4.398  -6.860  0.00  0.00    +0.058 C 
ATOM      6  C   UNL     1       7.725  -3.189  -7.281  0.00  0.00    -0.065 C 
ATOM      7  H   UNL     1       5.975  -4.043  -6.678  0.00  0.00    -0.081 HD
ENDROOT
BRANCH   5   8
ATOM      8  C   UNL     1       9.855  -4.410  -7.633  0.00  0.00    +0.215 C 
ATOM      9  O   UNL     1      10.085  -3.539  -8.445  0.00  0.00    -0.276 OA
ATOM     10  N   UNL     1      10.758  -5.389  -7.422  0.00  0.00    -0.311 N 
ATOM     11  H   UNL     1      10.574  -6.086  -6.772  0.00  0.00    +0.149 HD
BRANCH  10  12
ATOM     12  C   UNL     1      12.015  -5.401  -8.173  0.00  0.00    +0.139 C 
BRANCH  12  13
ATOM     13  C   UNL     1      12.840  -6.590  -7.753  0.00  0.00    -0.029 A 
ATOM     14  C   UNL     1      13.732  -6.476  -6.702  0.00  0.00    +0.005 A 
ATOM     15  C   UNL     1      14.490  -7.564  -6.314  0.00  0.00    +0.002 A 
ATOM     16  C   UNL     1      14.360  -8.770  -6.975  0.00  0.00    +0.023 A 
ATOM     17  C   UNL     1      13.466  -8.888  -8.031  0.00  0.00    +0.037 A 
ATOM     18  C   UNL     1      12.701  -7.794  -8.415  0.00  0.00    +0.028 A 
BRANCH  17  19
ATOM     19  N   UNL     1      13.332 -10.108  -8.703  0.00  0.00    -0.271 N 
ATOM     20  C   UNL     1      12.340 -10.371  -9.752  0.00  0.00    +0.114 C 
ATOM     21  C   UNL     1      12.837 -11.639 -10.481  0.00  0.00    +0.029 C 
ATOM     22  C   UNL     1      13.681 -12.324  -9.382  0.00  0.00    +0.098 C 
ATOM     23  C   UNL     1      14.099 -11.188  -8.475  0.00  0.00    +0.220 C 
ATOM     24  O   UNL     1      14.994 -11.244  -7.658  0.00  0.00    -0.275 OA
ENDBRANCH  17  19
ENDBRANCH  12  13
ENDBRANCH  10  12
ENDBRANCH   5   8
BRANCH   1  25
ATOM     25  C   UNL     1       5.632  -2.057  -6.991  0.00  0.00    +0.022 C 
BRANCH  25  28
ATOM     26  C   UNL     1       2.705  -1.794  -4.861  0.00  0.00    +0.202 A 
ATOM     27  N   UNL     1       3.987  -1.538  -5.178  0.00  0.00    -0.193 NA
ATOM     28  C   UNL     1       4.290  -2.113  -6.307  0.00  0.00    +0.211 A 
ATOM     29  O   UNL     1       3.209  -2.762  -6.757  0.00  0.00    -0.340 OA
ATOM     30  N   UNL     1       2.184  -2.547  -5.798  0.00  0.00    -0.056 NA
BRANCH  26  34
ATOM     31  C   UNL     1       0.685  -0.406  -1.385  0.00  0.00    -0.042 A 
ATOM     32  C   UNL     1       0.016  -1.198  -2.301  0.00  0.00    +0.005 A 
ATOM     33  C   UNL     1       0.667  -1.651  -3.431  0.00  0.00    +0.012 A 
ATOM     34  C   UNL     1       2.000  -1.310  -3.648  0.00  0.00    +0.022 A 
ATOM     35  C   UNL     1       2.669  -0.512  -2.722  0.00  0.00    +0.012 A 
ATOM     36  C   UNL     1       2.007  -0.060  -1.599  0.00  0.00    +0.005 A 
BRANCH  31  38
ATOM     37  C   UNL     1      -0.042   1.615  -0.147  0.00  0.00    +0.015 C 
ATOM     38  C   UNL     1      -0.031   0.085  -0.154  0.00  0.00    -0.013 C 
ATOM     39  C   UNL     1       0.693  -0.424   1.094  0.00  0.00    +0.015 C 
ATOM     40  C   UNL     1      -1.469  -0.436  -0.158  0.00  0.00    +0.015 C 
ENDBRANCH  31  38
ENDBRANCH  26  34
ENDBRANCH  25  28
ENDBRANCH   1  25
TORSDOF 8
