REMARK  Name = ZINC36551326
REMARK  12 active torsions:
REMARK  status: ('A' for Active; 'I' for Inactive)
REMARK    1  A    between atoms: C_1  and  C_2
REMARK    2  A    between atoms: C_5  and  S_8
REMARK    3  A    between atoms: S_8  and  C_11
REMARK    4  A    between atoms: C_11  and  N_12
REMARK    5  A    between atoms: C_13  and  C_15
REMARK    6  A    between atoms: C_15  and  C_17
REMARK    7  A    between atoms: C_15  and  N_24
REMARK    8  A    between atoms: C_22  and  O_23
REMARK    9  A    between atoms: N_24  and  C_25
REMARK   10  A    between atoms: C_32  and  C_34
REMARK   11  A    between atoms: C_35  and  C_36
REMARK   12  A    between atoms: C_35  and  C_37
REMARK                            x       y       z     vdW  Elec       q    Type
REMARK                         _______ _______ _______ _____ _____    ______ ____
ROOT
ATOM      1  C   UNL     1       2.574  -4.057   3.994  0.00  0.00    +0.201 C 
ENDROOT
BRANCH   1   2
ATOM      2  C   UNL     1       1.389  -3.307   4.545  0.00  0.00    +0.024 A 
ATOM      3  C   UNL     1       0.113  -3.621   4.119  0.00  0.00    +0.009 A 
ATOM      4  C   UNL     1      -0.975  -2.933   4.624  0.00  0.00    +0.001 A 
ATOM      5  C   UNL     1      -0.789  -1.930   5.557  0.00  0.00    +0.004 A 
ATOM      6  C   UNL     1       0.485  -1.612   5.987  0.00  0.00    +0.046 A 
ATOM      7  C   UNL     1       1.577  -2.305   5.486  0.00  0.00    +0.122 A 
BRANCH   7   8
ATOM      8  O   UNL     1       2.831  -1.998   5.911  0.00  0.00    -0.506 OA
ATOM      9  H   UNL     1       3.239  -1.262   5.434  0.00  0.00    +0.292 HD
ENDBRANCH   7   8
ENDBRANCH   1   2
BRANCH   1  11
ATOM     10  N   UNL     1       2.187  -3.973   1.552  0.00  0.00    -0.294 N 
ATOM     11  C   UNL     1       2.196  -4.702   2.686  0.00  0.00    +0.240 C 
ATOM     12  O   UNL     1       1.899  -5.878   2.653  0.00  0.00    -0.273 OA
ATOM     13  H   UNL     1       2.370  -3.021   1.587  0.00  0.00    +0.150 HD
BRANCH  10  14
ATOM     14  C   UNL     1       1.901  -4.618   0.269  0.00  0.00    +0.278 C 
BRANCH  14  15
ATOM     15  S   UNL     1       0.138  -4.441  -0.118  0.00  0.00    +0.013 S 
ATOM     16  O   UNL     1      -0.648  -4.782   1.016  0.00  0.00    -0.168 OA
ATOM     17  O   UNL     1      -0.144  -5.007  -1.390  0.00  0.00    -0.168 OA
BRANCH  15  22
ATOM     18  C   UNL     1      -0.707   1.488  -0.849  0.00  0.00    +0.044 C 
ATOM     19  C   UNL     1      -0.496   0.007  -0.666  0.00  0.00    -0.050 A 
ATOM     20  C   UNL     1      -0.154  -0.781  -1.749  0.00  0.00    +0.005 A 
ATOM     21  C   UNL     1       0.040  -2.139  -1.581  0.00  0.00    +0.027 A 
ATOM     22  C   UNL     1      -0.108  -2.710  -0.331  0.00  0.00    +0.090 A 
ATOM     23  C   UNL     1      -0.450  -1.922   0.752  0.00  0.00    +0.027 A 
ATOM     24  C   UNL     1      -0.639  -0.562   0.586  0.00  0.00    +0.005 A 
ENDBRANCH  15  22
ENDBRANCH  14  15
ENDBRANCH  10  14
ENDBRANCH   1  11
BRANCH   1  25
ATOM     25  N   UNL     1       2.984  -5.090   4.948  0.00  0.00    -0.252 N 
ATOM     26  C   UNL     1       4.260  -5.139   5.381  0.00  0.00    +0.245 C 
ATOM     27  O   UNL     1       5.047  -4.272   5.054  0.00  0.00    -0.270 OA
BRANCH  25  28
ATOM     28  C   UNL     1       2.053  -6.026   5.409  0.00  0.00    +0.039 A 
ATOM     29  C   UNL     1       2.108  -7.341   4.963  0.00  0.00    +0.023 A 
ATOM     30  C   UNL     1       1.187  -8.263   5.419  0.00  0.00    +0.003 A 
ATOM     31  C   UNL     1       0.210  -7.879   6.320  0.00  0.00    +0.020 A 
ATOM     32  C   UNL     1       0.152  -6.571   6.766  0.00  0.00    +0.043 A 
ATOM     33  C   UNL     1       1.075  -5.645   6.317  0.00  0.00    +0.043 A 
ATOM     34 CL   UNL     1      -1.076  -6.094   7.896  0.00  0.00    -0.083 Cl
ENDBRANCH  25  28
BRANCH  26  35
ATOM     35  C   UNL     1       4.700  -6.242   6.248  0.00  0.00    +0.066 C 
ATOM     36  C   UNL     1       5.982  -6.354   6.584  0.00  0.00    -0.071 C 
ATOM     37  C   UNL     1       7.007  -5.444   5.957  0.00  0.00    +0.039 C 
ATOM     38  C   UNL     1       6.410  -7.390   7.591  0.00  0.00    +0.039 C 
ENDBRANCH  26  35
ENDBRANCH   1  25
TORSDOF 9
