REMARK  Name = ZINC22026954
REMARK  10 active torsions:
REMARK  status: ('A' for Active; 'I' for Inactive)
REMARK    1  A    between atoms: C_1  and  O_2
REMARK    2  A    between atoms: O_2  and  C_3
REMARK    3  A    between atoms: C_8  and  O_9
REMARK    4  A    between atoms: O_9  and  C_10
REMARK    5  A    between atoms: C_19  and  O_31
REMARK    6  A    between atoms: C_20  and  C_21
REMARK    7  A    between atoms: C_21  and  N_22
REMARK    8  A    between atoms: N_25  and  C_28
REMARK    9  A    between atoms: C_28  and  C_29
REMARK   10  A    between atoms: C_29  and  O_30
REMARK                            x       y       z     vdW  Elec       q    Type
REMARK                         _______ _______ _______ _____ _____    ______ ____
ROOT
ATOM      1  C   UNL     1       0.184  -4.112  -0.152  0.00  0.00    +0.210 A 
ATOM      2  C   UNL     1       0.844  -4.750  -1.138  0.00  0.00    +0.245 A 
ATOM      3  O   UNL     1       0.947  -6.084  -1.197  0.00  0.00    -0.459 OA
ATOM      4  C   UNL     1       0.396  -6.893  -0.270  0.00  0.00    +0.143 A 
ATOM      5  C   UNL     1      -0.318  -6.336   0.806  0.00  0.00    +0.068 A 
ATOM      6  C   UNL     1      -0.433  -4.870   0.884  0.00  0.00    +0.235 A 
ATOM      7  O   UNL     1      -1.035  -4.327   1.796  0.00  0.00    -0.283 OA
ATOM      8  C   UNL     1      -0.892  -7.163   1.773  0.00  0.00    +0.019 A 
ATOM      9  C   UNL     1      -0.759  -8.518   1.670  0.00  0.00    +0.046 A 
ATOM     10  C   UNL     1      -0.054  -9.079   0.607  0.00  0.00    +0.122 A 
ATOM     11  C   UNL     1       0.521  -8.272  -0.360  0.00  0.00    +0.020 A 
ENDROOT
BRANCH  10  12
ATOM     12  O   UNL     1       0.070 -10.428   0.518  0.00  0.00    -0.506 OA
ATOM     13  H   UNL     1      -0.639 -10.856   0.018  0.00  0.00    +0.292 HD
ENDBRANCH  10  12
BRANCH   1  14
ATOM     14  O   UNL     1       0.112  -2.753  -0.142  0.00  0.00    -0.445 OA
BRANCH  14  20
ATOM     15  C   UNL     1      -1.251  -0.798  -0.210  0.00  0.00    +0.162 A 
ATOM     16  C   UNL     1      -2.492  -0.215  -0.411  0.00  0.00    +0.049 A 
ATOM     17  C   UNL     1      -3.583  -1.004  -0.726  0.00  0.00    +0.004 A 
ATOM     18  C   UNL     1      -3.439  -2.374  -0.842  0.00  0.00    +0.004 A 
ATOM     19  C   UNL     1      -2.204  -2.962  -0.643  0.00  0.00    +0.050 A 
ATOM     20  C   UNL     1      -1.105  -2.177  -0.333  0.00  0.00    +0.170 A 
BRANCH  15  22
ATOM     21  C   UNL     1      -0.401   1.383   0.208  0.00  0.00    +0.277 C 
ATOM     22  O   UNL     1      -0.176  -0.024   0.099  0.00  0.00    -0.491 OA
ENDBRANCH  15  22
ENDBRANCH  14  20
ENDBRANCH   1  14
BRANCH  11  23
ATOM     23  C   UNL     1       1.282  -8.889  -1.506  0.00  0.00    -0.035 C 
BRANCH  23  24
ATOM     24  N   UNL     1       2.696  -9.031  -1.135  0.00  0.00    +0.384 N 
ATOM     25  C   UNL     1       3.289  -7.701  -0.944  0.00  0.00    -0.063 C 
ATOM     26  C   UNL     1       4.757  -7.849  -0.539  0.00  0.00    +0.066 C 
ATOM     27  N   UNL     1       5.480  -8.581  -1.589  0.00  0.00    -0.304 NA
ATOM     28  C   UNL     1       4.882  -9.906  -1.808  0.00  0.00    +0.066 C 
ATOM     29  C   UNL     1       3.413  -9.740  -2.202  0.00  0.00    -0.063 C 
ATOM     30  H   UNL     1       2.767  -9.556  -0.276  0.00  0.00    -0.081 HD
BRANCH  27  31
ATOM     31  C   UNL     1       6.908  -8.695  -1.262  0.00  0.00    +0.112 C 
BRANCH  31  32
ATOM     32  C   UNL     1       7.667  -9.234  -2.477  0.00  0.00    +0.171 C 
BRANCH  32  33
ATOM     33  O   UNL     1       7.597  -8.285  -3.542  0.00  0.00    -0.394 OA
ATOM     34  H   UNL     1       8.058  -8.562  -4.346  0.00  0.00    +0.209 HD
ENDBRANCH  32  33
ENDBRANCH  31  32
ENDBRANCH  27  31
ENDBRANCH  23  24
ENDBRANCH  11  23
TORSDOF 9
