REMARK  Name = ZINC67261844
REMARK  6 active torsions:
REMARK  status: ('A' for Active; 'I' for Inactive)
REMARK    1  A    between atoms: C_1  and  C_2
REMARK    2  A    between atoms: C_5  and  N_24
REMARK    3  A    between atoms: C_7  and  N_8
REMARK    4  A    between atoms: N_11  and  C_12
REMARK    5  A    between atoms: C_12  and  C_13
REMARK    6  A    between atoms: C_25  and  C_27
REMARK                            x       y       z     vdW  Elec       q    Type
REMARK                         _______ _______ _______ _____ _____    ______ ____
ROOT
ATOM      1  N   UNL     1       0.436  -0.233   2.349  0.00  0.00    -0.269 N 
ATOM      2  C   UNL     1       0.824  -0.934   3.433  0.00  0.00    +0.304 C 
ATOM      3  O   UNL     1       1.081  -2.118   3.332  0.00  0.00    -0.252 OA
ATOM      4  N   UNL     1       0.926  -0.321   4.629  0.00  0.00    -0.295 N 
ATOM      5  H   UNL     1       0.292   0.724   2.416  0.00  0.00    +0.156 HD
ATOM      6  H   UNL     1       0.721   0.623   4.710  0.00  0.00    +0.151 HD
ENDROOT
BRANCH   1  13
ATOM      7  C   UNL     1      -1.443   0.870   0.522  0.00  0.00    +0.045 C 
ATOM      8  C   UNL     1      -0.665  -0.382   0.204  0.00  0.00    -0.029 A 
ATOM      9  C   UNL     1      -0.853  -1.023  -1.005  0.00  0.00    +0.007 A 
ATOM     10  C   UNL     1      -0.142  -2.170  -1.300  0.00  0.00    +0.024 A 
ATOM     11  C   UNL     1       0.764  -2.683  -0.379  0.00  0.00    +0.035 A 
ATOM     12  C   UNL     1       0.954  -2.042   0.836  0.00  0.00    +0.047 A 
ATOM     13  C   UNL     1       0.243  -0.886   1.126  0.00  0.00    +0.039 A 
BRANCH  11  14
ATOM     14  N   UNL     1       1.483  -3.846  -0.678  0.00  0.00    -0.285 N 
ATOM     15  C   UNL     1       1.895  -4.078  -1.940  0.00  0.00    +0.220 C 
ATOM     16  O   UNL     1       1.574  -3.321  -2.832  0.00  0.00    -0.275 OA
ATOM     17  H   UNL     1       1.684  -4.485   0.023  0.00  0.00    +0.155 HD
BRANCH  15  18
ATOM     18  C   UNL     1       2.756  -5.277  -2.243  0.00  0.00    +0.075 C 
ATOM     19  C   UNL     1       4.208  -5.020  -2.650  0.00  0.00    +0.013 C 
ATOM     20  C   UNL     1       3.192  -5.485  -3.695  0.00  0.00    +0.013 C 
ENDBRANCH  15  18
ENDBRANCH  11  14
ENDBRANCH   1  13
BRANCH   4  21
ATOM     21  C   UNL     1       1.347  -1.083   5.808  0.00  0.00    +0.141 C 
BRANCH  21  22
ATOM     22  C   UNL     1       1.381  -0.172   7.009  0.00  0.00    -0.027 A 
ATOM     23  C   UNL     1       2.538   0.517   7.319  0.00  0.00    +0.009 A 
ATOM     24  C   UNL     1       2.576   1.355   8.419  0.00  0.00    +0.050 A 
ATOM     25  C   UNL     1       1.449   1.501   9.209  0.00  0.00    +0.162 A 
ATOM     26  C   UNL     1       0.287   0.810   8.898  0.00  0.00    +0.162 A 
ATOM     27  C   UNL     1       0.251  -0.025   7.793  0.00  0.00    +0.054 A 
ATOM     28  O   UNL     1      -0.819   0.962   9.683  0.00  0.00    -0.488 OA
ATOM     29  C   UNL     1      -0.727   0.423  11.003  0.00  0.00    +0.232 C 
ATOM     30  C   UNL     1      -0.060   1.413  11.944  0.00  0.00    +0.082 C 
ATOM     31  C   UNL     1       1.389   1.682  11.570  0.00  0.00    +0.232 C 
ATOM     32  O   UNL     1       1.472   2.325  10.297  0.00  0.00    -0.488 OA
ENDBRANCH  21  22
ENDBRANCH   4  21
TORSDOF 5
