REMARK  Name = ZINC06999352
REMARK  8 active torsions:
REMARK  status: ('A' for Active; 'I' for Inactive)
REMARK    1  A    between atoms: C_1  and  C_2
REMARK    2  A    between atoms: C_5  and  N_8
REMARK    3  A    between atoms: C_9  and  C_11
REMARK    4  A    between atoms: C_11  and  N_12
REMARK    5  A    between atoms: C_13  and  N_28
REMARK    6  A    between atoms: C_14  and  C_17
REMARK    7  A    between atoms: N_19  and  C_20
REMARK    8  A    between atoms: C_23  and  C_27
REMARK                            x       y       z     vdW  Elec       q    Type
REMARK                         _______ _______ _______ _____ _____    ______ ____
ROOT
ATOM      1  N   UNL     1       3.895  -4.465  -0.323  0.00  0.00    -0.222 N 
ATOM      2  C   UNL     1       4.750  -4.749   0.688  0.00  0.00    +0.148 A 
ATOM      3  C   UNL     1       5.894  -5.272   0.098  0.00  0.00    +0.188 A 
ATOM      4  N   UNL     1       5.704  -5.290  -1.234  0.00  0.00    -0.123 NA
ATOM      5  N   UNL     1       4.537  -4.828  -1.514  0.00  0.00    -0.063 NA
ENDROOT
BRANCH   3   6
ATOM      6  C   UNL     1       7.098  -5.724   0.804  0.00  0.00    +0.272 C 
ATOM      7  O   UNL     1       7.153  -5.657   2.018  0.00  0.00    -0.268 OA
ATOM      8  N   UNL     1       8.143  -6.214   0.109  0.00  0.00    -0.280 N 
ATOM      9  H   UNL     1       8.130  -6.199  -0.861  0.00  0.00    +0.155 HD
BRANCH   8  10
ATOM     10  C   UNL     1       9.247  -6.744   0.785  0.00  0.00    +0.035 A 
ATOM     11  C   UNL     1      10.520  -6.621   0.243  0.00  0.00    +0.023 A 
ATOM     12  C   UNL     1      11.609  -7.141   0.915  0.00  0.00    +0.006 A 
ATOM     13  C   UNL     1      11.432  -7.792   2.122  0.00  0.00    -0.032 A 
ATOM     14  C   UNL     1      10.165  -7.922   2.662  0.00  0.00    +0.046 A 
ATOM     15  C   UNL     1       9.072  -7.399   1.996  0.00  0.00    +0.043 A 
ATOM     16 CL   UNL     1       9.947  -8.741   4.177  0.00  0.00    -0.083 Cl
ATOM     17  C   UNL     1      12.622  -8.363   2.850  0.00  0.00    +0.045 C 
ENDBRANCH   8  10
ENDBRANCH   3   6
BRANCH   2  18
ATOM     18  N   UNL     1       4.529  -4.556   2.036  0.00  0.00    -0.341 N 
ATOM     19  H   UNL     1       3.688  -4.181   2.341  0.00  0.00    +0.144 HD
ATOM     20  H   UNL     1       5.215  -4.797   2.679  0.00  0.00    +0.144 HD
ENDBRANCH   2  18
BRANCH   1  21
ATOM     21  C   UNL     1       2.552  -3.892  -0.195  0.00  0.00    +0.243 C 
BRANCH  21  23
ATOM     22  N   UNL     1       1.521  -1.644  -0.147  0.00  0.00    -0.284 N 
ATOM     23  C   UNL     1       2.640  -2.389  -0.247  0.00  0.00    +0.239 C 
ATOM     24  O   UNL     1       3.718  -1.848  -0.378  0.00  0.00    -0.273 OA
ATOM     25  H   UNL     1       0.669  -2.071   0.032  0.00  0.00    +0.155 HD
BRANCH  22  30
ATOM     26  C   UNL     1       1.793   3.987  -0.780  0.00  0.00    +0.044 C 
ATOM     27  C   UNL     1       1.721   2.491  -0.612  0.00  0.00    -0.050 A 
ATOM     28  C   UNL     1       2.578   1.674  -1.327  0.00  0.00    +0.005 A 
ATOM     29  C   UNL     1       2.514   0.303  -1.175  0.00  0.00    +0.023 A 
ATOM     30  C   UNL     1       1.588  -0.255  -0.303  0.00  0.00    +0.033 A 
ATOM     31  C   UNL     1       0.729   0.568   0.413  0.00  0.00    +0.023 A 
ATOM     32  C   UNL     1       0.798   1.938   0.257  0.00  0.00    +0.005 A 
ENDBRANCH  22  30
ENDBRANCH  21  23
ENDBRANCH   1  21
TORSDOF 6
