REMARK  Name = ZINC67303438
REMARK  14 active torsions:
REMARK  status: ('A' for Active; 'I' for Inactive)
REMARK    1  A    between atoms: C_1  and  C_2
REMARK    2  A    between atoms: C_3  and  C_9
REMARK    3  A    between atoms: C_4  and  C_8
REMARK    4  A    between atoms: N_5  and  C_7
REMARK    5  A    between atoms: C_9  and  C_11
REMARK    6  A    between atoms: C_9  and  N_12
REMARK    7  A    between atoms: C_13  and  C_15
REMARK    8  A    between atoms: C_17  and  C_24
REMARK    9  A    between atoms: N_18  and  C_20
REMARK   10  A    between atoms: C_20  and  C_21
REMARK   11  A    between atoms: C_20  and  C_22
REMARK   12  A    between atoms: C_20  and  C_23
REMARK   13  A    between atoms: C_24  and  C_25
REMARK   14  A    between atoms: C_24  and  C_26
REMARK                            x       y       z     vdW  Elec       q    Type
REMARK                         _______ _______ _______ _____ _____    ______ ____
ROOT
ATOM      1  N   UNL     1       1.467   1.523  -1.107  0.00  0.00    -0.303 N 
ATOM      2  C   UNL     1       1.481   1.521  -2.455  0.00  0.00    +0.265 C 
ATOM      3  O   UNL     1       0.804   0.720  -3.069  0.00  0.00    -0.268 OA
ATOM      4  H   UNL     1       2.007   2.162  -0.617  0.00  0.00    +0.150 HD
ENDROOT
BRANCH   2   5
ATOM      5  C   UNL     1       2.320   2.493  -3.185  0.00  0.00    +0.147 A 
ATOM      6  C   UNL     1       2.435   2.617  -4.590  0.00  0.00    +0.058 A 
ATOM      7  C   UNL     1       3.308   3.631  -4.793  0.00  0.00    +0.043 A 
ATOM      8  N   UNL     1       3.687   4.082  -3.579  0.00  0.00    -0.262 N 
ATOM      9  N   UNL     1       3.099   3.413  -2.653  0.00  0.00    -0.166 NA
BRANCH   8  10
ATOM     10  C   UNL     1       4.630   5.180  -3.349  0.00  0.00    +0.056 C 
ATOM     11  C   UNL     1       4.170   6.417  -4.123  0.00  0.00    +0.036 C 
ATOM     12  C   UNL     1       4.681   5.504  -1.854  0.00  0.00    +0.036 C 
ATOM     13  C   UNL     1       6.022   4.766  -3.829  0.00  0.00    +0.036 C 
ENDBRANCH   8  10
BRANCH   7  14
ATOM     14  C   UNL     1       3.770   4.160  -6.127  0.00  0.00    +0.031 C 
ATOM     15  C   UNL     1       3.905   3.000  -7.116  0.00  0.00    +0.014 C 
ATOM     16  C   UNL     1       2.748   5.167  -6.659  0.00  0.00    +0.014 C 
ENDBRANCH   7  14
ENDBRANCH   2   5
BRANCH   1  17
ATOM     17  C   UNL     1       0.635   0.559  -0.382  0.00  0.00    +0.104 C 
ATOM     18  C   UNL     1      -0.787   1.109  -0.252  0.00  0.00    +0.033 C 
BRANCH  17  21
ATOM     19  C   UNL     1       1.679   2.801   1.598  0.00  0.00    +0.068 C 
ATOM     20  C   UNL     1       1.673   1.318   1.866  0.00  0.00    +0.065 A 
ATOM     21  C   UNL     1       1.212   0.329   0.991  0.00  0.00    +0.016 A 
ATOM     22  C   UNL     1       1.376  -0.870   1.595  0.00  0.00    +0.041 A 
ATOM     23  N   UNL     1       1.921  -0.648   2.809  0.00  0.00    -0.271 N 
ATOM     24  N   UNL     1       2.103   0.733   2.954  0.00  0.00    -0.176 NA
ATOM     25  C   UNL     1       2.267  -1.671   3.799  0.00  0.00    +0.172 C 
ATOM     26  C   UNL     1       1.014  -2.214   1.016  0.00  0.00    +0.065 C 
ENDBRANCH  17  21
ENDBRANCH   1  17
TORSDOF 5
