REMARK  Name = ZINC02407241
REMARK  12 active torsions:
REMARK  status: ('A' for Active; 'I' for Inactive)
REMARK    1  A    between atoms: C_1  and  C_2
REMARK    2  A    between atoms: C_2  and  C_3
REMARK    3  A    between atoms: C_3  and  O_4
REMARK    4  A    between atoms: O_4  and  C_5
REMARK    5  A    between atoms: C_5  and  C_7
REMARK    6  A    between atoms: C_10  and  O_13
REMARK    7  A    between atoms: O_13  and  C_14
REMARK    8  A    between atoms: C_20  and  O_38
REMARK    9  A    between atoms: C_21  and  C_29
REMARK   10  A    between atoms: C_24  and  C_25
REMARK   11  A    between atoms: C_29  and  N_30
REMARK   12  A    between atoms: C_34  and  C_37
REMARK                            x       y       z     vdW  Elec       q    Type
REMARK                         _______ _______ _______ _____ _____    ______ ____
ROOT
ATOM      1  C   UNL     1      -1.175   3.408   0.026  0.00  0.00    +0.222 A 
ATOM      2  C   UNL     1      -1.161   4.118   1.260  0.00  0.00    +0.235 A 
ATOM      3  O   UNL     1      -1.173   3.532   2.330  0.00  0.00    -0.283 OA
ATOM      4  C   UNL     1      -1.126   5.589   1.191  0.00  0.00    +0.068 A 
ATOM      5  C   UNL     1      -1.106   6.371   2.347  0.00  0.00    +0.019 A 
ATOM      6  C   UNL     1      -1.080   7.732   2.242  0.00  0.00    +0.046 A 
ATOM      7  C   UNL     1      -1.075   8.343   0.990  0.00  0.00    +0.122 A 
ATOM      8  C   UNL     1      -1.095   7.581  -0.166  0.00  0.00    +0.020 A 
ATOM      9  C   UNL     1      -1.121   6.196  -0.077  0.00  0.00    +0.144 A 
ATOM     10  O   UNL     1      -1.141   5.431  -1.187  0.00  0.00    -0.447 OA
ATOM     11  C   UNL     1      -1.167   4.092  -1.135  0.00  0.00    +0.254 A 
ENDROOT
BRANCH  11  12
ATOM     12  C   UNL     1      -1.188   3.320  -2.429  0.00  0.00    +0.454 C 
ATOM     13  F   UNL     1      -2.514   3.107  -2.823  0.00  0.00    -0.163 F 
ATOM     14  F   UNL     1      -0.519   4.049  -3.418  0.00  0.00    -0.163 F 
ATOM     15  F   UNL     1      -0.552   2.087  -2.247  0.00  0.00    -0.163 F 
ENDBRANCH  11  12
BRANCH   7  16
ATOM     16  O   UNL     1      -1.049   9.698   0.902  0.00  0.00    -0.506 OA
ATOM     17  H   UNL     1      -1.044  10.185  -0.084  0.00  0.00    +0.292 HD
ENDBRANCH   7  16
BRANCH   1  18
ATOM     18  O   UNL     1      -1.202   2.047   0.019  0.00  0.00    -0.448 OA
BRANCH  18  22
ATOM     19  C   UNL     1       2.404   0.037  -0.021  0.00  0.00    +0.059 A 
ATOM     20  C   UNL     1       1.202  -0.678  -0.013  0.00  0.00    +0.018 A 
ATOM     21  C   UNL     1       0.002  -0.004   0.002  0.00  0.00    +0.047 A 
ATOM     22  C   UNL     1      -0.017   1.386   0.010  0.00  0.00    +0.129 A 
ATOM     23  C   UNL     1       1.176   2.102   0.002  0.00  0.00    +0.047 A 
ATOM     24  C   UNL     1       2.380   1.435  -0.013  0.00  0.00    +0.018 A 
BRANCH  19  25
ATOM     25  C   UNL     1       3.691  -0.680  -0.036  0.00  0.00    +0.339 C 
ATOM     26  O   UNL     1       3.710  -1.895  -0.043  0.00  0.00    -0.245 OA
BRANCH  25  27
ATOM     27  O   UNL     1       4.848   0.011  -0.044  0.00  0.00    -0.461 OA
BRANCH  27  28
ATOM     28  C   UNL     1       6.077  -0.761  -0.059  0.00  0.00    +0.232 C 
BRANCH  28  30
ATOM     29  C   UNL     1       8.572  -0.625  -0.082  0.00  0.00    +0.007 C 
ATOM     30  C   UNL     1       7.277   0.189  -0.066  0.00  0.00    +0.038 C 
ENDBRANCH  28  30
ENDBRANCH  27  28
ENDBRANCH  25  27
ENDBRANCH  19  25
ENDBRANCH  18  22
ENDBRANCH   1  18
BRANCH   8  31
ATOM     31  C   UNL     1      -1.089   8.253  -1.515  0.00  0.00    -0.036 C 
BRANCH  31  32
ATOM     32  N   UNL     1      -2.472   8.498  -1.946  0.00  0.00    +0.383 N 
ATOM     33  C   UNL     1      -3.270   9.069  -0.854  0.00  0.00    -0.078 C 
ATOM     34  C   UNL     1      -4.733   9.175  -1.291  0.00  0.00    -0.018 C 
ATOM     35  C   UNL     1      -4.826  10.062  -2.535  0.00  0.00    -0.001 C 
ATOM     36  C   UNL     1      -3.948   9.471  -3.641  0.00  0.00    -0.031 C 
ATOM     37  C   UNL     1      -2.508   9.357  -3.136  0.00  0.00    -0.075 C 
ATOM     38  C   UNL     1      -3.988  10.384  -4.868  0.00  0.00    +0.005 C 
ATOM     39  H   UNL     1      -2.919   7.530  -2.217  0.00  0.00    -0.081 HD
ENDBRANCH  31  32
ENDBRANCH   8  31
TORSDOF 10
