REMARK  Name = ZINC35705297
REMARK  13 active torsions:
REMARK  status: ('A' for Active; 'I' for Inactive)
REMARK    1  A    between atoms: C_1  and  C_2
REMARK    2  A    between atoms: C_5  and  C_38
REMARK    3  A    between atoms: C_6  and  C_8
REMARK    4  A    between atoms: C_10  and  C_31
REMARK    5  A    between atoms: C_11  and  C_30
REMARK    6  A    between atoms: C_15  and  C_18
REMARK    7  A    between atoms: C_19  and  N_21
REMARK    8  A    between atoms: C_27  and  C_29
REMARK    9  A    between atoms: C_31  and  O_33
REMARK   10  A    between atoms: O_33  and  C_34
REMARK   11  A    between atoms: C_34  and  C_35
REMARK   12  A    between atoms: C_34  and  C_36
REMARK   13  A    between atoms: C_34  and  C_37
REMARK                            x       y       z     vdW  Elec       q    Type
REMARK                         _______ _______ _______ _____ _____    ______ ____
ROOT
ATOM      1  C   UNL     1       0.170  -4.865   2.412  0.00  0.00    +0.150 C 
ATOM      2  C   UNL     1       1.205  -5.953   2.587  0.00  0.00    +0.083 C 
ATOM      3  C   UNL     1       1.616  -6.250   3.872  0.00  0.00    +0.053 C 
ATOM      4  N   UNL     1       1.112  -5.596   4.905  0.00  0.00    -0.230 NA
ATOM      5  C   UNL     1       0.210  -4.639   4.822  0.00  0.00    +0.166 C 
ATOM      6  N   UNL     1      -0.325  -4.197   3.645  0.00  0.00    -0.267 N 
ATOM      7  C   UNL     1      -1.262  -3.186   3.724  0.00  0.00    +0.048 C 
ATOM      8  C   UNL     1      -1.574  -2.715   4.952  0.00  0.00    +0.072 C 
ATOM      9  S   UNL     1      -0.536  -3.709   6.003  0.00  0.00    -0.060 S 
ATOM     10  C   UNL     1       2.646  -7.327   4.098  0.00  0.00    +0.066 C 
ENDROOT
BRANCH   1  16
ATOM     11  C   UNL     1       0.560  -2.736  -2.101  0.00  0.00    +0.044 C 
ATOM     12  C   UNL     1       0.944  -2.788  -0.644  0.00  0.00    -0.050 A 
ATOM     13  C   UNL     1       1.836  -1.864  -0.132  0.00  0.00    +0.003 A 
ATOM     14  C   UNL     1       2.188  -1.912   1.204  0.00  0.00    +0.004 A 
ATOM     15  C   UNL     1       1.649  -2.883   2.027  0.00  0.00    -0.045 A 
ATOM     16  C   UNL     1       0.757  -3.806   1.515  0.00  0.00    -0.019 A 
ATOM     17  C   UNL     1       0.401  -3.756   0.179  0.00  0.00    +0.009 A 
ATOM     18  C   UNL     1       2.034  -2.935   3.483  0.00  0.00    +0.044 C 
ENDBRANCH   1  16
BRANCH   7  19
ATOM     19  C   UNL     1      -1.897  -2.641   2.516  0.00  0.00    +0.091 C 
ATOM     20  C   UNL     1      -2.708  -1.569   2.607  0.00  0.00    +0.241 C 
ATOM     21  O   UNL     1      -2.845  -0.921   3.789  0.00  0.00    -0.271 OA
BRANCH  20  22
ATOM     22  N   UNL     1      -3.402  -1.130   1.492  0.00  0.00    -0.295 N 
ATOM     23  C   UNL     1      -3.829  -2.080   0.454  0.00  0.00    +0.127 C 
ATOM     24  C   UNL     1      -5.343  -1.941   0.256  0.00  0.00    +0.126 C 
ATOM     25  N   UNL     1      -5.667  -0.517   0.090  0.00  0.00    -0.299 N 
ATOM     26  C   UNL     1      -5.240   0.432   1.127  0.00  0.00    +0.126 C 
ATOM     27  C   UNL     1      -3.731   0.293   1.328  0.00  0.00    +0.127 C 
ATOM     28  C   UNL     1      -6.343  -0.090  -0.995  0.00  0.00    +0.213 C 
ATOM     29  O   UNL     1      -6.775  -0.893  -1.795  0.00  0.00    -0.276 OA
ATOM     30  C   UNL     1      -6.561   1.385  -1.214  0.00  0.00    +0.109 C 
ENDBRANCH  20  22
ENDBRANCH   7  19
BRANCH   2  31
ATOM     31  C   UNL     1       1.729  -6.638   1.484  0.00  0.00    +0.340 C 
ATOM     32  O   UNL     1       2.646  -7.426   1.635  0.00  0.00    -0.245 OA
BRANCH  31  33
ATOM     33  O   UNL     1       1.217  -6.425   0.251  0.00  0.00    -0.456 OA
BRANCH  33  34
ATOM     34  C   UNL     1       1.760  -7.200  -0.820  0.00  0.00    +0.106 C 
ATOM     35  C   UNL     1       1.641  -8.688  -0.483  0.00  0.00    +0.055 C 
ATOM     36  C   UNL     1       0.986  -6.905  -2.106  0.00  0.00    +0.055 C 
ATOM     37  C   UNL     1       3.233  -6.838  -1.016  0.00  0.00    +0.055 C 
ENDBRANCH  33  34
ENDBRANCH  31  33
ENDBRANCH   2  31
TORSDOF 6
