REMARK  Name = ZINC14254398
REMARK  8 active torsions:
REMARK  status: ('A' for Active; 'I' for Inactive)
REMARK    1  A    between atoms: C_1  and  C_2
REMARK    2  A    between atoms: N_11  and  C_12
REMARK    3  A    between atoms: C_12  and  C_13
REMARK    4  A    between atoms: N_15  and  N_16
REMARK    5  A    between atoms: C_19  and  C_23
REMARK    6  A    between atoms: C_19  and  C_24
REMARK    7  A    between atoms: C_24  and  C_25
REMARK    8  A    between atoms: C_25  and  C_26
REMARK                            x       y       z     vdW  Elec       q    Type
REMARK                         _______ _______ _______ _____ _____    ______ ____
ROOT
ATOM      1  N   UNL     1       1.241  -0.521   5.963  0.00  0.00    -0.137 N 
ATOM      2  C   UNL     1       1.085  -1.588   6.771  0.00  0.00    +0.263 C 
ATOM      3  O   UNL     1       0.244  -2.457   6.683  0.00  0.00    -0.271 OA
ATOM      4  C   UNL     1       2.179  -1.476   7.814  0.00  0.00    +0.112 C 
ATOM      5  N   UNL     1       2.892  -0.243   7.436  0.00  0.00    -0.284 N 
ATOM      6  C   UNL     1       2.274   0.239   6.343  0.00  0.00    +0.326 C 
ATOM      7  O   UNL     1       2.615   1.254   5.766  0.00  0.00    -0.251 OA
ATOM      8  C   UNL     1       3.117  -2.683   7.742  0.00  0.00    +0.041 C 
ATOM      9  H   UNL     1       3.659   0.144   7.886  0.00  0.00    +0.151 HD
ENDROOT
BRANCH   1  12
ATOM     10  C   UNL     1       0.882  -0.469   3.610  0.00  0.00    +0.244 C 
ATOM     11  O   UNL     1       2.000  -0.909   3.444  0.00  0.00    -0.273 OA
ATOM     12  N   UNL     1       0.425  -0.245   4.858  0.00  0.00    -0.223 N 
ATOM     13  H   UNL     1      -0.469   0.108   4.991  0.00  0.00    +0.174 HD
BRANCH  10  14
ATOM     14  C   UNL     1       0.005  -0.172   2.421  0.00  0.00    +0.182 C 
BRANCH  14  24
ATOM     15  C   UNL     1      -0.019   1.526   0.010  0.00  0.00    +0.031 C 
ATOM     16  C   UNL     1       0.002  -0.004   0.002  0.00  0.00    +0.101 C 
ATOM     17  C   UNL     1       0.722  -0.498  -1.229  0.00  0.00    +0.036 A 
ATOM     18  C   UNL     1       0.593  -0.069  -2.493  0.00  0.00    +0.024 A 
ATOM     19  C   UNL     1       1.475  -0.832  -3.288  0.00  0.00    +0.019 A 
ATOM     20  C   UNL     1       2.109  -1.700  -2.471  0.00  0.00    +0.086 A 
ATOM     21  N   UNL     1       1.652  -1.504  -1.208  0.00  0.00    -0.348 N 
ATOM     22  C   UNL     1       2.043  -2.215   0.015  0.00  0.00    +0.137 C 
ATOM     23  C   UNL     1       0.980  -1.943   1.087  0.00  0.00    +0.107 C 
ATOM     24  N   UNL     1       0.728  -0.499   1.185  0.00  0.00    -0.284 NA
ENDBRANCH  14  24
ENDBRANCH  10  14
ENDBRANCH   1  12
BRANCH   4  25
ATOM     25  C   UNL     1       1.578  -1.343   9.214  0.00  0.00    +0.040 C 
BRANCH  25  26
ATOM     26  C   UNL     1       2.697  -1.107  10.230  0.00  0.00    +0.038 C 
BRANCH  26  27
ATOM     27  C   UNL     1       2.105  -0.975  11.609  0.00  0.00    -0.047 A 
ATOM     28  C   UNL     1       1.722   0.266  12.082  0.00  0.00    +0.003 A 
ATOM     29  C   UNL     1       1.179   0.387  13.347  0.00  0.00    +0.000 A 
ATOM     30  C   UNL     1       1.017  -0.734  14.139  0.00  0.00    +0.000 A 
ATOM     31  C   UNL     1       1.399  -1.976  13.667  0.00  0.00    +0.000 A 
ATOM     32  C   UNL     1       1.939  -2.097  12.400  0.00  0.00    +0.003 A 
ENDBRANCH  26  27
ENDBRANCH  25  26
ENDBRANCH   4  25
TORSDOF 6
