REMARK  Name = ZINC14278691
REMARK  7 active torsions:
REMARK  status: ('A' for Active; 'I' for Inactive)
REMARK    1  A    between atoms: C_1  and  O_2
REMARK    2  A    between atoms: O_2  and  C_3
REMARK    3  A    between atoms: C_4  and  C_11
REMARK    4  A    between atoms: C_12  and  C_13
REMARK    5  A    between atoms: N_15  and  C_16
REMARK    6  A    between atoms: C_19  and  S_22
REMARK    7  A    between atoms: S_22  and  N_25
REMARK                            x       y       z     vdW  Elec       q    Type
REMARK                         _______ _______ _______ _____ _____    ______ ____
ROOT
ATOM      1  C   UNL     1       2.410  -2.733  -0.138  0.00  0.00    +0.241 C 
ATOM      2  O   UNL     1       3.456  -2.111  -0.144  0.00  0.00    -0.270 OA
ATOM      3  N   UNL     1       1.238  -2.079  -0.021  0.00  0.00    -0.282 N 
ATOM      4  H   UNL     1       0.410  -2.577   0.061  0.00  0.00    +0.155 HD
ENDROOT
BRANCH   3   5
ATOM      5  C   UNL     1       1.214  -0.680  -0.019  0.00  0.00    +0.034 A 
ATOM      6  C   UNL     1       2.137   0.032  -0.774  0.00  0.00    +0.025 A 
ATOM      7  C   UNL     1       2.112   1.413  -0.769  0.00  0.00    +0.030 A 
ATOM      8  C   UNL     1       1.169   2.086  -0.013  0.00  0.00    +0.105 A 
ATOM      9  C   UNL     1       0.249   1.380   0.740  0.00  0.00    +0.030 A 
ATOM     10  C   UNL     1       0.269  -0.001   0.739  0.00  0.00    +0.025 A 
BRANCH   8  11
ATOM     11  S   UNL     1       1.141   3.848  -0.010  0.00  0.00    +0.056 S 
ATOM     12  O   UNL     1       0.513   4.241   1.203  0.00  0.00    -0.153 OA
ATOM     13  O   UNL     1       2.448   4.276  -0.365  0.00  0.00    -0.153 OA
BRANCH  11  14
ATOM     14  N   UNL     1       0.137   4.324  -1.238  0.00  0.00    -0.204 NA
ATOM     15  H   UNL     1      -0.300   3.658  -1.793  0.00  0.00    +0.144 HD
ATOM     16  H   UNL     1      -0.014   5.268  -1.403  0.00  0.00    +0.144 HD
ENDBRANCH  11  14
ENDBRANCH   8  11
ENDBRANCH   3   5
BRANCH   1  18
ATOM     17  C   UNL     1       3.600  -4.846  -0.373  0.00  0.00    +0.016 C 
ATOM     18  C   UNL     1       2.425  -4.190  -0.256  0.00  0.00    +0.068 C 
BRANCH  17  20
ATOM     19  C   UNL     1       4.834  -6.996  -0.614  0.00  0.00    +0.141 A 
ATOM     20  C   UNL     1       3.615  -6.310  -0.492  0.00  0.00    +0.019 A 
ATOM     21  C   UNL     1       2.416  -7.030  -0.479  0.00  0.00    +0.027 A 
ATOM     22  C   UNL     1       2.437  -8.403  -0.597  0.00  0.00    +0.020 A 
ATOM     23  C   UNL     1       3.643  -9.076  -0.717  0.00  0.00    +0.034 A 
ATOM     24  C   UNL     1       4.836  -8.378  -0.725  0.00  0.00    +0.061 A 
ATOM     25 BR   UNL     1       6.474  -9.309  -0.889  0.00  0.00    -0.046 Br
ATOM     26 BR   UNL     1       0.815  -9.374  -0.588  0.00  0.00    -0.050 Br
BRANCH  19  28
ATOM     27  C   UNL     1       6.633  -6.084   0.642  0.00  0.00    +0.277 C 
ATOM     28  O   UNL     1       6.005  -6.310  -0.622  0.00  0.00    -0.493 OA
ENDBRANCH  19  28
ENDBRANCH  17  20
ENDBRANCH   1  18
TORSDOF 6
