REMARK  Name = ZINC64074666
REMARK  9 active torsions:
REMARK  status: ('A' for Active; 'I' for Inactive)
REMARK    1  A    between atoms: C_1  and  C_2
REMARK    2  A    between atoms: C_2  and  C_3
REMARK    3  A    between atoms: C_3  and  C_18
REMARK    4  A    between atoms: N_6  and  C_10
REMARK    5  A    between atoms: C_10  and  C_11
REMARK    6  A    between atoms: C_11  and  C_12
REMARK    7  A    between atoms: C_13  and  C_17
REMARK    8  A    between atoms: N_21  and  C_24
REMARK    9  A    between atoms: C_24  and  C_25
REMARK                            x       y       z     vdW  Elec       q    Type
REMARK                         _______ _______ _______ _____ _____    ______ ____
ROOT
ATOM      1  C   UNL     1       0.325  -0.656  -0.888  0.00  0.00    +0.115 C 
ATOM      2  C   UNL     1      -0.406  -0.051  -2.070  0.00  0.00    +0.247 C 
ATOM      3  O   UNL     1      -1.548  -0.268  -2.413  0.00  0.00    -0.273 OA
ATOM      4  N   UNL     1       0.478   0.778  -2.660  0.00  0.00    -0.224 N 
ATOM      5  C   UNL     1       1.654   0.781  -2.021  0.00  0.00    +0.309 C 
ATOM      6  O   UNL     1       2.608   1.450  -2.365  0.00  0.00    -0.252 OA
ATOM      7  N   UNL     1       1.662  -0.040  -0.955  0.00  0.00    -0.285 N 
ATOM      8  H   UNL     1       2.403  -0.196  -0.349  0.00  0.00    +0.151 HD
ENDROOT
BRANCH   1   9
ATOM      9  C   UNL     1       0.425  -2.176  -1.033  0.00  0.00    +0.018 C 
ATOM     10  C   UNL     1       1.239  -2.749   0.131  0.00  0.00    -0.013 C 
ATOM     11  C   UNL     1       1.402  -4.258  -0.063  0.00  0.00    -0.078 C 
ATOM     12  N   UNL     1       2.102  -4.520  -1.327  0.00  0.00    +0.381 N 
ATOM     13  C   UNL     1       1.294  -4.037  -2.453  0.00  0.00    -0.078 C 
ATOM     14  C   UNL     1       1.126  -2.519  -2.351  0.00  0.00    -0.013 C 
ATOM     15  H   UNL     1       2.991  -4.043  -1.323  0.00  0.00    -0.082 HD
BRANCH  12  16
ATOM     16  C   UNL     1       2.326  -5.965  -1.471  0.00  0.00    -0.050 C 
BRANCH  16  17
ATOM     17  C   UNL     1       3.295  -6.441  -0.387  0.00  0.00    +0.086 C 
ATOM     18  C   UNL     1       3.684  -7.882  -0.632  0.00  0.00    +0.005 C 
ATOM     19  C   UNL     1       5.025  -7.883  -0.811  0.00  0.00    -0.004 A 
ATOM     20  C   UNL     1       5.991  -8.954  -1.083  0.00  0.00    +0.010 A 
ATOM     21  C   UNL     1       7.299  -8.639  -1.215  0.00  0.00    +0.001 A 
ATOM     22  C   UNL     1       7.755  -7.319  -1.098  0.00  0.00    +0.002 A 
ATOM     23  C   UNL     1       6.928  -6.281  -0.849  0.00  0.00    +0.026 A 
ATOM     24  C   UNL     1       5.531  -6.497  -0.692  0.00  0.00    +0.043 A 
ATOM     25  N   UNL     1       4.541  -5.670  -0.448  0.00  0.00    -0.380 N 
ATOM     26  H   UNL     1       4.620  -4.711  -0.329  0.00  0.00    +0.160 HD
ENDBRANCH  16  17
ENDBRANCH  12  16
ENDBRANCH   1   9
BRANCH   1  28
ATOM     27  C   UNL     1      -0.507   1.234   0.518  0.00  0.00    +0.006 C 
ATOM     28  C   UNL     1      -0.372  -0.287   0.423  0.00  0.00    +0.032 C 
ENDBRANCH   1  28
BRANCH   4  29
ATOM     29  C   UNL     1       0.188   1.577  -3.853  0.00  0.00    +0.123 C 
BRANCH  29  30
ATOM     30  C   UNL     1      -0.371   2.937  -3.432  0.00  0.00    +0.064 C 
BRANCH  30  31
ATOM     31  C   UNL     1      -0.669   3.759  -4.659  0.00  0.00    +0.014 A 
ATOM     32  C   UNL     1      -1.812   3.846  -5.388  0.00  0.00    +0.049 A 
ATOM     33  N   UNL     1      -1.797   4.654  -6.429  0.00  0.00    -0.252 NA
ATOM     34  C   UNL     1      -0.726   5.341  -6.743  0.00  0.00    +0.156 A 
ATOM     35  S   UNL     1       0.379   4.894  -5.554  0.00  0.00    -0.080 S 
ATOM     36  C   UNL     1      -3.041   3.054  -5.023  0.00  0.00    +0.066 C 
ENDBRANCH  30  31
ENDBRANCH  29  30
ENDBRANCH   4  29
TORSDOF 7
