REMARK  Name = ZINC02214783
REMARK  6 active torsions:
REMARK  status: ('A' for Active; 'I' for Inactive)
REMARK    1  A    between atoms: C_5  and  C_7
REMARK    2  A    between atoms: N_9  and  C_10
REMARK    3  A    between atoms: C_10  and  N_12
REMARK    4  A    between atoms: N_12  and  C_13
REMARK    5  A    between atoms: C_20  and  C_22
REMARK    6  A    between atoms: C_25  and  O_29
REMARK                            x       y       z     vdW  Elec       q    Type
REMARK                         _______ _______ _______ _____ _____    ______ ____
ROOT
ATOM      1  C   UNL     1      -1.100  -6.296  -0.072  0.00  0.00    +0.035 A 
ATOM      2  C   UNL     1       0.072  -7.048  -0.056  0.00  0.00    +0.027 A 
ATOM      3  C   UNL     1       0.020  -8.424  -0.112  0.00  0.00    +0.050 A 
ATOM      4  C   UNL     1      -1.206  -9.069  -0.185  0.00  0.00    +0.156 A 
ATOM      5  C   UNL     1      -2.392  -8.318  -0.202  0.00  0.00    +0.112 A 
ATOM      6  C   UNL     1      -2.330  -6.924  -0.140  0.00  0.00    +0.054 A 
ATOM      7  N   UNL     1      -3.416  -9.207  -0.277  0.00  0.00    -0.209 NA
ATOM      8  C   UNL     1      -2.920 -10.419  -0.306  0.00  0.00    +0.228 A 
ATOM      9  O   UNL     1      -1.575 -10.368  -0.251  0.00  0.00    -0.435 OA
ENDROOT
BRANCH   8  10
ATOM     10  C   UNL     1      -3.718 -11.659  -0.387  0.00  0.00    +0.038 A 
ATOM     11  C   UNL     1      -5.112 -11.592  -0.444  0.00  0.00    +0.017 A 
ATOM     12  C   UNL     1      -5.853 -12.751  -0.520  0.00  0.00    +0.047 A 
ATOM     13  C   UNL     1      -5.216 -13.985  -0.538  0.00  0.00    +0.131 A 
ATOM     14  C   UNL     1      -3.829 -14.057  -0.480  0.00  0.00    +0.060 A 
ATOM     15  C   UNL     1      -3.080 -12.901  -0.411  0.00  0.00    +0.032 A 
ATOM     16 BR   UNL     1      -2.968 -15.740  -0.505  0.00  0.00    -0.047 Br
BRANCH  13  17
ATOM     17  O   UNL     1      -5.950 -15.125  -0.612  0.00  0.00    -0.506 OA
ATOM     18  H   UNL     1      -6.125 -15.423  -1.516  0.00  0.00    +0.292 HD
ENDBRANCH  13  17
ENDBRANCH   8  10
BRANCH   1  19
ATOM     19  N   UNL     1      -1.033  -4.898  -0.015  0.00  0.00    -0.297 N 
ATOM     20  H   UNL     1      -1.619  -4.409   0.584  0.00  0.00    +0.154 HD
BRANCH  19  21
ATOM     21  C   UNL     1      -0.154  -4.233  -0.790  0.00  0.00    +0.141 C 
ATOM     22  S   UNL     1       0.954  -5.100  -1.766  0.00  0.00    -0.018 S 
BRANCH  21  25
ATOM     23  C   UNL     1       0.731  -2.220  -1.574  0.00  0.00    +0.252 C 
ATOM     24  O   UNL     1       1.517  -2.836  -2.267  0.00  0.00    -0.270 OA
ATOM     25  N   UNL     1      -0.148  -2.885  -0.798  0.00  0.00    -0.263 N 
ATOM     26  H   UNL     1      -0.776  -2.394  -0.246  0.00  0.00    +0.157 HD
BRANCH  23  31
ATOM     27  C   UNL     1      -0.153   1.345  -0.801  0.00  0.00    +0.001 A 
ATOM     28  C   UNL     1       0.750   2.027  -1.599  0.00  0.00    +0.003 A 
ATOM     29  C   UNL     1       1.647   1.333  -2.389  0.00  0.00    +0.039 A 
ATOM     30  C   UNL     1       1.648  -0.050  -2.387  0.00  0.00    +0.135 A 
ATOM     31  C   UNL     1       0.737  -0.744  -1.583  0.00  0.00    +0.072 A 
ATOM     32  C   UNL     1      -0.165  -0.033  -0.789  0.00  0.00    +0.016 A 
ATOM     33  F   UNL     1       2.524  -0.729  -3.159  0.00  0.00    -0.205 F 
ENDBRANCH  23  31
ENDBRANCH  21  25
ENDBRANCH  19  21
ENDBRANCH   1  19
TORSDOF 6
