REMARK  Name = ZINC40822750
REMARK  6 active torsions:
REMARK  status: ('A' for Active; 'I' for Inactive)
REMARK    1  A    between atoms: C_1  and  C_2
REMARK    2  A    between atoms: C_6  and  C_7
REMARK    3  A    between atoms: N_9  and  C_10
REMARK    4  A    between atoms: N_21  and  N_22
REMARK    5  A    between atoms: C_23  and  C_25
REMARK    6  A    between atoms: C_28  and  C_31
REMARK                            x       y       z     vdW  Elec       q    Type
REMARK                         _______ _______ _______ _____ _____    ______ ____
ROOT
ATOM      1  C   UNL     1      -0.014   1.502   0.010  0.00  0.00    +0.048 C 
ATOM      2  C   UNL     1      -0.004  -0.005   0.002  0.00  0.00    +0.009 A 
ATOM      3  C   UNL     1      -0.007  -0.839  -1.123  0.00  0.00    +0.042 A 
ATOM      4  C   UNL     1       0.005  -2.138  -0.672  0.00  0.00    +0.115 A 
ATOM      5  O   UNL     1       0.018  -2.112   0.658  0.00  0.00    -0.454 OA
ATOM      6  C   UNL     1       0.018  -0.831   1.091  0.00  0.00    +0.193 A 
ATOM      7  C   UNL     1      -0.001  -3.328  -1.599  0.00  0.00    +0.075 C 
ATOM      8  C   UNL     1      -0.528  -2.901  -2.971  0.00  0.00    +0.014 C 
ATOM      9  C   UNL     1       0.248  -1.688  -3.495  0.00  0.00    +0.058 C 
ATOM     10  C   UNL     1      -0.019  -0.513  -2.566  0.00  0.00    +0.070 C 
ATOM     11  N   UNL     1      -0.241   0.687  -3.007  0.00  0.00    -0.184 NA
ENDROOT
BRANCH   6  12
ATOM     12  C   UNL     1       0.033  -0.400   2.493  0.00  0.00    +0.284 C 
ATOM     13  O   UNL     1       0.028   0.786   2.765  0.00  0.00    -0.266 OA
ATOM     14  N   UNL     1       0.054  -1.317   3.480  0.00  0.00    -0.279 N 
ATOM     15  H   UNL     1      -0.010  -2.261   3.266  0.00  0.00    +0.155 HD
BRANCH  14  16
ATOM     16  C   UNL     1       0.166  -0.909   4.813  0.00  0.00    +0.034 A 
ATOM     17  C   UNL     1       0.887  -1.677   5.718  0.00  0.00    +0.025 A 
ATOM     18  C   UNL     1       0.996  -1.271   7.033  0.00  0.00    +0.022 A 
ATOM     19  C   UNL     1       0.388  -0.100   7.450  0.00  0.00    +0.041 A 
ATOM     20  C   UNL     1      -0.332   0.667   6.551  0.00  0.00    +0.022 A 
ATOM     21  C   UNL     1      -0.438   0.269   5.233  0.00  0.00    +0.025 A 
ATOM     22 CL   UNL     1       0.527   0.407   9.105  0.00  0.00    -0.084 Cl
ENDBRANCH  14  16
ENDBRANCH   6  12
BRANCH  11  23
ATOM     23  N   UNL     1      -0.240   0.938  -4.385  0.00  0.00    -0.203 N 
ATOM     24  C   UNL     1      -0.471   2.184  -4.843  0.00  0.00    +0.263 C 
ATOM     25  O   UNL     1      -0.680   3.091  -4.060  0.00  0.00    -0.268 OA
ATOM     26  H   UNL     1      -0.073   0.214  -5.010  0.00  0.00    +0.178 HD
BRANCH  24  27
ATOM     27  C   UNL     1      -0.470   2.449  -6.296  0.00  0.00    +0.038 A 
ATOM     28  C   UNL     1      -0.236   1.406  -7.197  0.00  0.00    +0.014 A 
ATOM     29  C   UNL     1      -0.236   1.654  -8.551  0.00  0.00    +0.009 A 
ATOM     30  C   UNL     1      -0.470   2.945  -9.024  0.00  0.00    -0.018 A 
ATOM     31  C   UNL     1      -0.703   3.987  -8.126  0.00  0.00    +0.009 A 
ATOM     32  C   UNL     1      -0.710   3.740  -6.772  0.00  0.00    +0.014 A 
BRANCH  30  33
ATOM     33  C   UNL     1      -0.469   3.211 -10.483  0.00  0.00    -0.018 A 
ATOM     34  C   UNL     1      -0.241   2.171 -11.383  0.00  0.00    +0.008 A 
ATOM     35  C   UNL     1      -0.242   2.424 -12.740  0.00  0.00    +0.001 A 
ATOM     36  C   UNL     1      -0.469   3.707 -13.207  0.00  0.00    +0.000 A 
ATOM     37  C   UNL     1      -0.695   4.742 -12.318  0.00  0.00    +0.001 A 
ATOM     38  C   UNL     1      -0.703   4.500 -10.959  0.00  0.00    +0.008 A 
ENDBRANCH  30  33
ENDBRANCH  24  27
ENDBRANCH  11  23
TORSDOF 5
