REMARK  Name = ZINC03530693
REMARK  8 active torsions:
REMARK  status: ('A' for Active; 'I' for Inactive)
REMARK    1  A    between atoms: C_1  and  C_2
REMARK    2  A    between atoms: C_5  and  N_8
REMARK    3  A    between atoms: C_9  and  C_11
REMARK    4  A    between atoms: C_11  and  C_13
REMARK    5  A    between atoms: C_11  and  O_19
REMARK    6  A    between atoms: O_19  and  C_20
REMARK    7  A    between atoms: C_20  and  C_22
REMARK    8  A    between atoms: C_25  and  N_27
REMARK                            x       y       z     vdW  Elec       q    Type
REMARK                         _______ _______ _______ _____ _____    ______ ____
ROOT
ATOM      1  C   UNL     1      -4.870   1.794   0.026  0.00  0.00    +0.292 C 
ENDROOT
BRANCH   1   2
ATOM      2  C   UNL     1      -5.332   1.595   1.447  0.00  0.00    +0.002 A 
ATOM      3  C   UNL     1      -5.010   2.526   2.416  0.00  0.00    +0.008 A 
ATOM      4  C   UNL     1      -5.437   2.345   3.718  0.00  0.00    +0.000 A 
ATOM      5  C   UNL     1      -6.179   1.228   4.053  0.00  0.00    +0.000 A 
ATOM      6  C   UNL     1      -6.497   0.294   3.085  0.00  0.00    +0.000 A 
ATOM      7  C   UNL     1      -6.073   0.477   1.782  0.00  0.00    +0.008 A 
ENDBRANCH   1   2
BRANCH   1   9
ATOM      8  N   UNL     1      -7.099   2.490  -0.789  0.00  0.00    -0.282 N 
ATOM      9  C   UNL     1      -5.786   2.768  -0.668  0.00  0.00    +0.263 C 
ATOM     10  O   UNL     1      -5.342   3.804  -1.118  0.00  0.00    -0.271 OA
ATOM     11  H   UNL     1      -7.443   1.633  -0.490  0.00  0.00    +0.155 HD
BRANCH   8  16
ATOM     12  C   UNL     1     -10.618   6.323  -3.049  0.00  0.00    +0.044 C 
ATOM     13  C   UNL     1      -9.683   5.305  -2.449  0.00  0.00    -0.050 A 
ATOM     14  C   UNL     1      -8.389   5.192  -2.923  0.00  0.00    +0.005 A 
ATOM     15  C   UNL     1      -7.530   4.259  -2.375  0.00  0.00    +0.023 A 
ATOM     16  C   UNL     1      -7.967   3.436  -1.346  0.00  0.00    +0.034 A 
ATOM     17  C   UNL     1      -9.268   3.548  -0.875  0.00  0.00    +0.023 A 
ATOM     18  C   UNL     1     -10.121   4.486  -1.424  0.00  0.00    +0.005 A 
ENDBRANCH   8  16
ENDBRANCH   1   9
BRANCH   1  19
ATOM     19  O   UNL     1      -3.516   2.319   0.027  0.00  0.00    -0.441 OA
BRANCH  19  20
ATOM     20  C   UNL     1      -2.510   1.420   0.011  0.00  0.00    +0.376 C 
ATOM     21  O   UNL     1      -2.759   0.230  -0.003  0.00  0.00    -0.241 OA
BRANCH  20  22
ATOM     22  C   UNL     1      -1.119   1.878   0.011  0.00  0.00    +0.214 A 
ATOM     23  C   UNL     1      -0.011   1.079  -0.004  0.00  0.00    +0.059 A 
ATOM     24  C   UNL     1       1.103   1.933  -0.004  0.00  0.00    +0.076 A 
ATOM     25  C   UNL     1       0.632   3.200   0.016  0.00  0.00    +0.280 A 
ATOM     26  O   UNL     1      -0.706   3.162   0.029  0.00  0.00    -0.427 OA
BRANCH  25  27
ATOM     27  N   UNL     1       1.460   4.426   0.023  0.00  0.00    +0.093 N 
ATOM     28  O   UNL     1       2.675   4.341   0.010  0.00  0.00    -0.123 OA
ATOM     29  O   UNL     1       0.927   5.521   0.042  0.00  0.00    -0.123 OA
ENDBRANCH  25  27
ENDBRANCH  20  22
ENDBRANCH  19  20
ENDBRANCH   1  19
TORSDOF 7
