REMARK  Name = ZINC15958632
REMARK  7 active torsions:
REMARK  status: ('A' for Active; 'I' for Inactive)
REMARK    1  A    between atoms: C_1  and  C_2
REMARK    2  A    between atoms: C_2  and  O_3
REMARK    3  A    between atoms: O_3  and  C_4
REMARK    4  A    between atoms: C_4  and  C_6
REMARK    5  A    between atoms: C_9  and  N_12
REMARK    6  A    between atoms: C_17  and  C_35
REMARK    7  A    between atoms: C_35  and  C_36
REMARK                            x       y       z     vdW  Elec       q    Type
REMARK                         _______ _______ _______ _____ _____    ______ ____
ROOT
ATOM      1  N   UNL     1      -6.609  -4.607  -0.381  0.00  0.00    -0.210 N 
ATOM      2  C   UNL     1      -7.652  -3.915   0.092  0.00  0.00    +0.232 C 
ATOM      3  O   UNL     1      -7.588  -2.823   0.616  0.00  0.00    -0.274 OA
ATOM      4  C   UNL     1      -8.921  -4.705  -0.129  0.00  0.00    +0.108 C 
ATOM      5  C   UNL     1      -9.799  -3.979  -1.170  0.00  0.00    +0.076 C 
ATOM      6  N   UNL     1      -9.319  -4.476  -2.487  0.00  0.00    -0.295 NA
ATOM      7  C   UNL     1      -9.040  -5.905  -2.253  0.00  0.00    +0.136 C 
ATOM      8  C   UNL     1      -8.421  -5.997  -0.836  0.00  0.00    +0.123 C 
ATOM      9  C   UNL     1      -6.926  -5.788  -0.925  0.00  0.00    +0.233 C 
ATOM     10  O   UNL     1      -6.137  -6.569  -1.411  0.00  0.00    -0.274 OA
ATOM     11  C   UNL     1      -8.116  -6.466  -3.296  0.00  0.00    +0.005 A 
ATOM     12  C   UNL     1      -6.838  -6.152  -3.699  0.00  0.00    +0.027 A 
ATOM     13  C   UNL     1      -6.234  -6.872  -4.715  0.00  0.00    +0.041 A 
ATOM     14  C   UNL     1      -6.919  -7.908  -5.325  0.00  0.00    +0.022 A 
ATOM     15  C   UNL     1      -8.200  -8.226  -4.925  0.00  0.00    +0.025 A 
ATOM     16  C   UNL     1      -8.815  -7.506  -3.903  0.00  0.00    +0.039 A 
ATOM     17  N   UNL     1     -10.082  -7.636  -3.330  0.00  0.00    -0.283 N 
ATOM     18  C   UNL     1     -10.292  -6.733  -2.353  0.00  0.00    +0.243 C 
ATOM     19  O   UNL     1     -11.296  -6.610  -1.683  0.00  0.00    -0.273 OA
ATOM     20 CL   UNL     1      -4.622  -6.475  -5.225  0.00  0.00    -0.084 Cl
ATOM     21  H   UNL     1     -10.027  -4.357  -3.197  0.00  0.00    +0.124 HD
ATOM     22  H   UNL     1     -10.735  -8.299  -3.604  0.00  0.00    +0.155 HD
ENDROOT
BRANCH   1  26
ATOM     23  C   UNL     1      -2.692  -3.193  -0.188  0.00  0.00    +0.059 A 
ATOM     24  C   UNL     1      -3.629  -2.551  -1.002  0.00  0.00    +0.017 A 
ATOM     25  C   UNL     1      -4.922  -3.021  -1.063  0.00  0.00    +0.025 A 
ATOM     26  C   UNL     1      -5.295  -4.133  -0.316  0.00  0.00    +0.044 A 
ATOM     27  C   UNL     1      -4.365  -4.775   0.495  0.00  0.00    +0.025 A 
ATOM     28  C   UNL     1      -3.069  -4.314   0.557  0.00  0.00    +0.017 A 
BRANCH  23  29
ATOM     29  C   UNL     1      -1.306  -2.693  -0.120  0.00  0.00    +0.339 C 
ATOM     30  O   UNL     1      -0.491  -3.255   0.584  0.00  0.00    -0.245 OA
BRANCH  29  31
ATOM     31  O   UNL     1      -0.944  -1.612  -0.839  0.00  0.00    -0.461 OA
BRANCH  31  33
ATOM     32  C   UNL     1       0.636   0.048  -1.607  0.00  0.00    +0.048 C 
ATOM     33  C   UNL     1       0.415  -1.183  -0.725  0.00  0.00    +0.229 C 
ENDBRANCH  31  33
ENDBRANCH  29  31
ENDBRANCH  23  29
ENDBRANCH   1  26
BRANCH   5  34
ATOM     34  C   UNL     1     -11.272  -4.339  -0.967  0.00  0.00    +0.115 C 
BRANCH  34  35
ATOM     35  C   UNL     1     -11.915  -3.327  -0.054  0.00  0.00    +0.212 C 
ATOM     36  O   UNL     1     -11.259  -2.409   0.391  0.00  0.00    -0.276 OA
ATOM     37  N   UNL     1     -13.218  -3.442   0.269  0.00  0.00    -0.329 N 
ATOM     38  H   UNL     1     -13.743  -4.177  -0.087  0.00  0.00    +0.145 HD
ATOM     39  H   UNL     1     -13.632  -2.791   0.857  0.00  0.00    +0.145 HD
ENDBRANCH  34  35
ENDBRANCH   5  34
TORSDOF 6
