REMARK  Name = ZINC67529814
REMARK  4 active torsions:
REMARK  status: ('A' for Active; 'I' for Inactive)
REMARK    1  A    between atoms: C_1  and  C_2
REMARK    2  A    between atoms: N_4  and  C_5
REMARK    3  A    between atoms: C_5  and  C_6
REMARK    4  A    between atoms: C_19  and  C_21
REMARK                            x       y       z     vdW  Elec       q    Type
REMARK                         _______ _______ _______ _____ _____    ______ ____
ROOT
ATOM      1  C   UNL     1       0.017  -2.636  -2.624  0.00  0.00    +0.024 C 
ATOM      2  C   UNL     1       0.163  -4.160  -2.635  0.00  0.00    +0.008 C 
ATOM      3  C   UNL     1       0.188  -4.660  -4.082  0.00  0.00    +0.019 C 
ATOM      4  C   UNL     1      -1.132  -4.296  -4.767  0.00  0.00    +0.109 C 
ATOM      5  N   UNL     1      -1.351  -2.849  -4.633  0.00  0.00    -0.285 N 
ATOM      6  C   UNL     1      -1.306  -2.248  -3.293  0.00  0.00    +0.114 C 
ATOM      7  C   UNL     1      -1.590  -2.087  -5.719  0.00  0.00    +0.308 C 
ATOM      8  O   UNL     1      -1.860  -0.909  -5.587  0.00  0.00    -0.252 OA
ATOM      9  N   UNL     1      -1.529  -2.631  -6.950  0.00  0.00    -0.247 N 
ATOM     10  C   UNL     1      -1.670  -1.825  -8.074  0.00  0.00    +0.189 A 
ATOM     11  N   UNL     1      -1.861  -0.522  -8.145  0.00  0.00    -0.126 NA
ATOM     12  N   UNL     1      -1.971   0.078  -9.251  0.00  0.00    -0.144 NA
ATOM     13  C   UNL     1      -1.891  -0.617 -10.368  0.00  0.00    +0.107 A 
ATOM     14  S   UNL     1      -1.632  -2.256  -9.704  0.00  0.00    -0.035 S 
ATOM     15  H   UNL     1      -1.386  -3.585  -7.053  0.00  0.00    +0.158 HD
ENDROOT
BRANCH  13  16
ATOM     16  C   UNL     1      -1.988  -0.158 -11.800  0.00  0.00    +0.047 C 
ATOM     17  C   UNL     1      -2.008   1.349 -12.060  0.00  0.00    +0.011 C 
ATOM     18  C   UNL     1      -3.285   0.525 -12.238  0.00  0.00    +0.011 C 
ENDBRANCH  13  16
BRANCH   1  19
ATOM     19  C   UNL     1       0.025  -2.134  -1.179  0.00  0.00    +0.109 C 
BRANCH  19  23
ATOM     20  C   UNL     1      -0.016   1.506   0.008  0.00  0.00    +0.109 C 
ATOM     21  C   UNL     1       0.006  -0.001   0.000  0.00  0.00    +0.210 C 
ATOM     22  O   UNL     1       0.026  -0.613   1.047  0.00  0.00    -0.276 OA
ATOM     23  N   UNL     1       0.003  -0.669  -1.171  0.00  0.00    -0.315 N 
ATOM     24  H   UNL     1      -0.013  -0.180  -2.008  0.00  0.00    +0.149 HD
ENDBRANCH  19  23
ENDBRANCH   1  19
TORSDOF 3
