REMARK  Name = ZINC07010880
REMARK  6 active torsions:
REMARK  status: ('A' for Active; 'I' for Inactive)
REMARK    1  A    between atoms: C_1  and  C_2
REMARK    2  A    between atoms: C_5  and  C_13
REMARK    3  A    between atoms: C_6  and  C_7
REMARK    4  A    between atoms: C_6  and  C_8
REMARK    5  A    between atoms: N_15  and  N_16
REMARK    6  A    between atoms: C_17  and  C_19
REMARK                            x       y       z     vdW  Elec       q    Type
REMARK                         _______ _______ _______ _____ _____    ______ ____
ROOT
ATOM      1  C   UNL     1       1.025  -3.268   1.579  0.00  0.00    +0.243 C 
ATOM      2  O   UNL     1       1.638  -2.997   2.590  0.00  0.00    -0.273 OA
ATOM      3  N   UNL     1       0.835  -4.556   1.232  0.00  0.00    -0.233 N 
ATOM      4  H   UNL     1       0.345  -4.773   0.423  0.00  0.00    +0.173 HD
ENDROOT
BRANCH   1   9
ATOM      5  C   UNL     1      -0.019   1.526   0.010  0.00  0.00    +0.020 C 
ATOM      6  C   UNL     1       0.002  -0.004   0.002  0.00  0.00    +0.040 C 
ATOM      7  C   UNL     1      -1.389  -0.707   0.058  0.00  0.00    +0.016 C 
ATOM      8  C   UNL     1      -1.075  -2.146   0.531  0.00  0.00    +0.026 C 
ATOM      9  C   UNL     1       0.474  -2.165   0.713  0.00  0.00    +0.120 C 
ATOM     10  C   UNL     1       0.727  -0.697   1.210  0.00  0.00    -0.001 C 
ATOM     11  C   UNL     1       0.018  -0.427   2.539  0.00  0.00    +0.013 C 
ATOM     12  C   UNL     1       2.213  -0.339   1.274  0.00  0.00    +0.013 C 
ATOM     13  C   UNL     1       1.027  -2.072  -0.717  0.00  0.00    +0.214 C 
ATOM     14  O   UNL     1       1.589  -2.940  -1.341  0.00  0.00    -0.288 OA
ATOM     15  C   UNL     1       0.736  -0.661  -1.176  0.00  0.00    +0.206 C 
ATOM     16  O   UNL     1       1.002  -0.161  -2.243  0.00  0.00    -0.288 OA
ENDBRANCH   1   9
BRANCH   3  17
ATOM     17  N   UNL     1       1.347  -5.582   2.038  0.00  0.00    -0.228 N 
ATOM     18  C   UNL     1       1.157  -6.870   1.690  0.00  0.00    +0.295 C 
ATOM     19  O   UNL     1       0.542  -7.142   0.676  0.00  0.00    -0.265 OA
ATOM     20  H   UNL     1       1.837  -5.365   2.846  0.00  0.00    +0.173 HD
BRANCH  18  21
ATOM     21  C   UNL     1       1.692  -7.944   2.533  0.00  0.00    +0.190 A 
ATOM     22  C   UNL     1       1.578  -9.283   2.296  0.00  0.00    +0.054 A 
ATOM     23  C   UNL     1       2.232  -9.938   3.351  0.00  0.00    +0.042 A 
ATOM     24  C   UNL     1       2.712  -8.981   4.176  0.00  0.00    +0.196 A 
ATOM     25  O   UNL     1       2.390  -7.780   3.677  0.00  0.00    -0.458 OA
ENDBRANCH  18  21
ENDBRANCH   3  17
TORSDOF 3
