REMARK  Name = ZINC15000134
REMARK  9 active torsions:
REMARK  status: ('A' for Active; 'I' for Inactive)
REMARK    1  A    between atoms: C_1  and  N_2
REMARK    2  A    between atoms: N_2  and  C_3
REMARK    3  A    between atoms: N_2  and  S_4
REMARK    4  A    between atoms: S_4  and  N_7
REMARK    5  A    between atoms: N_7  and  C_8
REMARK    6  A    between atoms: C_11  and  N_14
REMARK    7  A    between atoms: C_17  and  N_67
REMARK    8  A    between atoms: C_20  and  C_21
REMARK    9  A    between atoms: C_20  and  N_67
REMARK                            x       y       z     vdW  Elec       q    Type
REMARK                         _______ _______ _______ _____ _____    ______ ____
ROOT
ATOM      1  N   UNL     1      -2.838   1.513   0.040  0.00  0.00    -0.330 N 
ATOM      2  C   UNL     1      -2.216   1.060  -1.210  0.00  0.00    +0.103 C 
ATOM      3  C   UNL     1      -0.756   1.520  -1.251  0.00  0.00    +0.003 C 
ATOM      4  C   UNL     1      -0.009   0.938  -0.048  0.00  0.00    -0.069 C 
ATOM      5  C   UNL     1      -0.705   1.386   1.241  0.00  0.00    +0.003 C 
ATOM      6  C   UNL     1      -2.167   0.930   1.209  0.00  0.00    +0.103 C 
ENDROOT
BRANCH   1  10
ATOM      7  C   UNL     1      -6.917   0.653   0.077  0.00  0.00    +0.049 A 
ATOM      8  C   UNL     1      -6.332   1.289   1.164  0.00  0.00    +0.026 A 
ATOM      9  C   UNL     1      -4.981   1.574   1.151  0.00  0.00    +0.025 A 
ATOM     10  C   UNL     1      -4.208   1.224   0.052  0.00  0.00    +0.030 A 
ATOM     11  C   UNL     1      -4.794   0.594  -1.037  0.00  0.00    +0.025 A 
ATOM     12  C   UNL     1      -6.144   0.304  -1.022  0.00  0.00    +0.026 A 
BRANCH   7  13
ATOM     13  N   UNL     1      -8.287   0.363   0.089  0.00  0.00    -0.206 N 
ATOM     14  H   UNL     1      -8.691  -0.038   0.875  0.00  0.00    +0.175 HD
BRANCH  13  15
ATOM     15  S   UNL     1      -9.218   0.706  -1.237  0.00  0.00    +0.111 S 
ATOM     16  O   UNL     1      -8.573   0.106  -2.352  0.00  0.00    -0.138 OA
ATOM     17  O   UNL     1     -10.560   0.404  -0.880  0.00  0.00    -0.138 OA
BRANCH  15  19
ATOM     18  C   UNL     1      -8.184   2.906  -2.422  0.00  0.00    +0.132 C 
ATOM     19  N   UNL     1      -9.148   2.343  -1.474  0.00  0.00    -0.170 NA
ATOM     20  C   UNL     1     -10.051   3.230  -0.736  0.00  0.00    +0.132 C 
ENDBRANCH  15  19
ENDBRANCH  13  15
ENDBRANCH   7  13
ENDBRANCH   1  10
BRANCH   4  21
ATOM     21  N   UNL     1       1.381   1.431  -0.055  0.00  0.00    +0.381 N 
ATOM     22  H   UNL     1       1.417   2.350   0.401  0.00  0.00    -0.086 HD
ATOM     23  H   UNL     1       1.705   1.518  -1.026  0.00  0.00    -0.086 HD
BRANCH  21  24
ATOM     24  C   UNL     1       2.260   0.494   0.669  0.00  0.00    -0.077 C 
BRANCH  24  25
ATOM     25  C   UNL     1       3.693   1.031   0.645  0.00  0.00    -0.011 C 
ATOM     26  C   UNL     1       4.634   0.006   1.285  0.00  0.00    +0.005 C 
ATOM     27  C   UNL     1       6.055   0.575   1.311  0.00  0.00    +0.019 C 
ATOM     28  C   UNL     1       6.055   1.899   2.080  0.00  0.00    +0.108 C 
ATOM     29  N   UNL     1       5.141   2.845   1.428  0.00  0.00    -0.299 N 
ATOM     30  C   UNL     1       3.761   2.341   1.433  0.00  0.00    +0.109 C 
ATOM     31  C   UNL     1       5.214   4.094   2.020  0.00  0.00    +0.218 A 
ATOM     32  N   UNL     1       5.505   5.148   1.272  0.00  0.00    -0.223 NA
ATOM     33  C   UNL     1       5.578   6.356   1.806  0.00  0.00    +0.116 A 
ATOM     34  C   UNL     1       5.357   6.509   3.166  0.00  0.00    +0.039 A 
ATOM     35  C   UNL     1       5.060   5.384   3.919  0.00  0.00    +0.116 A 
ATOM     36  N   UNL     1       4.998   4.206   3.322  0.00  0.00    -0.223 NA
ENDBRANCH  24  25
ENDBRANCH  21  24
ENDBRANCH   4  21
TORSDOF 7
