REMARK  Name = ZINC13730704
REMARK  8 active torsions:
REMARK  status: ('A' for Active; 'I' for Inactive)
REMARK    1  A    between atoms: C_3  and  N_24
REMARK    2  A    between atoms: C_6  and  N_7
REMARK    3  A    between atoms: N_7  and  C_8
REMARK    4  A    between atoms: C_8  and  C_9
REMARK    5  A    between atoms: C_9  and  N_43
REMARK    6  A    between atoms: C_10  and  C_11
REMARK    7  A    between atoms: C_10  and  N_43
REMARK    8  A    between atoms: C_14  and  C_16
REMARK                            x       y       z     vdW  Elec       q    Type
REMARK                         _______ _______ _______ _____ _____    ______ ____
ROOT
ATOM      1  N   UNL     1       3.556  -5.006  -0.058  0.00  0.00    +0.385 N 
ATOM      2  H   UNL     1       4.095  -4.747   0.777  0.00  0.00    -0.085 HD
ATOM      3  H   UNL     1       4.079  -4.738  -0.900  0.00  0.00    -0.085 HD
ENDROOT
BRANCH   1   4
ATOM      4  C   UNL     1       2.263  -4.298  -0.042  0.00  0.00    -0.063 C 
BRANCH   4   5
ATOM      5  C   UNL     1       2.518  -2.789  -0.036  0.00  0.00    +0.082 C 
BRANCH   5   6
ATOM      6  N   UNL     1       1.238  -2.077  -0.020  0.00  0.00    -0.346 N 
ATOM      7  H   UNL     1       0.406  -2.576  -0.015  0.00  0.00    +0.146 HD
BRANCH   6  13
ATOM      8  C   UNL     1       0.002  -0.004   0.002  0.00  0.00    +0.025 A 
ATOM      9  C   UNL     1      -0.017   1.377   0.010  0.00  0.00    +0.034 A 
ATOM     10  C   UNL     1       1.171   2.086   0.002  0.00  0.00    +0.126 A 
ATOM     11  C   UNL     1       2.380   1.416  -0.013  0.00  0.00    +0.034 A 
ATOM     12  C   UNL     1       2.406   0.035  -0.021  0.00  0.00    +0.025 A 
ATOM     13  C   UNL     1       1.215  -0.681  -0.013  0.00  0.00    +0.027 A 
BRANCH  10  14
ATOM     14  N   UNL     1       1.147   3.566   0.010  0.00  0.00    +0.056 N 
ATOM     15  O   UNL     1       0.082   4.158   0.024  0.00  0.00    -0.126 OA
ATOM     16  O   UNL     1       2.191   4.192   0.004  0.00  0.00    -0.126 OA
ENDBRANCH  10  14
ENDBRANCH   6  13
ENDBRANCH   5   6
ENDBRANCH   4   5
ENDBRANCH   1   4
BRANCH   1  17
ATOM     17  C   UNL     1       3.341  -6.466  -0.063  0.00  0.00    -0.007 C 
BRANCH  17  18
ATOM     18  C   UNL     1       4.677  -7.162  -0.080  0.00  0.00    +0.089 A 
ATOM     19  C   UNL     1       5.386  -7.526   1.006  0.00  0.00    +0.043 A 
ATOM     20  C   UNL     1       6.563  -8.147   0.542  0.00  0.00    +0.050 A 
ATOM     21  C   UNL     1       6.511  -8.119  -0.817  0.00  0.00    +0.136 A 
ATOM     22  O   UNL     1       5.361  -7.519  -1.179  0.00  0.00    -0.462 OA
BRANCH  21  23
ATOM     23  C   UNL     1       7.537  -8.653  -1.736  0.00  0.00    +0.031 A 
ATOM     24  C   UNL     1       8.878  -8.306  -1.567  0.00  0.00    +0.014 A 
ATOM     25  C   UNL     1       9.832  -8.812  -2.425  0.00  0.00    +0.016 A 
ATOM     26  C   UNL     1       9.461  -9.656  -3.458  0.00  0.00    +0.019 A 
ATOM     27  C   UNL     1       8.132 -10.001  -3.635  0.00  0.00    +0.031 A 
ATOM     28  C   UNL     1       7.168  -9.505  -2.780  0.00  0.00    +0.030 A 
ATOM     29 BR   UNL     1       5.353  -9.976  -3.022  0.00  0.00    -0.050 Br
ATOM     30 BR   UNL     1      10.775 -10.340  -4.634  0.00  0.00    -0.050 Br
ENDBRANCH  21  23
ENDBRANCH  17  18
ENDBRANCH   1  17
TORSDOF 8
