REMARK  Name = ZINC36848953
REMARK  11 active torsions:
REMARK  status: ('A' for Active; 'I' for Inactive)
REMARK    1  A    between atoms: C_1  and  C_2
REMARK    2  A    between atoms: C_4  and  C_17
REMARK    3  A    between atoms: C_5  and  C_16
REMARK    4  A    between atoms: N_6  and  N_7
REMARK    5  A    between atoms: C_8  and  C_10
REMARK    6  A    between atoms: C_17  and  C_19
REMARK    7  A    between atoms: C_19  and  S_20
REMARK    8  A    between atoms: S_20  and  C_21
REMARK    9  A    between atoms: C_24  and  C_29
REMARK   10  A    between atoms: N_25  and  C_26
REMARK   11  A    between atoms: C_26  and  C_27
REMARK                            x       y       z     vdW  Elec       q    Type
REMARK                         _______ _______ _______ _____ _____    ______ ____
ROOT
ATOM      1  C   UNL     1       1.091   1.326   0.086  0.00  0.00    +0.065 C 
ATOM      2  C   UNL     1       0.514  -0.065   0.050  0.00  0.00    +0.037 A 
ATOM      3  C   UNL     1       0.514  -0.881  -1.018  0.00  0.00    +0.036 A 
ATOM      4  C   UNL     1      -0.147  -2.121  -0.591  0.00  0.00    +0.041 A 
ATOM      5  C   UNL     1      -0.494  -1.928   0.733  0.00  0.00    +0.047 A 
ATOM      6  N   UNL     1      -0.087  -0.700   1.099  0.00  0.00    -0.267 N 
ATOM      7  C   UNL     1      -1.201  -2.925   1.616  0.00  0.00    +0.066 C 
ENDROOT
BRANCH   6   8
ATOM      8  N   UNL     1      -0.259  -0.147   2.375  0.00  0.00    -0.219 N 
ATOM      9  C   UNL     1       0.214  -0.795   3.458  0.00  0.00    +0.262 C 
ATOM     10  O   UNL     1       0.691  -1.907   3.341  0.00  0.00    -0.268 OA
ATOM     11  H   UNL     1      -0.718   0.701   2.478  0.00  0.00    +0.176 HD
BRANCH   9  12
ATOM     12  C   UNL     1       0.150  -0.153   4.789  0.00  0.00    +0.038 A 
ATOM     13  C   UNL     1      -0.403   1.121   4.927  0.00  0.00    +0.013 A 
ATOM     14  C   UNL     1      -0.459   1.714   6.171  0.00  0.00    +0.001 A 
ATOM     15  C   UNL     1       0.032   1.048   7.281  0.00  0.00    +0.000 A 
ATOM     16  C   UNL     1       0.582  -0.214   7.150  0.00  0.00    +0.001 A 
ATOM     17  C   UNL     1       0.639  -0.821   5.913  0.00  0.00    +0.013 A 
ENDBRANCH   9  12
ENDBRANCH   6   8
BRANCH   4  18
ATOM     18  C   UNL     1      -0.391  -3.316  -1.402  0.00  0.00    +0.175 C 
ATOM     19  O   UNL     1      -0.953  -4.275  -0.916  0.00  0.00    -0.291 OA
BRANCH  18  20
ATOM     20  C   UNL     1       0.058  -3.355  -2.840  0.00  0.00    +0.157 C 
BRANCH  20  21
ATOM     21  S   UNL     1      -0.384  -4.956  -3.568  0.00  0.00    -0.078 S 
BRANCH  21  22
ATOM     22  C   UNL     1       0.200  -4.845  -5.228  0.00  0.00    +0.192 A 
ATOM     23  N   UNL     1       0.815  -3.821  -5.772  0.00  0.00    -0.122 NA
ATOM     24  N   UNL     1       1.099  -4.083  -6.998  0.00  0.00    -0.134 NA
ATOM     25  C   UNL     1       0.684  -5.280  -7.306  0.00  0.00    +0.131 A 
ATOM     26  N   UNL     1       0.102  -5.810  -6.189  0.00  0.00    -0.302 N 
ATOM     27  C   UNL     1       0.827  -5.956  -8.646  0.00  0.00    +0.088 C 
BRANCH  26  28
ATOM     28  C   UNL     1      -0.503  -7.137  -6.051  0.00  0.00    +0.152 C 
BRANCH  28  29
ATOM     29  C   UNL     1      -1.965  -7.062  -6.411  0.00  0.00    -0.013 C 
ATOM     30  C   UNL     1      -2.454  -7.852  -7.334  0.00  0.00    +0.005 C 
ENDBRANCH  28  29
ENDBRANCH  26  28
ENDBRANCH  21  22
ENDBRANCH  20  21
ENDBRANCH  18  20
ENDBRANCH   4  18
TORSDOF 8
