REMARK  Name = ZINC33026077
REMARK  12 active torsions:
REMARK  status: ('A' for Active; 'I' for Inactive)
REMARK    1  A    between atoms: C_1  and  C_2
REMARK    2  A    between atoms: C_6  and  N_9
REMARK    3  A    between atoms: C_7  and  C_8
REMARK    4  A    between atoms: N_9  and  S_10
REMARK    5  A    between atoms: S_10  and  C_13
REMARK    6  A    between atoms: C_16  and  C_19
REMARK    7  A    between atoms: N_21  and  C_22
REMARK    8  A    between atoms: C_22  and  C_23
REMARK    9  A    between atoms: C_23  and  C_25
REMARK   10  A    between atoms: C_23  and  N_33
REMARK   11  A    between atoms: C_28  and  O_31
REMARK   12  A    between atoms: O_31  and  C_32
REMARK                            x       y       z     vdW  Elec       q    Type
REMARK                         _______ _______ _______ _____ _____    ______ ____
ROOT
ATOM      1  C   UNL     1       4.639   0.946   0.016  0.00  0.00    +0.244 C 
ATOM      2  O   UNL     1       4.870  -0.161  -0.431  0.00  0.00    -0.270 OA
ATOM      3  N   UNL     1       5.610   1.880   0.039  0.00  0.00    -0.310 N 
ATOM      4  H   UNL     1       5.401   2.881   0.443  0.00  0.00    +0.149 HD
ENDROOT
BRANCH   1   8
ATOM      5  C   UNL     1       0.770   1.868   1.509  0.00  0.00    +0.109 A 
ATOM      6  C   UNL     1       1.765   2.829   1.533  0.00  0.00    +0.029 A 
ATOM      7  C   UNL     1       3.023   2.536   1.050  0.00  0.00    +0.015 A 
ATOM      8  C   UNL     1       3.292   1.267   0.535  0.00  0.00    +0.037 A 
ATOM      9  C   UNL     1       2.284   0.301   0.514  0.00  0.00    +0.015 A 
ATOM     10  C   UNL     1       1.030   0.607   1.000  0.00  0.00    +0.029 A 
BRANCH   5  11
ATOM     11  S   UNL     1      -0.836   2.252   2.121  0.00  0.00    +0.072 S 
ATOM     12  O   UNL     1      -0.975   3.664   2.040  0.00  0.00    -0.150 OA
ATOM     13  O   UNL     1      -1.739   1.360   1.482  0.00  0.00    -0.150 OA
BRANCH  11  14
ATOM     14  N   UNL     1      -0.852   1.867   3.732  0.00  0.00    -0.216 N 
ATOM     15  H   UNL     1      -1.563   1.118   4.111  0.00  0.00    +0.174 HD
BRANCH  14  21
ATOM     16  C   UNL     1       1.922   1.688   7.785  0.00  0.00    +0.044 C 
ATOM     17  C   UNL     1       1.399   2.429   6.582  0.00  0.00    -0.046 A 
ATOM     18  C   UNL     1       1.801   3.731   6.344  0.00  0.00    +0.004 A 
ATOM     19  C   UNL     1       1.324   4.415   5.241  0.00  0.00    +0.002 A 
ATOM     20  C   UNL     1       0.444   3.799   4.372  0.00  0.00    +0.025 A 
ATOM     21  C   UNL     1       0.038   2.492   4.608  0.00  0.00    +0.051 A 
ATOM     22  C   UNL     1       0.515   1.810   5.720  0.00  0.00    -0.025 A 
ATOM     23  C   UNL     1       0.073   0.393   5.983  0.00  0.00    +0.046 C 
ENDBRANCH  14  21
ENDBRANCH  11  14
ENDBRANCH   5  11
ENDBRANCH   1   8
BRANCH   3  24
ATOM     24  C   UNL     1       6.944   1.562  -0.476  0.00  0.00    +0.128 C 
BRANCH  24  25
ATOM     25  C   UNL     1       7.802   2.829  -0.486  0.00  0.00    +0.104 C 
BRANCH  25  26
ATOM     26  C   UNL     1       9.197   2.487  -0.943  0.00  0.00    -0.029 A 
ATOM     27  C   UNL     1       9.444   2.239  -2.281  0.00  0.00    +0.009 A 
ATOM     28  C   UNL     1      10.722   1.931  -2.703  0.00  0.00    +0.046 A 
ATOM     29  C   UNL     1      11.757   1.860  -1.782  0.00  0.00    +0.120 A 
ATOM     30  C   UNL     1      11.506   2.104  -0.440  0.00  0.00    +0.046 A 
ATOM     31  C   UNL     1      10.227   2.417  -0.023  0.00  0.00    +0.009 A 
BRANCH  29  32
ATOM     32  O   UNL     1      13.015   1.551  -2.194  0.00  0.00    -0.495 OA
ATOM     33  C   UNL     1      13.200   1.312  -3.591  0.00  0.00    +0.277 C 
ENDBRANCH  29  32
ENDBRANCH  25  26
BRANCH  25  34
ATOM     34  N   UNL     1       7.213   3.812  -1.405  0.00  0.00    -0.290 NA
ATOM     35  C   UNL     1       6.358   4.763  -0.680  0.00  0.00    +0.113 C 
ATOM     36  C   UNL     1       5.813   5.803  -1.663  0.00  0.00    +0.175 C 
ATOM     37  O   UNL     1       5.111   5.135  -2.715  0.00  0.00    -0.377 OA
ATOM     38  C   UNL     1       5.914   4.202  -3.442  0.00  0.00    +0.175 C 
ATOM     39  C   UNL     1       6.459   3.146  -2.477  0.00  0.00    +0.113 C 
ENDBRANCH  25  34
ENDBRANCH  24  25
ENDBRANCH   3  24
TORSDOF 9
