REMARK  Name = ZINC26753227
REMARK  13 active torsions:
REMARK  status: ('A' for Active; 'I' for Inactive)
REMARK    1  A    between atoms: C_1  and  C_2
REMARK    2  A    between atoms: C_2  and  N_3
REMARK    3  A    between atoms: N_3  and  C_4
REMARK    4  A    between atoms: N_3  and  S_6
REMARK    5  A    between atoms: C_4  and  C_5
REMARK    6  A    between atoms: S_6  and  C_9
REMARK    7  A    between atoms: C_13  and  C_15
REMARK    8  A    between atoms: N_17  and  C_18
REMARK    9  A    between atoms: C_18  and  C_20
REMARK   10  A    between atoms: C_18  and  C_24
REMARK   11  A    between atoms: C_20  and  C_21
REMARK   12  A    between atoms: C_21  and  S_22
REMARK   13  A    between atoms: S_22  and  C_23
REMARK                            x       y       z     vdW  Elec       q    Type
REMARK                         _______ _______ _______ _____ _____    ______ ____
ROOT
ATOM      1  C   UNL     1       2.418   3.943   0.000  0.00  0.00    +0.247 C 
ATOM      2  O   UNL     1       3.482   3.356  -0.012  0.00  0.00    -0.270 OA
ATOM      3  N   UNL     1       2.392   5.291   0.007  0.00  0.00    -0.301 N 
ATOM      4  H   UNL     1       1.429   5.822   0.018  0.00  0.00    +0.150 HD
ENDROOT
BRANCH   1   9
ATOM      5  C   UNL     1      -1.248   3.134   0.030  0.00  0.00    +0.106 A 
ATOM      6  C   UNL     1      -1.219   1.749   0.017  0.00  0.00    +0.031 A 
ATOM      7  C   UNL     1      -0.013   1.076   0.008  0.00  0.00    +0.041 A 
ATOM      8  C   UNL     1       1.177   1.782   0.000  0.00  0.00    +0.136 A 
ATOM      9  C   UNL     1       1.154   3.180   0.008  0.00  0.00    +0.074 A 
ATOM     10  C   UNL     1      -0.071   3.852   0.022  0.00  0.00    +0.044 A 
ATOM     11  F   UNL     1       2.356   1.124  -0.013  0.00  0.00    -0.205 F 
BRANCH   5  12
ATOM     12  S   UNL     1      -2.793   3.980   0.049  0.00  0.00    +0.061 S 
ATOM     13  O   UNL     1      -3.742   3.080   0.604  0.00  0.00    -0.153 OA
ATOM     14  O   UNL     1      -2.546   5.264   0.605  0.00  0.00    -0.153 OA
BRANCH  12  15
ATOM     15  N   UNL     1      -3.237   4.224  -1.527  0.00  0.00    -0.177 NA
BRANCH  15  17
ATOM     16  C   UNL     1      -5.523   3.597  -2.131  0.00  0.00    +0.022 C 
ATOM     17  C   UNL     1      -4.044   3.219  -2.225  0.00  0.00    +0.106 C 
ENDBRANCH  15  17
BRANCH  15  18
ATOM     18  C   UNL     1      -2.825   5.444  -2.224  0.00  0.00    +0.106 C 
ATOM     19  C   UNL     1      -1.540   5.173  -3.011  0.00  0.00    +0.022 C 
ENDBRANCH  15  18
ENDBRANCH  12  15
ENDBRANCH   5  12
ENDBRANCH   1   9
BRANCH   3  20
ATOM     20  C   UNL     1       3.646   6.048  -0.000  0.00  0.00    +0.140 C 
BRANCH  20  21
ATOM     21  C   UNL     1       3.406   7.413  -0.592  0.00  0.00    +0.129 A 
ATOM     22  N   UNL     1       3.953   7.867  -1.752  0.00  0.00    -0.340 N 
ATOM     23  H   UNL     1       4.628   7.221  -2.331  0.00  0.00    +0.167 HD
ATOM     24  C   UNL     1       3.489   9.152  -1.948  0.00  0.00    +0.066 A 
ATOM     25  C   UNL     1       3.687  10.111  -2.933  0.00  0.00    +0.028 A 
ATOM     26  C   UNL     1       3.062  11.336  -2.828  0.00  0.00    +0.002 A 
ATOM     27  C   UNL     1       2.240  11.616  -1.746  0.00  0.00    +0.002 A 
ATOM     28  C   UNL     1       2.033  10.684  -0.768  0.00  0.00    +0.030 A 
ATOM     29  C   UNL     1       2.655   9.436  -0.854  0.00  0.00    +0.089 A 
ATOM     30  N   UNL     1       2.649   8.331  -0.065  0.00  0.00    -0.231 NA
ENDBRANCH  20  21
BRANCH  20  31
ATOM     31  C   UNL     1       4.161   6.197   1.433  0.00  0.00    +0.041 C 
BRANCH  31  32
ATOM     32  C   UNL     1       4.523   4.818   1.990  0.00  0.00    +0.071 C 
BRANCH  32  33
ATOM     33  S   UNL     1       5.133   4.995   3.690  0.00  0.00    -0.164 S 
ATOM     34  C   UNL     1       5.513   3.295   4.198  0.00  0.00    +0.084 C 
ENDBRANCH  32  33
ENDBRANCH  31  32
ENDBRANCH  20  31
ENDBRANCH   3  20
TORSDOF 10
