REMARK  Name = ZINC25401297
REMARK  10 active torsions:
REMARK  status: ('A' for Active; 'I' for Inactive)
REMARK    1  A    between atoms: C_1  and  C_2
REMARK    2  A    between atoms: C_5  and  N_9
REMARK    3  A    between atoms: C_6  and  O_8
REMARK    4  A    between atoms: C_10  and  C_12
REMARK    5  A    between atoms: C_12  and  C_14
REMARK    6  A    between atoms: C_12  and  N_17
REMARK    7  A    between atoms: C_14  and  C_15
REMARK    8  A    between atoms: C_14  and  C_16
REMARK    9  A    between atoms: N_17  and  S_18
REMARK   10  A    between atoms: S_18  and  C_21
REMARK                            x       y       z     vdW  Elec       q    Type
REMARK                         _______ _______ _______ _____ _____    ______ ____
ROOT
ATOM      1  C   UNL     1      -0.147   7.404  -2.325  0.00  0.00    +0.165 C 
ENDROOT
BRANCH   1   3
ATOM      2  N   UNL     1      -0.638   6.706  -4.647  0.00  0.00    -0.281 N 
ATOM      3  C   UNL     1       0.285   6.959  -3.698  0.00  0.00    +0.236 C 
ATOM      4  O   UNL     1       1.465   6.827  -3.950  0.00  0.00    -0.274 OA
ATOM      5  H   UNL     1      -1.698   6.933  -4.457  0.00  0.00    +0.155 HD
BRANCH   2  10
ATOM      6  C   UNL     1       0.943   4.471  -9.621  0.00  0.00    +0.044 C 
ATOM      7  C   UNL     1       0.522   5.065  -8.302  0.00  0.00    -0.047 A 
ATOM      8  C   UNL     1       1.363   4.983  -7.208  0.00  0.00    +0.005 A 
ATOM      9  C   UNL     1       0.982   5.526  -5.996  0.00  0.00    +0.027 A 
ATOM     10  C   UNL     1      -0.249   6.155  -5.875  0.00  0.00    +0.075 A 
ATOM     11  C   UNL     1      -1.099   6.233  -6.976  0.00  0.00    +0.138 A 
ATOM     12  C   UNL     1      -0.706   5.691  -8.189  0.00  0.00    +0.050 A 
BRANCH  11  13
ATOM     13  O   UNL     1      -2.308   6.843  -6.861  0.00  0.00    -0.505 OA
ATOM     14  H   UNL     1      -2.978   6.903  -7.732  0.00  0.00    +0.292 HD
ENDBRANCH  11  13
ENDBRANCH   2  10
ENDBRANCH   1   3
BRANCH   1  15
ATOM     15  C   UNL     1      -0.503   8.892  -2.360  0.00  0.00    +0.010 C 
ATOM     16  C   UNL     1      -1.028   9.322  -0.989  0.00  0.00    +0.009 C 
ATOM     17  C   UNL     1       0.745   9.706  -2.707  0.00  0.00    +0.009 C 
ENDBRANCH   1  15
BRANCH   1  18
ATOM     18  N   UNL     1       0.946   7.185  -1.374  0.00  0.00    -0.178 NA
ATOM     19  H   UNL     1       1.945   7.597  -1.580  0.00  0.00    +0.149 HD
BRANCH  18  20
ATOM     20  S   UNL     1       0.752   6.121  -0.120  0.00  0.00    +0.059 S 
ATOM     21  O   UNL     1      -0.497   6.427   0.483  0.00  0.00    -0.153 OA
ATOM     22  O   UNL     1       1.972   6.125   0.608  0.00  0.00    -0.153 OA
BRANCH  20  23
ATOM     23  C   UNL     1       0.591   4.513  -0.823  0.00  0.00    +0.106 A 
ATOM     24  C   UNL     1       1.730   3.739  -1.036  0.00  0.00    +0.029 A 
ATOM     25  C   UNL     1       1.641   2.493  -1.576  0.00  0.00    +0.010 A 
ATOM     26  C   UNL     1       0.382   1.976  -1.926  0.00  0.00    -0.018 A 
ATOM     27  C   UNL     1       0.250   0.694  -2.487  0.00  0.00    +0.008 A 
ATOM     28  C   UNL     1      -0.986   0.227  -2.814  0.00  0.00    +0.001 A 
ATOM     29  C   UNL     1      -2.125   1.002  -2.606  0.00  0.00    +0.001 A 
ATOM     30  C   UNL     1      -2.036   2.245  -2.060  0.00  0.00    +0.008 A 
ATOM     31  C   UNL     1      -0.777   2.763  -1.710  0.00  0.00    -0.016 A 
ATOM     32  C   UNL     1      -0.645   4.045  -1.149  0.00  0.00    +0.037 A 
ENDBRANCH  20  23
ENDBRANCH  18  20
ENDBRANCH   1  18
TORSDOF 7
