REMARK  Name = ZINC27100180
REMARK  10 active torsions:
REMARK  status: ('A' for Active; 'I' for Inactive)
REMARK    1  A    between atoms: C_1  and  C_2
REMARK    2  A    between atoms: C_2  and  O_3
REMARK    3  A    between atoms: O_3  and  C_4
REMARK    4  A    between atoms: C_4  and  C_6
REMARK    5  A    between atoms: C_9  and  O_12
REMARK    6  A    between atoms: O_12  and  C_13
REMARK    7  A    between atoms: C_22  and  O_39
REMARK    8  A    between atoms: C_23  and  C_24
REMARK    9  A    between atoms: C_24  and  N_25
REMARK   10  A    between atoms: C_30  and  C_32
REMARK                            x       y       z     vdW  Elec       q    Type
REMARK                         _______ _______ _______ _____ _____    ______ ____
ROOT
ATOM      1  C   UNL     1       3.095   4.288  -5.980  0.00  0.00    +0.210 A 
ATOM      2  C   UNL     1       2.298   4.286  -4.893  0.00  0.00    +0.245 A 
ATOM      3  O   UNL     1       2.281   3.280  -4.009  0.00  0.00    -0.459 OA
ATOM      4  C   UNL     1       3.065   2.190  -4.139  0.00  0.00    +0.143 A 
ATOM      5  C   UNL     1       3.938   2.085  -5.237  0.00  0.00    +0.068 A 
ATOM      6  C   UNL     1       3.965   3.185  -6.216  0.00  0.00    +0.235 A 
ATOM      7  O   UNL     1       4.700   3.152  -7.188  0.00  0.00    -0.283 OA
ATOM      8  C   UNL     1       4.753   0.962  -5.383  0.00  0.00    +0.019 A 
ATOM      9  C   UNL     1       4.700  -0.039  -4.454  0.00  0.00    +0.046 A 
ATOM     10  C   UNL     1       3.842   0.060  -3.360  0.00  0.00    +0.122 A 
ATOM     11  C   UNL     1       3.023   1.165  -3.204  0.00  0.00    +0.020 A 
ENDROOT
BRANCH  10  12
ATOM     12  O   UNL     1       3.805  -0.940  -2.442  0.00  0.00    -0.506 OA
ATOM     13  H   UNL     1       3.130  -0.867  -1.577  0.00  0.00    +0.292 HD
ENDBRANCH  10  12
BRANCH   1  14
ATOM     14  O   UNL     1       3.070   5.338  -6.846  0.00  0.00    -0.449 OA
BRANCH  14  18
ATOM     15  C   UNL     1       0.533   8.483  -6.005  0.00  0.00    +0.059 A 
ATOM     16  C   UNL     1       1.843   8.490  -5.517  0.00  0.00    +0.018 A 
ATOM     17  C   UNL     1       2.686   7.439  -5.800  0.00  0.00    +0.047 A 
ATOM     18  C   UNL     1       2.236   6.372  -6.569  0.00  0.00    +0.129 A 
ATOM     19  C   UNL     1       0.935   6.364  -7.061  0.00  0.00    +0.047 A 
ATOM     20  C   UNL     1       0.085   7.409  -6.779  0.00  0.00    +0.018 A 
BRANCH  15  21
ATOM     21  C   UNL     1      -0.373   9.607  -5.704  0.00  0.00    +0.339 C 
ATOM     22  O   UNL     1       0.018  10.540  -5.031  0.00  0.00    -0.245 OA
BRANCH  21  23
ATOM     23  O   UNL     1      -1.635   9.599  -6.175  0.00  0.00    -0.461 OA
BRANCH  23  25
ATOM     24  C   UNL     1      -3.859  10.552  -6.458  0.00  0.00    +0.048 C 
ATOM     25  C   UNL     1      -2.472  10.738  -5.840  0.00  0.00    +0.229 C 
ENDBRANCH  23  25
ENDBRANCH  21  23
ENDBRANCH  15  21
ENDBRANCH  14  18
ENDBRANCH   1  14
BRANCH  11  26
ATOM     26  C   UNL     1       2.095   1.259  -2.021  0.00  0.00    -0.035 C 
BRANCH  26  27
ATOM     27  N   UNL     1       0.798   0.662  -2.367  0.00  0.00    +0.387 N 
ATOM     28  C   UNL     1       0.928  -0.783  -2.597  0.00  0.00    -0.078 C 
ATOM     29  C   UNL     1      -0.406  -1.343  -3.096  0.00  0.00    -0.019 C 
ATOM     30  C   UNL     1      -1.492  -1.069  -2.051  0.00  0.00    -0.003 C 
ATOM     31  C   UNL     1      -1.573   0.439  -1.795  0.00  0.00    -0.011 C 
ATOM     32  C   UNL     1      -0.205   0.947  -1.334  0.00  0.00    -0.037 C 
ATOM     33  H   UNL     1       0.453   1.121  -3.306  0.00  0.00    -0.080 HD
BRANCH  32  34
ATOM     34  C   UNL     1      -0.276   2.434  -1.100  0.00  0.00    -0.058 A 
ATOM     35  C   UNL     1      -0.415   2.926   0.185  0.00  0.00    +0.002 A 
ATOM     36  C   UNL     1      -0.480   4.289   0.402  0.00  0.00    +0.003 A 
ATOM     37  C   UNL     1      -0.406   5.163  -0.666  0.00  0.00    +0.038 A 
ATOM     38  C   UNL     1      -0.266   4.673  -1.953  0.00  0.00    +0.124 A 
ATOM     39  C   UNL     1      -0.196   3.307  -2.168  0.00  0.00    +0.040 A 
ATOM     40  F   UNL     1      -0.194   5.526  -2.998  0.00  0.00    -0.205 F 
ENDBRANCH  32  34
ENDBRANCH  26  27
ENDBRANCH  11  26
TORSDOF 9
