REMARK  Name = ZINC15974242
REMARK  9 active torsions:
REMARK  status: ('A' for Active; 'I' for Inactive)
REMARK    1  A    between atoms: C_1  and  C_2
REMARK    2  A    between atoms: C_4  and  O_30
REMARK    3  A    between atoms: C_8  and  C_22
REMARK    4  A    between atoms: C_14  and  C_20
REMARK    5  A    between atoms: C_14  and  C_21
REMARK    6  A    between atoms: C_16  and  S_18
REMARK    7  A    between atoms: S_18  and  C_19
REMARK    8  A    between atoms: C_25  and  O_28
REMARK    9  A    between atoms: O_28  and  C_29
REMARK                            x       y       z     vdW  Elec       q    Type
REMARK                         _______ _______ _______ _____ _____    ______ ____
ROOT
ATOM      1  C   UNL     1       1.137   0.601  -0.138  0.00  0.00    +0.044 C 
ATOM      2  C   UNL     1       0.956  -0.890   0.005  0.00  0.00    -0.040 A 
ATOM      3  C   UNL     1       1.011  -1.653  -1.149  0.00  0.00    +0.049 A 
ATOM      4  C   UNL     1       0.818  -3.024  -1.097  0.00  0.00    +0.121 A 
ATOM      5  C   UNL     1       0.551  -3.624   0.123  0.00  0.00    +0.091 A 
ATOM      6  C   UNL     1       0.508  -2.856   1.276  0.00  0.00    +0.131 A 
ATOM      7  C   UNL     1       0.751  -1.489   1.238  0.00  0.00    +0.005 A 
ATOM      8  C   UNL     1       0.794  -0.674   2.499  0.00  0.00    +0.058 C 
ATOM      9  C   UNL     1       0.431  -1.483   3.748  0.00  0.00    +0.081 C 
ATOM     10  C   UNL     1      -0.487  -2.649   3.407  0.00  0.00    +0.180 C 
ATOM     11  O   UNL     1       0.201  -3.471   2.451  0.00  0.00    -0.468 OA
ATOM     12  C   UNL     1      -0.800  -3.505   4.633  0.00  0.00    +0.096 C 
ATOM     13  C   UNL     1      -1.717  -2.790   5.618  0.00  0.00    +0.040 C 
ATOM     14  N   UNL     1      -2.729  -1.992   4.938  0.00  0.00    -0.363 N 
ATOM     15  C   UNL     1      -2.743  -1.742   3.672  0.00  0.00    +0.131 C 
ATOM     16  N   UNL     1      -1.738  -2.157   2.828  0.00  0.00    -0.288 N 
ATOM     17  C   UNL     1      -0.915  -1.923   6.585  0.00  0.00    +0.034 C 
ATOM     18  C   UNL     1      -2.451  -3.863   6.447  0.00  0.00    +0.034 C 
ATOM     19  H   UNL     1      -1.862  -2.123   1.865  0.00  0.00    +0.152 HD
ATOM     20  H   UNL     1      -3.447  -1.619   5.479  0.00  0.00    +0.162 HD
ENDROOT
BRANCH   8  21
ATOM     21  C   UNL     1       2.193  -0.158   2.717  0.00  0.00    -0.039 A 
ATOM     22  C   UNL     1       3.243  -1.046   2.852  0.00  0.00    +0.008 A 
ATOM     23  C   UNL     1       4.527  -0.576   3.053  0.00  0.00    +0.046 A 
ATOM     24  C   UNL     1       4.760   0.790   3.118  0.00  0.00    +0.120 A 
ATOM     25  C   UNL     1       3.705   1.680   2.982  0.00  0.00    +0.046 A 
ATOM     26  C   UNL     1       2.424   1.204   2.776  0.00  0.00    +0.008 A 
BRANCH  24  27
ATOM     27  O   UNL     1       6.022   1.256   3.316  0.00  0.00    -0.495 OA
ATOM     28  C   UNL     1       6.188   2.674   3.373  0.00  0.00    +0.277 C 
ENDBRANCH  24  27
ENDBRANCH   8  21
BRANCH  15  29
ATOM     29  S   UNL     1      -4.095  -0.833   2.998  0.00  0.00    -0.096 S 
ATOM     30  C   UNL     1      -5.155  -0.498   4.432  0.00  0.00    +0.092 C 
ENDBRANCH  15  29
BRANCH   4  31
ATOM     31  O   UNL     1       0.890  -3.773  -2.227  0.00  0.00    -0.507 OA
ATOM     32  H   UNL     1       1.777  -4.106  -2.422  0.00  0.00    +0.292 HD
ENDBRANCH   4  31
TORSDOF 4
