REMARK  Name = ZINC12734005
REMARK  9 active torsions:
REMARK  status: ('A' for Active; 'I' for Inactive)
REMARK    1  A    between atoms: C_1  and  C_2
REMARK    2  A    between atoms: C_3  and  C_31
REMARK    3  A    between atoms: C_7  and  N_22
REMARK    4  A    between atoms: C_9  and  S_11
REMARK    5  A    between atoms: S_11  and  C_12
REMARK    6  A    between atoms: C_12  and  C_14
REMARK    7  A    between atoms: C_12  and  C_15
REMARK    8  A    between atoms: N_20  and  C_21
REMARK    9  A    between atoms: C_23  and  C_25
REMARK                            x       y       z     vdW  Elec       q    Type
REMARK                         _______ _______ _______ _____ _____    ______ ____
ROOT
ATOM      1  C   UNL     1      -0.013   1.086   0.008  0.00  0.00    +0.048 C 
ATOM      2  C   UNL     1      -0.718   1.572   1.248  0.00  0.00    +0.003 A 
ATOM      3  C   UNL     1      -0.163   1.842   2.438  0.00  0.00    +0.108 A 
ATOM      4  O   UNL     1      -1.106   2.254   3.306  0.00  0.00    -0.442 OA
ATOM      5  C   UNL     1      -2.318   2.272   2.726  0.00  0.00    +0.233 A 
ATOM      6  C   UNL     1      -2.149   1.851   1.395  0.00  0.00    +0.083 A 
ATOM      7  C   UNL     1      -3.271   1.771   0.560  0.00  0.00    +0.141 A 
ATOM      8  N   UNL     1      -4.456   2.109   1.059  0.00  0.00    -0.206 NA
ATOM      9  C   UNL     1      -4.575   2.508   2.319  0.00  0.00    +0.194 A 
ATOM     10  N   UNL     1      -3.540   2.591   3.140  0.00  0.00    -0.186 NA
ATOM     11  C   UNL     1       1.304   1.705   2.757  0.00  0.00    +0.086 C 
ENDROOT
BRANCH   7  12
ATOM     12  N   UNL     1      -3.148   1.354  -0.757  0.00  0.00    -0.266 N 
ATOM     13  C   UNL     1      -4.238   1.289  -1.548  0.00  0.00    +0.249 C 
ATOM     14  O   UNL     1      -5.328   1.595  -1.107  0.00  0.00    -0.270 OA
ATOM     15  H   UNL     1      -2.278   1.110  -1.109  0.00  0.00    +0.157 HD
BRANCH  13  16
ATOM     16  C   UNL     1      -4.107   0.845  -2.951  0.00  0.00    +0.037 A 
ATOM     17  C   UNL     1      -2.855   0.498  -3.463  0.00  0.00    +0.013 A 
ATOM     18  C   UNL     1      -2.741   0.079  -4.772  0.00  0.00    +0.001 A 
ATOM     19  C   UNL     1      -3.861   0.014  -5.582  0.00  0.00    +0.000 A 
ATOM     20  C   UNL     1      -5.104   0.362  -5.082  0.00  0.00    +0.001 A 
ATOM     21  C   UNL     1      -5.233   0.776  -3.773  0.00  0.00    +0.013 A 
ENDBRANCH  13  16
ENDBRANCH   7  12
BRANCH   9  22
ATOM     22  S   UNL     1      -6.172   2.943   2.923  0.00  0.00    -0.073 S 
BRANCH  22  23
ATOM     23  C   UNL     1      -5.754   3.389   4.626  0.00  0.00    +0.137 C 
ATOM     24  C   UNL     1      -4.854   4.627   4.623  0.00  0.00    +0.029 C 
BRANCH  23  25
ATOM     25  C   UNL     1      -7.017   3.689   5.392  0.00  0.00    +0.233 C 
ATOM     26  O   UNL     1      -8.036   3.966   4.795  0.00  0.00    -0.274 OA
ATOM     27  N   UNL     1      -7.014   3.650   6.739  0.00  0.00    -0.239 N 
ATOM     28  C   UNL     1      -8.144   3.918   7.423  0.00  0.00    +0.306 C 
ATOM     29  O   UNL     1      -9.165   4.196   6.826  0.00  0.00    -0.252 OA
ATOM     30  N   UNL     1      -8.141   3.878   8.770  0.00  0.00    -0.302 N 
ATOM     31  C   UNL     1      -9.369   4.170   9.514  0.00  0.00    +0.129 C 
ATOM     32  H   UNL     1      -6.199   3.428   7.216  0.00  0.00    +0.159 HD
ATOM     33  H   UNL     1      -7.326   3.656   9.247  0.00  0.00    +0.150 HD
ENDBRANCH  23  25
ENDBRANCH  22  23
ENDBRANCH   9  22
TORSDOF 5
