REMARK  Name = ZINC05146371
REMARK  8 active torsions:
REMARK  status: ('A' for Active; 'I' for Inactive)
REMARK    1  A    between atoms: C_1  and  C_2
REMARK    2  A    between atoms: C_5  and  N_9
REMARK    3  A    between atoms: C_6  and  C_8
REMARK    4  A    between atoms: C_10  and  C_12
REMARK    5  A    between atoms: N_14  and  C_15
REMARK    6  A    between atoms: C_15  and  C_16
REMARK    7  A    between atoms: C_16  and  C_17
REMARK    8  A    between atoms: C_20  and  C_22
REMARK                            x       y       z     vdW  Elec       q    Type
REMARK                         _______ _______ _______ _____ _____    ______ ____
ROOT
ATOM      1  C   UNL     1       1.140   2.150  -0.012  0.00  0.00    +0.299 C 
ATOM      2  O   UNL     1       2.200   1.558  -0.032  0.00  0.00    -0.265 OA
ATOM      3  N   UNL     1      -0.017   1.460  -0.008  0.00  0.00    -0.307 N 
ATOM      4  H   UNL     1      -0.864   1.934   0.004  0.00  0.00    +0.149 HD
ENDROOT
BRANCH   1   6
ATOM      5  N   UNL     1       2.278   4.333   0.004  0.00  0.00    -0.278 N 
ATOM      6  C   UNL     1       1.120   3.644   0.008  0.00  0.00    +0.303 C 
ATOM      7  O   UNL     1       0.061   4.236   0.028  0.00  0.00    -0.265 OA
ATOM      8  H   UNL     1       3.123   3.862   0.068  0.00  0.00    +0.155 HD
BRANCH   5  13
ATOM      9  C   UNL     1       2.205   9.991  -0.391  0.00  0.00    +0.044 C 
ATOM     10  C   UNL     1       2.225   8.487  -0.287  0.00  0.00    -0.050 A 
ATOM     11  C   UNL     1       1.166   7.747  -0.781  0.00  0.00    +0.005 A 
ATOM     12  C   UNL     1       1.180   6.370  -0.687  0.00  0.00    +0.024 A 
ATOM     13  C   UNL     1       2.260   5.727  -0.094  0.00  0.00    +0.037 A 
ATOM     14  C   UNL     1       3.320   6.474   0.406  0.00  0.00    -0.029 A 
ATOM     15  C   UNL     1       3.301   7.851   0.304  0.00  0.00    +0.008 A 
ATOM     16  C   UNL     1       4.490   5.781   1.055  0.00  0.00    +0.045 C 
ENDBRANCH   5  13
ENDBRANCH   1   6
BRANCH   3  17
ATOM     17  C   UNL     1       0.003  -0.004  -0.027  0.00  0.00    +0.111 C 
BRANCH  17  18
ATOM     18  C   UNL     1      -1.433  -0.534  -0.018  0.00  0.00    +0.074 C 
BRANCH  18  19
ATOM     19  C   UNL     1      -1.412  -2.041  -0.038  0.00  0.00    +0.051 A 
ATOM     20  C   UNL     1      -2.062  -2.744   0.927  0.00  0.00    +0.070 A 
ATOM     21  S   UNL     1      -1.707  -4.419   0.411  0.00  0.00    -0.075 S 
ATOM     22  C   UNL     1      -0.728  -4.001  -1.025  0.00  0.00    +0.109 A 
ATOM     23  N   UNL     1      -0.762  -2.677  -0.984  0.00  0.00    -0.244 NA
BRANCH  22  24
ATOM     24  C   UNL     1      -0.059  -4.893  -1.996  0.00  0.00    +0.007 A 
ATOM     25  C   UNL     1       0.660  -4.353  -3.064  0.00  0.00    +0.013 A 
ATOM     26  C   UNL     1       1.285  -5.189  -3.964  0.00  0.00    +0.039 A 
ATOM     27  C   UNL     1       1.192  -6.564  -3.817  0.00  0.00    +0.123 A 
ATOM     28  C   UNL     1       0.475  -7.106  -2.762  0.00  0.00    +0.039 A 
ATOM     29  C   UNL     1      -0.150  -6.279  -1.853  0.00  0.00    +0.013 A 
ATOM     30  F   UNL     1       1.802  -7.379  -4.705  0.00  0.00    -0.205 F 
ENDBRANCH  22  24
ENDBRANCH  18  19
ENDBRANCH  17  18
ENDBRANCH   3  17
TORSDOF 6
