REMARK  Name = ZINC06187926
REMARK  9 active torsions:
REMARK  status: ('A' for Active; 'I' for Inactive)
REMARK    1  A    between atoms: C_1  and  C_2
REMARK    2  A    between atoms: C_5  and  N_9
REMARK    3  A    between atoms: C_7  and  C_8
REMARK    4  A    between atoms: N_10  and  C_11
REMARK    5  A    between atoms: C_14  and  O_29
REMARK    6  A    between atoms: C_15  and  C_17
REMARK    7  A    between atoms: N_18  and  N_19
REMARK    8  A    between atoms: C_20  and  C_22
REMARK    9  A    between atoms: C_24  and  C_28
REMARK                            x       y       z     vdW  Elec       q    Type
REMARK                         _______ _______ _______ _____ _____    ______ ____
ROOT
ATOM      1  C   UNL     1       0.077  -6.145  -1.149  0.00  0.00    +0.087 A 
ATOM      2  C   UNL     1       0.086  -6.852   0.059  0.00  0.00    +0.033 A 
ATOM      3  C   UNL     1       0.104  -8.229   0.057  0.00  0.00    +0.048 A 
ATOM      4  C   UNL     1       0.113  -8.927  -1.143  0.00  0.00    +0.126 A 
ATOM      5  C   UNL     1       0.103  -8.229  -2.361  0.00  0.00    +0.038 A 
ATOM      6  C   UNL     1       0.080  -6.836  -2.361  0.00  0.00    +0.042 A 
ENDROOT
BRANCH   1   8
ATOM      7  N   UNL     1       0.057  -4.141  -0.021  0.00  0.00    -0.149 NA
ATOM      8  N   UNL     1       0.059  -4.779  -1.141  0.00  0.00    -0.149 NA
BRANCH   7  13
ATOM      9  C   UNL     1      -0.018   1.503   0.010  0.00  0.00    +0.044 C 
ATOM     10  C   UNL     1       0.002  -0.004   0.002  0.00  0.00    -0.047 A 
ATOM     11  C   UNL     1       0.006  -0.686  -1.202  0.00  0.00    +0.006 A 
ATOM     12  C   UNL     1       0.024  -2.065  -1.218  0.00  0.00    +0.030 A 
ATOM     13  C   UNL     1       0.039  -2.773  -0.013  0.00  0.00    +0.086 A 
ATOM     14  C   UNL     1       0.036  -2.078   1.199  0.00  0.00    +0.033 A 
ATOM     15  C   UNL     1       0.023  -0.699   1.198  0.00  0.00    -0.045 A 
ATOM     16  C   UNL     1       0.025   0.053   2.504  0.00  0.00    +0.044 C 
ENDBRANCH   7  13
ENDBRANCH   1   8
BRANCH   5  17
ATOM     17  C   UNL     1       0.114  -8.968  -3.637  0.00  0.00    +0.142 C 
ATOM     18  N   UNL     1       0.131 -10.266  -3.635  0.00  0.00    -0.187 NA
BRANCH  18  19
ATOM     19  N   UNL     1       0.141 -10.969  -4.847  0.00  0.00    -0.202 N 
ATOM     20  C   UNL     1       0.159 -12.316  -4.845  0.00  0.00    +0.281 C 
ATOM     21  O   UNL     1       0.167 -12.923  -3.790  0.00  0.00    -0.267 OA
ATOM     22  H   UNL     1       0.134 -10.485  -5.688  0.00  0.00    +0.178 HD
BRANCH  20  23
ATOM     23  C   UNL     1       0.169 -13.054  -6.117  0.00  0.00    +0.122 A 
ATOM     24  C   UNL     1       0.182 -14.428  -6.281  0.00  0.00    +0.057 A 
ATOM     25  C   UNL     1       0.188 -14.636  -7.662  0.00  0.00    +0.060 A 
ATOM     26  N   UNL     1       0.178 -13.464  -8.245  0.00  0.00    -0.178 NA
ATOM     27  N   UNL     1       0.161 -12.520  -7.375  0.00  0.00    -0.272 N 
ATOM     28  H   UNL     1       0.148 -11.571  -7.579  0.00  0.00    +0.189 HD
ATOM     29  C   UNL     1       0.202 -15.973  -8.358  0.00  0.00    +0.067 C 
ENDBRANCH  20  23
ENDBRANCH  18  19
ENDBRANCH   5  17
BRANCH   4  30
ATOM     30  O   UNL     1       0.131 -10.283  -1.139  0.00  0.00    -0.506 OA
ATOM     31  H   UNL     1      -0.747 -10.688  -1.137  0.00  0.00    +0.292 HD
ENDBRANCH   4  30
TORSDOF 6
