REMARK  Name = ZINC11789612
REMARK  10 active torsions:
REMARK  status: ('A' for Active; 'I' for Inactive)
REMARK    1  A    between atoms: C_1  and  C_2
REMARK    2  A    between atoms: C_2  and  C_3
REMARK    3  A    between atoms: C_3  and  C_4
REMARK    4  A    between atoms: C_4  and  C_5
REMARK    5  A    between atoms: C_9  and  C_11
REMARK    6  A    between atoms: C_11  and  N_74
REMARK    7  A    between atoms: C_14  and  C_17
REMARK    8  A    between atoms: C_17  and  C_29
REMARK    9  A    between atoms: N_20  and  C_24
REMARK   10  A    between atoms: C_29  and  C_30
REMARK                            x       y       z     vdW  Elec       q    Type
REMARK                         _______ _______ _______ _____ _____    ______ ____
ROOT
ATOM      1  C   UNL     1       2.155   7.131   5.713  0.00  0.00    +0.119 C 
ATOM      2  C   UNL     1       1.837   8.503   6.274  0.00  0.00    +0.247 C 
ATOM      3  O   UNL     1       1.679   9.531   5.651  0.00  0.00    -0.273 OA
ATOM      4  N   UNL     1       1.765   8.341   7.611  0.00  0.00    -0.221 N 
ATOM      5  C   UNL     1       1.991   7.072   7.967  0.00  0.00    +0.310 C 
ATOM      6  O   UNL     1       1.980   6.681   9.118  0.00  0.00    -0.252 OA
ATOM      7  N   UNL     1       2.233   6.276   6.910  0.00  0.00    -0.284 N 
ATOM      8  H   UNL     1       2.421   5.325   6.931  0.00  0.00    +0.151 HD
ENDROOT
BRANCH   1  11
ATOM      9  C   UNL     1       0.218   4.767   3.372  0.00  0.00    -0.078 C 
ATOM     10  C   UNL     1       1.369   5.261   4.251  0.00  0.00    -0.013 C 
ATOM     11  C   UNL     1       1.035   6.657   4.784  0.00  0.00    +0.018 C 
ATOM     12  C   UNL     1      -0.283   6.596   5.561  0.00  0.00    -0.013 C 
ATOM     13  C   UNL     1      -1.386   6.064   4.644  0.00  0.00    -0.078 C 
ATOM     14  N   UNL     1      -1.015   4.708   4.185  0.00  0.00    +0.383 N 
ATOM     15  H   UNL     1      -0.846   4.114   5.005  0.00  0.00    -0.081 HD
BRANCH  14  16
ATOM     16  C   UNL     1      -2.116   4.126   3.390  0.00  0.00    -0.021 C 
BRANCH  16  21
ATOM     17  C   UNL     1      -0.718   1.572   1.248  0.00  0.00    +0.107 A 
ATOM     18  N   UNL     1      -1.173   0.791   2.252  0.00  0.00    -0.348 N 
ATOM     19  H   UNL     1      -1.106  -0.205   2.306  0.00  0.00    +0.166 HD
ATOM     20  C   UNL     1      -1.744   1.619   3.181  0.00  0.00    +0.105 A 
ATOM     21  C   UNL     1      -1.626   2.874   2.709  0.00  0.00    +0.043 A 
ATOM     22  N   UNL     1      -0.995   2.816   1.527  0.00  0.00    -0.239 NA
BRANCH  17  23
ATOM     23  C   UNL     1      -0.013   1.086   0.008  0.00  0.00    +0.074 C 
BRANCH  23  24
ATOM     24  C   UNL     1      -0.753   1.593  -1.232  0.00  0.00    +0.007 C 
BRANCH  24  26
ATOM     25  C   UNL     1      -0.777   1.606  -3.730  0.00  0.00    +0.004 C 
ATOM     26  C   UNL     1      -0.037   1.099  -2.490  0.00  0.00    -0.003 C 
ENDBRANCH  24  26
ENDBRANCH  23  24
ENDBRANCH  17  23
ENDBRANCH  16  21
ENDBRANCH  14  16
ENDBRANCH   1  11
BRANCH   4  27
ATOM     27  C   UNL     1       1.476   9.423   8.556  0.00  0.00    +0.086 C 
ATOM     28  C   UNL     1       2.626   9.555   9.575  0.00  0.00    +0.023 C 
ATOM     29  C   UNL     1       1.914   9.901  10.907  0.00  0.00    +0.002 C 
ATOM     30  C   UNL     1       0.631   9.035  10.845  0.00  0.00    +0.002 C 
ATOM     31  C   UNL     1       0.208   9.093   9.362  0.00  0.00    +0.023 C 
ENDBRANCH   4  27
BRANCH   1  32
ATOM     32  C   UNL     1       3.494   7.150   4.972  0.00  0.00    +0.070 C 
BRANCH  32  33
ATOM     33  C   UNL     1       4.597   7.501   5.938  0.00  0.00    -0.045 A 
ATOM     34  C   UNL     1       4.953   8.823   6.128  0.00  0.00    +0.006 A 
ATOM     35  C   UNL     1       5.960   9.147   7.017  0.00  0.00    +0.038 A 
ATOM     36  C   UNL     1       6.621   8.146   7.708  0.00  0.00    +0.123 A 
ATOM     37  C   UNL     1       6.267   6.822   7.513  0.00  0.00    +0.038 A 
ATOM     38  C   UNL     1       5.255   6.501   6.628  0.00  0.00    +0.006 A 
ATOM     39  F   UNL     1       7.609   8.460   8.574  0.00  0.00    -0.205 F 
ENDBRANCH  32  33
ENDBRANCH   1  32
TORSDOF 9
