REMARK  Name = ZINC36545277
REMARK  12 active torsions:
REMARK  status: ('A' for Active; 'I' for Inactive)
REMARK    1  A    between atoms: C_1  and  C_2
REMARK    2  A    between atoms: C_2  and  C_3
REMARK    3  A    between atoms: C_3  and  C_4
REMARK    4  A    between atoms: C_4  and  N_5
REMARK    5  A    between atoms: C_6  and  C_8
REMARK    6  A    between atoms: C_8  and  C_10
REMARK    7  A    between atoms: C_8  and  N_13
REMARK    8  A    between atoms: C_11  and  C_12
REMARK    9  A    between atoms: N_13  and  C_14
REMARK   10  A    between atoms: C_21  and  C_23
REMARK   11  A    between atoms: C_24  and  O_30
REMARK   12  A    between atoms: C_28  and  O_29
REMARK                            x       y       z     vdW  Elec       q    Type
REMARK                         _______ _______ _______ _____ _____    ______ ____
ROOT
ATOM      1  N   UNL     1       1.628  -5.439  -4.200  0.00  0.00    -0.250 N 
ATOM      2  C   UNL     1       1.115  -5.808  -5.391  0.00  0.00    +0.259 C 
ATOM      3  O   UNL     1       1.167  -5.045  -6.338  0.00  0.00    -0.269 OA
ENDROOT
BRANCH   1   4
ATOM      4  C   UNL     1       1.652  -6.349  -3.138  0.00  0.00    +0.056 A 
ATOM      5  C   UNL     1       2.713  -7.234  -3.003  0.00  0.00    +0.025 A 
ATOM      6  C   UNL     1       2.734  -8.130  -1.953  0.00  0.00    +0.002 A 
ATOM      7  C   UNL     1       1.700  -8.148  -1.035  0.00  0.00    +0.002 A 
ATOM      8  C   UNL     1       0.641  -7.269  -1.166  0.00  0.00    +0.022 A 
ATOM      9  C   UNL     1       0.616  -6.365  -2.211  0.00  0.00    +0.062 A 
ATOM     10 CL   UNL     1      -0.710  -5.256  -2.371  0.00  0.00    -0.082 Cl
ENDBRANCH   1   4
BRANCH   2  11
ATOM     11  C   UNL     1       0.493  -7.133  -5.547  0.00  0.00    +0.120 A 
ATOM     12  C   UNL     1      -0.881  -7.298  -5.321  0.00  0.00    +0.133 A 
ATOM     13  C   UNL     1      -1.457  -8.550  -5.470  0.00  0.00    +0.046 A 
ATOM     14  C   UNL     1      -0.681  -9.633  -5.840  0.00  0.00    +0.007 A 
ATOM     15  C   UNL     1       0.674  -9.481  -6.065  0.00  0.00    +0.046 A 
ATOM     16  C   UNL     1       1.269  -8.237  -5.927  0.00  0.00    +0.133 A 
BRANCH  16  17
ATOM     17  O   UNL     1       2.599  -8.089  -6.154  0.00  0.00    -0.506 OA
ATOM     18  H   UNL     1       3.154  -8.309  -5.394  0.00  0.00    +0.292 HD
ENDBRANCH  16  17
BRANCH  12  19
ATOM     19  O   UNL     1      -1.644  -6.237  -4.957  0.00  0.00    -0.506 OA
ATOM     20  H   UNL     1      -2.026  -5.754  -5.703  0.00  0.00    +0.292 HD
ENDBRANCH  12  19
ENDBRANCH   2  11
BRANCH   1  21
ATOM     21  C   UNL     1       2.160  -4.086  -4.019  0.00  0.00    +0.190 C 
BRANCH  21  23
ATOM     22  N   UNL     1       3.992  -2.704  -4.941  0.00  0.00    -0.314 N 
ATOM     23  C   UNL     1       3.338  -3.883  -4.936  0.00  0.00    +0.238 C 
ATOM     24  O   UNL     1       3.698  -4.779  -5.669  0.00  0.00    -0.273 OA
ATOM     25  H   UNL     1       3.704  -1.987  -4.355  0.00  0.00    +0.149 HD
BRANCH  22  26
ATOM     26  C   UNL     1       5.138  -2.506  -5.832  0.00  0.00    +0.104 C 
BRANCH  26  27
ATOM     27  C   UNL     1       5.693  -1.093  -5.643  0.00  0.00    +0.018 C 
BRANCH  27  29
ATOM     28  C   UNL     1       7.445   0.527  -6.384  0.00  0.00    +0.004 C 
ATOM     29  C   UNL     1       6.890  -0.886  -6.574  0.00  0.00    -0.002 C 
ENDBRANCH  27  29
ENDBRANCH  26  27
ENDBRANCH  22  26
ENDBRANCH  21  23
BRANCH  21  30
ATOM     30  C   UNL     1       1.089  -3.078  -4.345  0.00  0.00    +0.000 C 
ATOM     31  C   UNL     1      -0.132  -3.478  -4.603  0.00  0.00    -0.032 C 
ATOM     32  C   UNL     1      -1.167  -2.487  -5.069  0.00  0.00    +0.035 C 
ENDBRANCH  21  30
ENDBRANCH   1  21
TORSDOF 10
