REMARK  Name = ZINC03553439
REMARK  9 active torsions:
REMARK  status: ('A' for Active; 'I' for Inactive)
REMARK    1  A    between atoms: C_1  and  C_2
REMARK    2  A    between atoms: C_2  and  C_3
REMARK    3  A    between atoms: C_2  and  N_4
REMARK    4  A    between atoms: N_4  and  C_5
REMARK    5  A    between atoms: C_5  and  C_6
REMARK    6  A    between atoms: C_5  and  C_7
REMARK    7  A    between atoms: C_8  and  C_10
REMARK    8  A    between atoms: C_10  and  S_11
REMARK    9  A    between atoms: S_11  and  C_12
REMARK                            x       y       z     vdW  Elec       q    Type
REMARK                         _______ _______ _______ _____ _____    ______ ____
ROOT
ATOM      1  C   UNL     1      -1.880   7.718  -0.275  0.00  0.00    +0.191 A 
ATOM      2  N   UNL     1      -1.626   7.139   0.889  0.00  0.00    -0.207 NA
ATOM      3  C   UNL     1      -1.363   5.842   1.031  0.00  0.00    +0.129 A 
ATOM      4  C   UNL     1      -1.367   5.070  -0.167  0.00  0.00    +0.051 A 
ATOM      5  C   UNL     1      -1.113   3.643  -0.290  0.00  0.00    -0.025 A 
ATOM      6  C   UNL     1      -1.171   3.122  -1.536  0.00  0.00    -0.004 A 
ATOM      7  S   UNL     1      -1.561   4.491  -2.598  0.00  0.00    -0.073 S 
ATOM      8  C   UNL     1      -1.647   5.758  -1.374  0.00  0.00    +0.115 A 
ATOM      9  N   UNL     1      -1.899   7.051  -1.431  0.00  0.00    -0.214 NA
ATOM     10  C   UNL     1      -0.952   1.695  -1.934  0.00  0.00    +0.043 C 
ATOM     11  C   UNL     1      -0.287   0.959  -0.762  0.00  0.00    +0.005 C 
ATOM     12  C   UNL     1      -1.045   1.294   0.525  0.00  0.00    +0.005 C 
ATOM     13  C   UNL     1      -0.797   2.753   0.909  0.00  0.00    +0.037 C 
ATOM     14  N   UNL     1      -1.103   5.277   2.267  0.00  0.00    -0.343 N 
ATOM     15  H   UNL     1      -1.433   5.702   3.074  0.00  0.00    +0.144 HD
ATOM     16  H   UNL     1      -0.590   4.457   2.326  0.00  0.00    +0.144 HD
ENDROOT
BRANCH   1  17
ATOM     17  S   UNL     1      -2.210   9.449  -0.298  0.00  0.00    -0.077 S 
BRANCH  17  18
ATOM     18  C   UNL     1      -2.060   9.821   1.467  0.00  0.00    +0.173 C 
BRANCH  18  20
ATOM     19  N   UNL     1      -2.154  11.817   2.925  0.00  0.00    -0.296 N 
ATOM     20  C   UNL     1      -2.309  11.290   1.694  0.00  0.00    +0.226 C 
ATOM     21  O   UNL     1      -2.650  11.997   0.769  0.00  0.00    -0.275 OA
BRANCH  19  23
ATOM     22  C   UNL     1      -0.334  11.620   4.545  0.00  0.00    +0.028 C 
ATOM     23  C   UNL     1      -1.624  10.993   4.013  0.00  0.00    +0.070 C 
ATOM     24  C   UNL     1      -2.655  10.913   5.141  0.00  0.00    +0.028 C 
ENDBRANCH  19  23
BRANCH  19  25
ATOM     25  C   UNL     1      -2.516  13.215   3.173  0.00  0.00    +0.070 C 
ATOM     26  C   UNL     1      -1.618  14.131   2.339  0.00  0.00    +0.028 C 
ATOM     27  C   UNL     1      -3.978  13.441   2.782  0.00  0.00    +0.028 C 
ENDBRANCH  19  25
ENDBRANCH  18  20
ENDBRANCH  17  18
ENDBRANCH   1  17
TORSDOF 5
