REMARK  Name = ZINC63426752
REMARK  15 active torsions:
REMARK  status: ('A' for Active; 'I' for Inactive)
REMARK    1  A    between atoms: C_1  and  C_2
REMARK    2  A    between atoms: C_5  and  C_40
REMARK    3  A    between atoms: C_6  and  N_8
REMARK    4  A    between atoms: C_9  and  C_11
REMARK    5  A    between atoms: C_11  and  S_12
REMARK    6  A    between atoms: S_12  and  C_13
REMARK    7  A    between atoms: C_17  and  C_20
REMARK    8  A    between atoms: C_20  and  C_22
REMARK    9  A    between atoms: C_20  and  N_32
REMARK   10  A    between atoms: C_22  and  C_23
REMARK   11  A    between atoms: C_33  and  O_35
REMARK   12  A    between atoms: O_35  and  C_36
REMARK   13  A    between atoms: C_36  and  C_37
REMARK   14  A    between atoms: C_36  and  C_38
REMARK   15  A    between atoms: C_36  and  C_39
REMARK                            x       y       z     vdW  Elec       q    Type
REMARK                         _______ _______ _______ _____ _____    ______ ____
ROOT
ATOM      1  C   UNL     1       1.845  -6.084   7.476  0.00  0.00    +0.133 C 
ENDROOT
BRANCH   1   5
ATOM      2  C   UNL     1       0.541  -2.801   7.699  0.00  0.00    +0.319 C 
ATOM      3  N   UNL     1      -0.602  -3.720   7.778  0.00  0.00    -0.146 NA
ATOM      4  N   UNL     1      -0.211  -4.862   8.053  0.00  0.00    -0.155 NA
ATOM      5  C   UNL     1       1.250  -4.874   8.198  0.00  0.00    +0.280 C 
ATOM      6  O   UNL     1       1.703  -3.648   7.582  0.00  0.00    -0.316 OA
BRANCH   2   7
ATOM      7  S   UNL     1       0.391  -1.734   6.239  0.00  0.00    -0.095 S 
BRANCH   7   8
ATOM      8  C   UNL     1       0.280  -2.900   4.854  0.00  0.00    +0.169 C 
BRANCH   8  10
ATOM      9  N   UNL     1       0.052  -2.797   2.393  0.00  0.00    -0.285 N 
ATOM     10  C   UNL     1       0.150  -2.135   3.562  0.00  0.00    +0.227 C 
ATOM     11  O   UNL     1       0.134  -0.922   3.575  0.00  0.00    -0.275 OA
ATOM     12  H   UNL     1      -0.016  -3.765   2.388  0.00  0.00    +0.155 HD
BRANCH   9  18
ATOM     13  C   UNL     1       1.264   1.227  -0.158  0.00  0.00    +0.044 C 
ATOM     14  C   UNL     1       0.628  -0.137  -0.079  0.00  0.00    -0.049 A 
ATOM     15  C   UNL     1       0.039  -0.690  -1.201  0.00  0.00    +0.004 A 
ATOM     16  C   UNL     1      -0.546  -1.941  -1.133  0.00  0.00    +0.005 A 
ATOM     17  C   UNL     1      -0.543  -2.643   0.057  0.00  0.00    -0.029 A 
ATOM     18  C   UNL     1       0.048  -2.090   1.185  0.00  0.00    +0.037 A 
ATOM     19  C   UNL     1       0.639  -0.835   1.112  0.00  0.00    +0.027 A 
ATOM     20  C   UNL     1      -1.181  -4.006   0.131  0.00  0.00    +0.045 C 
ENDBRANCH   9  18
ENDBRANCH   8  10
ENDBRANCH   7   8
ENDBRANCH   2   7
ENDBRANCH   1   5
BRANCH   1  21
ATOM     21  N   UNL     1       3.304  -6.060   7.602  0.00  0.00    -0.274 N 
ATOM     22  C   UNL     1       3.876  -6.095   8.823  0.00  0.00    +0.401 C 
ATOM     23  O   UNL     1       3.180  -6.147   9.818  0.00  0.00    -0.226 OA
ATOM     24  H   UNL     1       3.860  -6.018   6.808  0.00  0.00    +0.152 HD
BRANCH  22  25
ATOM     25  O   UNL     1       5.217  -6.072   8.939  0.00  0.00    -0.445 OA
BRANCH  25  26
ATOM     26  C   UNL     1       5.754  -6.112  10.262  0.00  0.00    +0.107 C 
ATOM     27  C   UNL     1       5.303  -7.398  10.958  0.00  0.00    +0.055 C 
ATOM     28  C   UNL     1       7.282  -6.079  10.194  0.00  0.00    +0.055 C 
ATOM     29  C   UNL     1       5.252  -4.902  11.053  0.00  0.00    +0.055 C 
ENDBRANCH  25  26
ENDBRANCH  22  25
ENDBRANCH   1  21
BRANCH   1  30
ATOM     30  C   UNL     1       1.301  -7.370   8.102  0.00  0.00    +0.060 C 
BRANCH  30  31
ATOM     31  C   UNL     1       1.789  -8.558   7.315  0.00  0.00    -0.040 C 
ATOM     32  C   UNL     1       2.873  -9.321   7.583  0.00  0.00    -0.001 A 
ATOM     33  C   UNL     1       3.884  -9.274   8.646  0.00  0.00    +0.010 A 
ATOM     34  C   UNL     1       4.875 -10.195   8.651  0.00  0.00    +0.001 A 
ATOM     35  C   UNL     1       4.961 -11.190   7.668  0.00  0.00    +0.002 A 
ATOM     36  C   UNL     1       4.070 -11.297   6.659  0.00  0.00    +0.026 A 
ATOM     37  C   UNL     1       2.986 -10.382   6.557  0.00  0.00    +0.043 A 
ATOM     38  N   UNL     1       2.010 -10.279   5.688  0.00  0.00    -0.380 N 
ATOM     39  C   UNL     1       1.163  -9.143   6.069  0.00  0.00    +0.144 C 
ATOM     40  H   UNL     1       1.869 -10.859   4.923  0.00  0.00    +0.160 HD
ENDBRANCH  30  31
ENDBRANCH   1  30
TORSDOF 10
