REMARK  Name = ZINC30828278
REMARK  6 active torsions:
REMARK  status: ('A' for Active; 'I' for Inactive)
REMARK    1  A    between atoms: C_8  and  C_10
REMARK    2  A    between atoms: C_13  and  N_17
REMARK    3  A    between atoms: C_15  and  O_16
REMARK    4  A    between atoms: N_17  and  C_18
REMARK    5  A    between atoms: C_18  and  N_20
REMARK    6  A    between atoms: C_21  and  C_23
REMARK                            x       y       z     vdW  Elec       q    Type
REMARK                         _______ _______ _______ _____ _____    ______ ____
ROOT
ATOM      1  C   UNL     1       9.871   1.610  -0.244  0.00  0.00    +0.078 A 
ATOM      2  C   UNL     1       8.876   0.628  -0.266  0.00  0.00    +0.018 A 
ATOM      3  C   UNL     1       7.551   0.991  -0.198  0.00  0.00    +0.024 A 
ATOM      4  C   UNL     1       7.195   2.334  -0.107  0.00  0.00    +0.036 A 
ATOM      5  C   UNL     1       8.176   3.317  -0.090  0.00  0.00    +0.069 A 
ATOM      6  C   UNL     1       9.512   2.962  -0.153  0.00  0.00    +0.131 A 
ENDROOT
BRANCH   1  14
ATOM      7  C   UNL     1      15.409  -0.544  -0.561  0.00  0.00    +0.023 A 
ATOM      8  C   UNL     1      14.088  -0.962  -0.539  0.00  0.00    +0.051 A 
ATOM      9  C   UNL     1      13.095   0.002  -0.449  0.00  0.00    +0.174 A 
ATOM     10  C   UNL     1      13.457   1.359  -0.384  0.00  0.00    +0.199 A 
ATOM     11  N   UNL     1      14.741   1.709  -0.408  0.00  0.00    -0.233 NA
ATOM     12  C   UNL     1      15.697   0.809  -0.493  0.00  0.00    +0.113 A 
ATOM     13  N   UNL     1      12.300   2.063  -0.303  0.00  0.00    -0.189 NA
ATOM     14  C   UNL     1      11.292   1.224  -0.316  0.00  0.00    +0.233 A 
ATOM     15  O   UNL     1      11.746  -0.041  -0.400  0.00  0.00    -0.434 OA
ENDBRANCH   1  14
BRANCH   6  16
ATOM     16  O   UNL     1      10.473   3.921  -0.132  0.00  0.00    -0.506 OA
ATOM     17  H   UNL     1      10.190   4.982  -0.060  0.00  0.00    +0.292 HD
ENDBRANCH   6  16
BRANCH   4  18
ATOM     18  N   UNL     1       5.849   2.694  -0.038  0.00  0.00    -0.296 N 
ATOM     19  H   UNL     1       5.111   2.190  -0.680  0.00  0.00    +0.154 HD
BRANCH  18  20
ATOM     20  C   UNL     1       5.452   3.660   0.814  0.00  0.00    +0.141 C 
ATOM     21  S   UNL     1       6.573   4.345   1.913  0.00  0.00    -0.018 S 
BRANCH  20  22
ATOM     22  N   UNL     1       4.174   4.086   0.802  0.00  0.00    -0.263 N 
ATOM     23  C   UNL     1       3.777   5.051   1.655  0.00  0.00    +0.256 C 
ATOM     24  O   UNL     1       4.574   5.539   2.435  0.00  0.00    -0.269 OA
ATOM     25  H   UNL     1       3.454   3.645   0.097  0.00  0.00    +0.157 HD
BRANCH  23  26
ATOM     26  C   UNL     1       2.388   5.514   1.642  0.00  0.00    +0.074 A 
ATOM     27  C   UNL     1       1.782   6.485   2.426  0.00  0.00    +0.021 A 
ATOM     28  C   UNL     1       0.448   6.722   2.208  0.00  0.00    +0.008 A 
ATOM     29  C   UNL     1      -0.202   6.016   1.245  0.00  0.00    +0.046 A 
ATOM     30  S   UNL     1       1.033   4.977   0.613  0.00  0.00    -0.092 S 
ENDBRANCH  23  26
ENDBRANCH  20  22
ENDBRANCH  18  20
ENDBRANCH   4  18
TORSDOF 6
