REMARK  Name = ZINC49421136
REMARK  4 active torsions:
REMARK  status: ('A' for Active; 'I' for Inactive)
REMARK    1  A    between atoms: C_4  and  C_7
REMARK    2  A    between atoms: C_7  and  N_8
REMARK    3  A    between atoms: C_9  and  C_11
REMARK    4  A    between atoms: C_26  and  C_29
REMARK                            x       y       z     vdW  Elec       q    Type
REMARK                         _______ _______ _______ _____ _____    ______ ____
ROOT
ATOM      1  C   UNL     1       5.623  -1.777   3.258  0.00  0.00    +0.092 C 
ATOM      2  C   UNL     1       6.003  -0.429   3.876  0.00  0.00    +0.016 C 
ATOM      3  C   UNL     1       6.649  -0.658   5.245  0.00  0.00    +0.020 C 
ATOM      4  C   UNL     1       7.926  -1.487   5.070  0.00  0.00    +0.108 C 
ATOM      5  N   UNL     1       7.593  -2.721   4.346  0.00  0.00    -0.300 N 
ATOM      6  C   UNL     1       6.888  -2.619   3.061  0.00  0.00    +0.120 C 
ATOM      7  C   UNL     1       7.934  -3.948   4.861  0.00  0.00    +0.199 A 
ATOM      8  N   UNL     1       7.716  -5.060   4.101  0.00  0.00    -0.294 N 
ATOM      9  H   UNL     1       7.327  -4.979   3.216  0.00  0.00    +0.172 HD
ATOM     10  C   UNL     1       8.046  -6.279   4.592  0.00  0.00    +0.267 A 
ATOM     11  O   UNL     1       7.862  -7.290   3.935  0.00  0.00    -0.267 OA
ATOM     12  C   UNL     1       8.601  -6.345   5.869  0.00  0.00    +0.103 A 
ATOM     13  C   UNL     1       8.814  -5.184   6.628  0.00  0.00    +0.094 A 
ATOM     14  N   UNL     1       8.459  -4.002   6.057  0.00  0.00    -0.215 NA
ATOM     15  C   UNL     1       9.400  -5.460   7.929  0.00  0.00    +0.015 A 
ATOM     16  C   UNL     1       9.666  -6.751   8.252  0.00  0.00    +0.056 A 
ATOM     17  S   UNL     1       9.180  -7.647   6.919  0.00  0.00    -0.089 S 
ENDROOT
BRANCH  15  18
ATOM     18  C   UNL     1       9.701  -4.360   8.877  0.00  0.00    -0.015 A 
ATOM     19  C   UNL     1      10.413  -3.241   8.448  0.00  0.00    +0.008 A 
ATOM     20  C   UNL     1      10.690  -2.221   9.335  0.00  0.00    +0.001 A 
ATOM     21  C   UNL     1      10.262  -2.307  10.648  0.00  0.00    +0.000 A 
ATOM     22  C   UNL     1       9.556  -3.415  11.079  0.00  0.00    +0.001 A 
ATOM     23  C   UNL     1       9.268  -4.439  10.200  0.00  0.00    +0.008 A 
ENDBRANCH  15  18
BRANCH   1  25
ATOM     24  N   UNL     1       3.821  -0.828   1.854  0.00  0.00    -0.311 N 
ATOM     25  C   UNL     1       4.958  -1.549   1.925  0.00  0.00    +0.218 C 
ATOM     26  O   UNL     1       5.445  -2.015   0.917  0.00  0.00    -0.275 OA
ATOM     27  H   UNL     1       3.432  -0.455   2.660  0.00  0.00    +0.149 HD
BRANCH  24  28
ATOM     28  C   UNL     1       3.175  -0.606   0.558  0.00  0.00    +0.139 C 
BRANCH  28  32
ATOM     29  C   UNL     1      -0.348   1.746   1.107  0.00  0.00    +0.000 A 
ATOM     30  C   UNL     1       0.865   2.364   0.869  0.00  0.00    +0.000 A 
ATOM     31  C   UNL     1       2.005   1.603   0.691  0.00  0.00    +0.005 A 
ATOM     32  C   UNL     1       1.932   0.224   0.753  0.00  0.00    -0.030 A 
ATOM     33  C   UNL     1       0.719  -0.394   0.992  0.00  0.00    +0.005 A 
ATOM     34  C   UNL     1      -0.422   0.367   1.168  0.00  0.00    +0.000 A 
ENDBRANCH  28  32
ENDBRANCH  24  28
ENDBRANCH   1  25
TORSDOF 4
