REMARK  Name = ZINC23757550
REMARK  7 active torsions:
REMARK  status: ('A' for Active; 'I' for Inactive)
REMARK    1  A    between atoms: C_1  and  C_2
REMARK    2  A    between atoms: C_2  and  C_4
REMARK    3  A    between atoms: C_2  and  N_11
REMARK    4  A    between atoms: N_9  and  C_10
REMARK    5  A    between atoms: N_14  and  S_17
REMARK    6  A    between atoms: S_17  and  C_20
REMARK    7  A    between atoms: C_24  and  C_26
REMARK                            x       y       z     vdW  Elec       q    Type
REMARK                         _______ _______ _______ _____ _____    ______ ____
ROOT
ATOM      1  N   UNL     1      -3.010   3.336  -2.385  0.00  0.00    +0.389 N 
ATOM      2  C   UNL     1      -2.562   4.463  -1.556  0.00  0.00    -0.060 C 
ATOM      3  C   UNL     1      -1.180   4.146  -0.973  0.00  0.00    +0.091 C 
ATOM      4  N   UNL     1      -1.253   2.852  -0.278  0.00  0.00    -0.180 NA
ATOM      5  C   UNL     1      -1.814   1.703  -1.003  0.00  0.00    +0.091 C 
ATOM      6  C   UNL     1      -3.176   2.117  -1.583  0.00  0.00    -0.060 C 
ATOM      7  H   UNL     1      -2.228   3.140  -3.134  0.00  0.00    -0.081 HD
ENDROOT
BRANCH   4   8
ATOM      8  S   UNL     1      -0.710   2.692   1.278  0.00  0.00    +0.061 S 
ATOM      9  O   UNL     1      -0.391   1.319   1.458  0.00  0.00    -0.153 OA
ATOM     10  O   UNL     1       0.240   3.728   1.486  0.00  0.00    -0.153 OA
BRANCH   8  11
ATOM     11  C   UNL     1      -2.071   3.037   2.343  0.00  0.00    +0.106 A 
ATOM     12  C   UNL     1      -2.297   4.329   2.778  0.00  0.00    +0.030 A 
ATOM     13  C   UNL     1      -3.368   4.601   3.609  0.00  0.00    +0.022 A 
ATOM     14  C   UNL     1      -4.206   3.577   4.014  0.00  0.00    +0.053 A 
ATOM     15  C   UNL     1      -3.975   2.283   3.583  0.00  0.00    +0.075 A 
ATOM     16  C   UNL     1      -2.908   2.014   2.748  0.00  0.00    +0.042 A 
ATOM     17 CL   UNL     1      -5.548   3.917   5.063  0.00  0.00    -0.083 Cl
BRANCH  15  18
ATOM     18  C   UNL     1      -4.888   1.168   4.023  0.00  0.00    +0.419 C 
ATOM     19  F   UNL     1      -4.455  -0.038   3.462  0.00  0.00    -0.166 F 
ATOM     20  F   UNL     1      -4.863   1.068   5.418  0.00  0.00    -0.166 F 
ATOM     21  F   UNL     1      -6.193   1.438   3.598  0.00  0.00    -0.166 F 
ENDBRANCH  15  18
ENDBRANCH   8  11
ENDBRANCH   4   8
BRANCH   1  23
ATOM     22  C   UNL     1      -4.723   2.451  -3.895  0.00  0.00    -0.004 C 
ATOM     23  C   UNL     1      -4.250   3.669  -3.100  0.00  0.00    +0.017 C 
BRANCH  23  24
ATOM     24  C   UNL     1      -3.993   4.816  -4.044  0.00  0.00    +0.207 C 
ATOM     25  O   UNL     1      -2.881   4.993  -4.495  0.00  0.00    -0.277 OA
ATOM     26  N   UNL     1      -4.999   5.644  -4.387  0.00  0.00    -0.242 N 
ATOM     27  C   UNL     1      -4.769   6.670  -5.231  0.00  0.00    +0.306 C 
ATOM     28  O   UNL     1      -3.655   6.847  -5.683  0.00  0.00    -0.252 OA
ATOM     29  N   UNL     1      -5.776   7.498  -5.574  0.00  0.00    -0.302 N 
ATOM     30  C   UNL     1      -5.526   8.613  -6.492  0.00  0.00    +0.129 C 
ATOM     31  H   UNL     1      -6.008   5.484  -3.978  0.00  0.00    +0.159 HD
ATOM     32  H   UNL     1      -6.784   7.338  -5.165  0.00  0.00    +0.150 HD
ENDBRANCH  23  24
ENDBRANCH   1  23
TORSDOF 5
