REMARK  Name = ZINC22884701
REMARK  5 active torsions:
REMARK  status: ('A' for Active; 'I' for Inactive)
REMARK    1  A    between atoms: C_4  and  C_7
REMARK    2  A    between atoms: N_18  and  N_19
REMARK    3  A    between atoms: N_19  and  C_20
REMARK    4  A    between atoms: C_20  and  N_22
REMARK    5  A    between atoms: N_22  and  C_23
REMARK                            x       y       z     vdW  Elec       q    Type
REMARK                         _______ _______ _______ _____ _____    ______ ____
ROOT
ATOM      1  C   UNL     1       3.743  -1.047   0.180  0.00  0.00    +0.061 C 
ATOM      2  C   UNL     1       4.239  -0.626  -1.192  0.00  0.00    +0.103 C 
ATOM      3  N   UNL     1       5.653  -0.598  -1.422  0.00  0.00    -0.299 NA
ATOM      4  C   UNL     1       6.316  -1.805  -1.854  0.00  0.00    +0.100 C 
ATOM      5  C   UNL     1       5.788  -3.059  -1.228  0.00  0.00    +0.100 C 
ATOM      6  N   UNL     1       5.365  -2.854   0.132  0.00  0.00    -0.299 NA
ATOM      7  C   UNL     1       3.953  -2.562   0.349  0.00  0.00    +0.103 C 
ATOM      8  C   UNL     1       6.320  -2.132   0.961  0.00  0.00    +0.095 C 
ATOM      9  C   UNL     1       6.100  -0.623   0.996  0.00  0.00    +0.064 C 
ATOM     10  C   UNL     1       6.435   0.032  -0.344  0.00  0.00    +0.095 C 
ATOM     11  C   UNL     1       4.611  -0.390   1.248  0.00  0.00    +0.055 C 
ATOM     12  N   UNL     1       4.148   0.303   2.220  0.00  0.00    -0.189 NA
ENDROOT
BRANCH   1  16
ATOM     13  C   UNL     1      -0.368  -0.006   0.696  0.00  0.00    +0.000 A 
ATOM     14  C   UNL     1       0.564   0.976   0.417  0.00  0.00    +0.000 A 
ATOM     15  C   UNL     1       1.894   0.639   0.250  0.00  0.00    +0.004 A 
ATOM     16  C   UNL     1       2.293  -0.680   0.363  0.00  0.00    -0.033 A 
ATOM     17  C   UNL     1       1.361  -1.662   0.643  0.00  0.00    +0.004 A 
ATOM     18  C   UNL     1       0.031  -1.325   0.808  0.00  0.00    +0.000 A 
ENDBRANCH   1  16
BRANCH  12  19
ATOM     19  N   UNL     1       5.023   0.870   3.155  0.00  0.00    -0.218 N 
ATOM     20  H   UNL     1       5.980   0.737   3.067  0.00  0.00    +0.176 HD
BRANCH  19  21
ATOM     21  C   UNL     1       4.536   1.599   4.179  0.00  0.00    +0.154 C 
ATOM     22  S   UNL     1       5.606   2.291   5.322  0.00  0.00    -0.017 S 
BRANCH  21  23
ATOM     23  N   UNL     1       3.207   1.782   4.302  0.00  0.00    -0.296 N 
ATOM     24  H   UNL     1       2.605   1.443   3.621  0.00  0.00    +0.154 HD
BRANCH  23  25
ATOM     25  C   UNL     1       2.695   2.463   5.412  0.00  0.00    +0.033 A 
ATOM     26  C   UNL     1       3.283   3.648   5.833  0.00  0.00    +0.023 A 
ATOM     27  C   UNL     1       2.775   4.318   6.929  0.00  0.00    +0.002 A 
ATOM     28  C   UNL     1       1.682   3.809   7.607  0.00  0.00    +0.000 A 
ATOM     29  C   UNL     1       1.094   2.630   7.189  0.00  0.00    +0.002 A 
ATOM     30  C   UNL     1       1.593   1.958   6.090  0.00  0.00    +0.023 A 
ENDBRANCH  23  25
ENDBRANCH  21  23
ENDBRANCH  19  21
ENDBRANCH  12  19
TORSDOF 5
