REMARK  Name = ZINC32000119
REMARK  7 active torsions:
REMARK  status: ('A' for Active; 'I' for Inactive)
REMARK    1  A    between atoms: C_4  and  N_7
REMARK    2  A    between atoms: C_8  and  C_15
REMARK    3  A    between atoms: C_10  and  C_12
REMARK    4  A    between atoms: N_17  and  C_18
REMARK    5  A    between atoms: C_18  and  C_19
REMARK    6  A    between atoms: C_23  and  N_25
REMARK    7  A    between atoms: C_26  and  C_28
REMARK                            x       y       z     vdW  Elec       q    Type
REMARK                         _______ _______ _______ _____ _____    ______ ____
ROOT
ATOM      1  C   UNL     1      -1.113  -0.883   0.585  0.00  0.00    +0.263 C 
ATOM      2  O   UNL     1      -2.226  -0.425   0.765  0.00  0.00    -0.269 OA
ATOM      3  N   UNL     1      -0.904  -2.209   0.696  0.00  0.00    -0.306 N 
ATOM      4  H   UNL     1       0.116  -2.614   0.614  0.00  0.00    +0.149 HD
ENDROOT
BRANCH   1   6
ATOM      5  N   UNL     1      -0.078   1.356  -0.008  0.00  0.00    -0.227 N 
ATOM      6  C   UNL     1       0.003   0.012   0.244  0.00  0.00    +0.129 A 
ATOM      7  C   UNL     1       1.331  -0.343   0.119  0.00  0.00    +0.058 A 
ATOM      8  C   UNL     1       2.047   0.805  -0.212  0.00  0.00    +0.067 A 
ATOM      9  N   UNL     1       1.216   1.814  -0.289  0.00  0.00    -0.170 NA
BRANCH   5  13
ATOM     10  C   UNL     1      -3.547   3.664   0.046  0.00  0.00    +0.000 A 
ATOM     11  C   UNL     1      -2.393   4.138   0.644  0.00  0.00    +0.002 A 
ATOM     12  C   UNL     1      -1.242   3.375   0.627  0.00  0.00    +0.028 A 
ATOM     13  C   UNL     1      -1.244   2.131   0.010  0.00  0.00    +0.066 A 
ATOM     14  C   UNL     1      -2.402   1.661  -0.594  0.00  0.00    +0.028 A 
ATOM     15  C   UNL     1      -3.552   2.426  -0.569  0.00  0.00    +0.002 A 
ENDBRANCH   5  13
BRANCH   8  16
ATOM     16  C   UNL     1       3.534   0.874  -0.445  0.00  0.00    +0.040 C 
ATOM     17  C   UNL     1       4.383  -0.298   0.053  0.00  0.00    +0.010 C 
ATOM     18  C   UNL     1       4.433   1.047   0.781  0.00  0.00    +0.010 C 
ENDBRANCH   8  16
ENDBRANCH   1   6
BRANCH   3  19
ATOM     19  C   UNL     1      -2.034  -3.113   0.926  0.00  0.00    +0.140 C 
BRANCH  19  20
ATOM     20  C   UNL     1      -1.534  -4.532   1.012  0.00  0.00    -0.029 A 
ATOM     21  C   UNL     1      -1.161  -5.060   2.235  0.00  0.00    +0.005 A 
ATOM     22  C   UNL     1      -0.701  -6.361   2.318  0.00  0.00    +0.002 A 
ATOM     23  C   UNL     1      -0.613  -7.138   1.179  0.00  0.00    +0.023 A 
ATOM     24  C   UNL     1      -0.986  -6.611  -0.050  0.00  0.00    +0.034 A 
ATOM     25  C   UNL     1      -1.453  -5.305  -0.130  0.00  0.00    +0.028 A 
BRANCH  24  26
ATOM     26  N   UNL     1      -0.898  -7.395  -1.205  0.00  0.00    -0.279 N 
ATOM     27  C   UNL     1      -1.161  -8.715  -1.144  0.00  0.00    +0.284 C 
ATOM     28  O   UNL     1      -1.389  -9.242  -0.071  0.00  0.00    -0.266 OA
ATOM     29  H   UNL     1      -0.615  -6.933  -2.163  0.00  0.00    +0.155 HD
BRANCH  27  30
ATOM     30  C   UNL     1      -1.170  -9.518  -2.372  0.00  0.00    +0.189 A 
ATOM     31  C   UNL     1      -1.419 -10.858  -2.452  0.00  0.00    +0.054 A 
ATOM     32  C   UNL     1      -1.327 -11.205  -3.809  0.00  0.00    +0.042 A 
ATOM     33  C   UNL     1      -1.028 -10.076  -4.489  0.00  0.00    +0.196 A 
ATOM     34  O   UNL     1      -0.940  -9.060  -3.620  0.00  0.00    -0.458 OA
ENDBRANCH  27  30
ENDBRANCH  24  26
ENDBRANCH  19  20
ENDBRANCH   3  19
TORSDOF 7
