REMARK  Name = ZINC37525861
REMARK  9 active torsions:
REMARK  status: ('A' for Active; 'I' for Inactive)
REMARK    1  A    between atoms: C_1  and  C_2
REMARK    2  A    between atoms: C_2  and  C_4
REMARK    3  A    between atoms: C_2  and  N_7
REMARK    4  A    between atoms: C_4  and  C_5
REMARK    5  A    between atoms: C_4  and  C_6
REMARK    6  A    between atoms: C_8  and  C_10
REMARK    7  A    between atoms: C_15  and  N_16
REMARK    8  A    between atoms: C_19  and  N_22
REMARK    9  A    between atoms: N_25  and  C_26
REMARK                            x       y       z     vdW  Elec       q    Type
REMARK                         _______ _______ _______ _____ _____    ______ ____
ROOT
ATOM      1  N   UNL     1      -3.546  -0.959  -3.545  0.00  0.00    -0.329 N 
ATOM      2  C   UNL     1      -2.787  -1.949  -4.320  0.00  0.00    +0.107 C 
ATOM      3  C   UNL     1      -3.341  -1.988  -5.748  0.00  0.00    +0.041 C 
ATOM      4  C   UNL     1      -3.319  -0.577  -6.338  0.00  0.00    +0.077 C 
ATOM      5  C   UNL     1      -4.208   0.344  -5.500  0.00  0.00    +0.041 C 
ATOM      6  C   UNL     1      -3.669   0.407  -4.072  0.00  0.00    +0.107 C 
ENDROOT
BRANCH   1  12
ATOM      7  C   UNL     1      -3.432  -1.166  -1.137  0.00  0.00    +0.058 A 
ATOM      8  C   UNL     1      -4.044  -1.516   0.070  0.00  0.00    +0.015 A 
ATOM      9  C   UNL     1      -5.333  -2.002   0.071  0.00  0.00    +0.001 A 
ATOM     10  C   UNL     1      -6.028  -2.146  -1.120  0.00  0.00    +0.002 A 
ATOM     11  C   UNL     1      -5.438  -1.806  -2.319  0.00  0.00    +0.024 A 
ATOM     12  C   UNL     1      -4.141  -1.308  -2.340  0.00  0.00    +0.042 A 
BRANCH   7  14
ATOM     13  N   UNL     1      -1.376  -0.512   0.013  0.00  0.00    -0.308 N 
ATOM     14  C   UNL     1      -2.053  -0.646  -1.145  0.00  0.00    +0.246 C 
ATOM     15  O   UNL     1      -1.525  -0.338  -2.196  0.00  0.00    -0.270 OA
ATOM     16  H   UNL     1      -1.797  -0.757   0.852  0.00  0.00    +0.149 HD
BRANCH  13  18
ATOM     17  C   UNL     1      -0.037   1.535   0.017  0.00  0.00    +0.028 C 
ATOM     18  C   UNL     1      -0.005   0.005   0.005  0.00  0.00    +0.073 C 
BRANCH  18  19
ATOM     19  C   UNL     1       0.737  -0.499   1.245  0.00  0.00    +0.003 C 
ATOM     20  C   UNL     1       2.168   0.041   1.236  0.00  0.00    +0.009 C 
ATOM     21  C   UNL     1       0.016  -0.013   2.504  0.00  0.00    +0.009 C 
ENDBRANCH  18  19
ENDBRANCH  13  18
ENDBRANCH   7  14
ENDBRANCH   1  12
BRANCH   4  22
ATOM     22  N   UNL     1      -3.817  -0.616  -7.715  0.00  0.00    -0.296 N 
ATOM     23  C   UNL     1      -3.444   0.335  -8.595  0.00  0.00    +0.304 C 
ATOM     24  O   UNL     1      -2.693   1.225  -8.245  0.00  0.00    -0.253 OA
ATOM     25  N   UNL     1      -3.903   0.299  -9.861  0.00  0.00    -0.269 N 
ATOM     26  H   UNL     1      -4.417  -1.326  -7.994  0.00  0.00    +0.151 HD
ATOM     27  H   UNL     1      -4.447  -0.446 -10.159  0.00  0.00    +0.156 HD
BRANCH  25  28
ATOM     28  C   UNL     1      -3.594   1.338 -10.747  0.00  0.00    +0.035 A 
ATOM     29  C   UNL     1      -4.524   1.744 -11.695  0.00  0.00    +0.023 A 
ATOM     30  C   UNL     1      -4.216   2.769 -12.567  0.00  0.00    +0.002 A 
ATOM     31  C   UNL     1      -2.983   3.391 -12.498  0.00  0.00    +0.000 A 
ATOM     32  C   UNL     1      -2.055   2.989 -11.556  0.00  0.00    +0.002 A 
ATOM     33  C   UNL     1      -2.358   1.968 -10.677  0.00  0.00    +0.023 A 
ENDBRANCH  25  28
ENDBRANCH   4  22
TORSDOF 6
