REMARK  Name = ZINC46790230
REMARK  10 active torsions:
REMARK  status: ('A' for Active; 'I' for Inactive)
REMARK    1  A    between atoms: C_1  and  C_2
REMARK    2  A    between atoms: C_2  and  C_3
REMARK    3  A    between atoms: C_3  and  C_4
REMARK    4  A    between atoms: C_5  and  C_28
REMARK    5  A    between atoms: C_7  and  C_9
REMARK    6  A    between atoms: N_11  and  C_12
REMARK    7  A    between atoms: C_16  and  N_18
REMARK    8  A    between atoms: C_19  and  C_21
REMARK    9  A    between atoms: C_25  and  C_26
REMARK   10  A    between atoms: C_28  and  C_29
REMARK                            x       y       z     vdW  Elec       q    Type
REMARK                         _______ _______ _______ _____ _____    ______ ____
ROOT
ATOM      1  C   UNL     1       3.240  -7.400   0.247  0.00  0.00    +0.036 A 
ATOM      2  C   UNL     1       2.977  -8.466  -0.603  0.00  0.00    +0.026 A 
ATOM      3  C   UNL     1       3.399  -9.739  -0.270  0.00  0.00    +0.042 A 
ATOM      4  C   UNL     1       4.085  -9.955   0.911  0.00  0.00    +0.145 A 
ATOM      5  C   UNL     1       4.352  -8.891   1.766  0.00  0.00    +0.071 A 
ATOM      6  C   UNL     1       3.933  -7.612   1.431  0.00  0.00    +0.049 A 
ATOM      7  F   UNL     1       4.496 -11.201   1.235  0.00  0.00    -0.204 F 
ENDROOT
BRANCH   1  10
ATOM      8  C   UNL     1       1.644  -5.939  -0.743  0.00  0.00    +0.255 C 
ATOM      9  O   UNL     1       1.005  -6.906  -1.113  0.00  0.00    -0.269 OA
ATOM     10  N   UNL     1       2.812  -6.111  -0.092  0.00  0.00    -0.281 N 
ATOM     11  H   UNL     1       3.355  -5.342   0.142  0.00  0.00    +0.155 HD
BRANCH   8  15
ATOM     12  C   UNL     1       0.704  -1.996  -1.220  0.00  0.00    -0.006 A 
ATOM     13  C   UNL     1      -0.219  -2.838  -1.747  0.00  0.00    -0.037 A 
ATOM     14  C   UNL     1      -0.018  -4.194  -1.651  0.00  0.00    +0.024 A 
ATOM     15  C   UNL     1       1.145  -4.586  -1.005  0.00  0.00    +0.075 A 
ATOM     16  S   UNL     1       1.877  -3.016  -0.585  0.00  0.00    -0.088 S 
BRANCH  13  17
ATOM     17  C   UNL     1      -1.449  -2.294  -2.428  0.00  0.00    +0.032 C 
ATOM     18  C   UNL     1      -1.125  -1.977  -3.889  0.00  0.00    +0.009 C 
ENDBRANCH  13  17
BRANCH  12  19
ATOM     19  C   UNL     1       0.684  -0.489  -1.212  0.00  0.00    +0.042 C 
BRANCH  19  21
ATOM     20  C   UNL     1      -0.040   1.535   0.061  0.00  0.00    +0.004 C 
ATOM     21  C   UNL     1      -0.020   0.005   0.053  0.00  0.00    +0.002 C 
ENDBRANCH  19  21
ENDBRANCH  12  19
ENDBRANCH   8  15
ENDBRANCH   1  10
BRANCH   5  22
ATOM     22  N   UNL     1       5.046  -9.110   2.962  0.00  0.00    -0.279 N 
ATOM     23  C   UNL     1       5.739  -8.104   3.533  0.00  0.00    +0.252 C 
ATOM     24  O   UNL     1       5.845  -7.037   2.959  0.00  0.00    -0.270 OA
ATOM     25  H   UNL     1       5.029  -9.985   3.380  0.00  0.00    +0.155 HD
BRANCH  23  26
ATOM     26  C   UNL     1       6.368  -8.299   4.851  0.00  0.00    +0.078 A 
ATOM     27  C   UNL     1       6.346  -9.515   5.676  0.00  0.00    +0.054 A 
ATOM     28  C   UNL     1       7.047  -9.224   6.782  0.00  0.00    +0.196 A 
ATOM     29  O   UNL     1       7.486  -7.958   6.704  0.00  0.00    -0.467 OA
ATOM     30  C   UNL     1       7.098  -7.388   5.559  0.00  0.00    +0.114 A 
ATOM     31  C   UNL     1       7.410  -5.979   5.125  0.00  0.00    +0.087 C 
ENDBRANCH  23  26
ENDBRANCH   5  22
TORSDOF 7
