REMARK  Name = ZINC05920389
REMARK  6 active torsions:
REMARK  status: ('A' for Active; 'I' for Inactive)
REMARK    1  A    between atoms: C_1  and  C_2
REMARK    2  A    between atoms: C_2  and  C_4
REMARK    3  A    between atoms: C_2  and  S_19
REMARK    4  A    between atoms: N_6  and  N_7
REMARK    5  A    between atoms: C_8  and  C_9
REMARK    6  A    between atoms: S_19  and  C_20
REMARK                            x       y       z     vdW  Elec       q    Type
REMARK                         _______ _______ _______ _____ _____    ______ ____
ROOT
ATOM      1  C   UNL     1       1.447   7.794   0.031  0.00  0.00    +0.245 C 
ATOM      2  O   UNL     1       0.243   7.950   0.044  0.00  0.00    -0.273 OA
ATOM      3  N   UNL     1       1.966   6.551   0.019  0.00  0.00    -0.206 N 
ATOM      4  H   UNL     1       2.928   6.426   0.009  0.00  0.00    +0.177 HD
ENDROOT
BRANCH   1   6
ATOM      5  C   UNL     1       2.756   9.330  -1.410  0.00  0.00    +0.029 C 
ATOM      6  C   UNL     1       2.361   8.992   0.029  0.00  0.00    +0.138 C 
BRANCH   6   7
ATOM      7  S   UNL     1       1.505  10.406   0.766  0.00  0.00    -0.086 S 
BRANCH   7   8
ATOM      8  C   UNL     1       2.814  11.586   0.776  0.00  0.00    +0.136 A 
ATOM      9  N   UNL     1       4.053  11.445   0.363  0.00  0.00    -0.233 NA
ATOM     10  C   UNL     1       4.958  12.446   0.428  0.00  0.00    +0.079 A 
ATOM     11  C   UNL     1       6.311  12.429   0.017  0.00  0.00    +0.029 A 
ATOM     12  C   UNL     1       7.100  13.540   0.159  0.00  0.00    +0.002 A 
ATOM     13  C   UNL     1       6.606  14.715   0.707  0.00  0.00    +0.001 A 
ATOM     14  C   UNL     1       5.287  14.768   1.119  0.00  0.00    +0.017 A 
ATOM     15  C   UNL     1       4.489  13.660   0.981  0.00  0.00    +0.040 A 
ATOM     16  S   UNL     1       2.795  13.276   1.356  0.00  0.00    -0.061 S 
ENDBRANCH   7   8
ENDBRANCH   6   7
ENDBRANCH   1   6
BRANCH   3  17
ATOM     17  N   UNL     1       1.116   5.437   0.021  0.00  0.00    -0.188 NA
ATOM     18  C   UNL     1       1.616   4.238   0.009  0.00  0.00    +0.140 C 
BRANCH  18  19
ATOM     19  C   UNL     1       0.723   3.068   0.012  0.00  0.00    +0.020 A 
ATOM     20  C   UNL     1       1.096   1.760   0.001  0.00  0.00    +0.093 A 
ATOM     21  N   UNL     1      -0.011   0.966   0.007  0.00  0.00    -0.360 N 
ATOM     22  H   UNL     1       0.002  -0.004   0.002  0.00  0.00    +0.165 HD
ATOM     23  C   UNL     1      -1.153   1.738   0.016  0.00  0.00    +0.047 A 
ATOM     24  C   UNL     1      -0.751   3.085   0.026  0.00  0.00    +0.008 A 
ATOM     25  C   UNL     1      -1.706   4.098   0.040  0.00  0.00    +0.010 A 
ATOM     26  C   UNL     1      -3.045   3.774   0.051  0.00  0.00    +0.001 A 
ATOM     27  C   UNL     1      -3.443   2.445   0.048  0.00  0.00    +0.002 A 
ATOM     28  C   UNL     1      -2.510   1.432   0.033  0.00  0.00    +0.026 A 
ENDBRANCH  18  19
ENDBRANCH   3  17
TORSDOF 5
