REMARK  Name = ZINC36556722
REMARK  18 active torsions:
REMARK  status: ('A' for Active; 'I' for Inactive)
REMARK    1  A    between atoms: C_1  and  C_2
REMARK    2  A    between atoms: C_7  and  C_8
REMARK    3  A    between atoms: C_8  and  C_9
REMARK    4  A    between atoms: N_11  and  C_12
REMARK    5  A    between atoms: N_11  and  C_19
REMARK    6  A    between atoms: C_12  and  C_13
REMARK    7  A    between atoms: C_16  and  C_18
REMARK    8  A    between atoms: C_19  and  C_21
REMARK    9  A    between atoms: C_19  and  C_30
REMARK   10  A    between atoms: C_24  and  N_27
REMARK   11  A    between atoms: N_32  and  C_33
REMARK   12  A    between atoms: C_33  and  C_34
REMARK   13  A    between atoms: C_33  and  C_35
REMARK   14  A    between atoms: C_33  and  C_36
REMARK   15  A    between atoms: C_36  and  C_37
REMARK   16  A    between atoms: C_37  and  C_38
REMARK   17  A    between atoms: C_37  and  C_39
REMARK   18  A    between atoms: C_37  and  C_40
REMARK                            x       y       z     vdW  Elec       q    Type
REMARK                         _______ _______ _______ _____ _____    ______ ____
ROOT
ATOM      1  C   UNL     1      -2.102   0.710   5.816  0.00  0.00    +0.193 C 
ENDROOT
BRANCH   1   2
ATOM      2  C   UNL     1      -1.786   2.001   6.527  0.00  0.00    -0.018 A 
ATOM      3  C   UNL     1      -1.397   1.982   7.854  0.00  0.00    +0.008 A 
ATOM      4  C   UNL     1      -1.108   3.166   8.506  0.00  0.00    +0.033 A 
ATOM      5  C   UNL     1      -1.206   4.369   7.832  0.00  0.00    +0.126 A 
ATOM      6  C   UNL     1      -1.594   4.388   6.505  0.00  0.00    +0.033 A 
ATOM      7  C   UNL     1      -1.880   3.203   5.851  0.00  0.00    +0.008 A 
BRANCH   5   8
ATOM      8  N   UNL     1      -0.897   5.636   8.530  0.00  0.00    +0.056 N 
ATOM      9  O   UNL     1      -0.558   5.620   9.691  0.00  0.00    -0.126 OA
ATOM     10  O   UNL     1      -0.983   6.688   7.941  0.00  0.00    -0.126 OA
ENDBRANCH   5   8
ENDBRANCH   1   2
BRANCH   1  11
ATOM     11  C   UNL     1      -3.446   0.202   6.271  0.00  0.00    +0.239 C 
ATOM     12  O   UNL     1      -3.513  -0.743   7.027  0.00  0.00    -0.273 OA
ATOM     13  N   UNL     1      -4.574   0.799   5.837  0.00  0.00    -0.308 N 
ATOM     14  H   UNL     1      -4.521   1.555   5.232  0.00  0.00    +0.149 HD
BRANCH  13  15
ATOM     15  C   UNL     1      -5.881   0.305   6.279  0.00  0.00    +0.030 C 
ATOM     16  C   UNL     1      -6.102  -1.108   5.736  0.00  0.00    +0.031 C 
ATOM     17  C   UNL     1      -5.924   0.276   7.808  0.00  0.00    +0.031 C 
BRANCH  15  18
ATOM     18  C   UNL     1      -6.980   1.231   5.755  0.00  0.00    +0.031 C 
BRANCH  18  19
ATOM     19  C   UNL     1      -6.505   2.683   5.835  0.00  0.00    -0.036 C 
ATOM     20  C   UNL     1      -5.785   3.057   4.538  0.00  0.00    +0.010 C 
ATOM     21  C   UNL     1      -7.711   3.604   6.033  0.00  0.00    +0.010 C 
ATOM     22  C   UNL     1      -5.545   2.841   7.016  0.00  0.00    +0.010 C 
ENDBRANCH  18  19
ENDBRANCH  15  18
ENDBRANCH  13  15
ENDBRANCH   1  11
BRANCH   1  25
ATOM     23  C   UNL     1       0.227   0.005   5.923  0.00  0.00    +0.221 C 
ATOM     24  O   UNL     1       0.545   1.088   5.480  0.00  0.00    -0.275 OA
ATOM     25  N   UNL     1      -1.073  -0.284   6.129  0.00  0.00    -0.278 N 
BRANCH  23  26
ATOM     26  C   UNL     1       1.286  -1.018   6.245  0.00  0.00    +0.131 C 
BRANCH  26  33
ATOM     27  C   UNL     1       2.662   0.612   8.194  0.00  0.00    +0.044 C 
ATOM     28  C   UNL     1       3.304   0.329   6.860  0.00  0.00    -0.047 A 
ATOM     29  C   UNL     1       4.554   0.845   6.571  0.00  0.00    +0.003 A 
ATOM     30  C   UNL     1       5.142   0.585   5.347  0.00  0.00    +0.000 A 
ATOM     31  C   UNL     1       4.482  -0.191   4.413  0.00  0.00    +0.000 A 
ATOM     32  C   UNL     1       3.233  -0.707   4.702  0.00  0.00    +0.004 A 
ATOM     33  C   UNL     1       2.646  -0.451   5.928  0.00  0.00    -0.036 A 
ENDBRANCH  26  33
ENDBRANCH  23  26
BRANCH  25  34
ATOM     34  C   UNL     1      -1.457  -1.592   6.664  0.00  0.00    +0.183 C 
BRANCH  34  35
ATOM     35  C   UNL     1      -1.386  -1.560   8.169  0.00  0.00    +0.122 A 
ATOM     36  C   UNL     1      -2.424  -1.368   9.002  0.00  0.00    +0.046 A 
ATOM     37  C   UNL     1      -1.908  -1.413  10.318  0.00  0.00    +0.045 A 
ATOM     38  C   UNL     1      -0.585  -1.630  10.210  0.00  0.00    +0.102 A 
ATOM     39  O   UNL     1      -0.275  -1.724   8.906  0.00  0.00    -0.463 OA
ATOM     40  C   UNL     1       0.384  -1.752  11.357  0.00  0.00    +0.086 C 
ENDBRANCH  34  35
ENDBRANCH  25  34
ENDBRANCH   1  25
TORSDOF 11
