REMARK  Name = ZINC32114552
REMARK  7 active torsions:
REMARK  status: ('A' for Active; 'I' for Inactive)
REMARK    1  A    between atoms: C_1  and  C_2
REMARK    2  A    between atoms: C_4  and  N_20
REMARK    3  A    between atoms: C_7  and  N_8
REMARK    4  A    between atoms: C_9  and  C_11
REMARK    5  A    between atoms: N_20  and  C_21
REMARK    6  A    between atoms: C_21  and  N_23
REMARK    7  A    between atoms: C_24  and  C_26
REMARK                            x       y       z     vdW  Elec       q    Type
REMARK                         _______ _______ _______ _____ _____    ______ ____
ROOT
ATOM      1  C   UNL     1      11.457   7.715   0.012  0.00  0.00    +0.046 C 
ATOM      2  C   UNL     1      10.732   6.394  -0.043  0.00  0.00    -0.027 A 
ATOM      3  C   UNL     1       9.356   6.357   0.056  0.00  0.00    +0.028 A 
ATOM      4  C   UNL     1       8.688   5.141   0.006  0.00  0.00    +0.033 A 
ATOM      5  C   UNL     1       9.406   3.960  -0.138  0.00  0.00    +0.025 A 
ATOM      6  C   UNL     1      10.781   3.997  -0.243  0.00  0.00    +0.025 A 
ATOM      7  C   UNL     1      11.449   5.214  -0.193  0.00  0.00    +0.037 A 
ENDROOT
BRANCH   7   8
ATOM      8  N   UNL     1      12.845   5.252  -0.293  0.00  0.00    -0.279 N 
ATOM      9  C   UNL     1      13.492   4.333  -1.038  0.00  0.00    +0.284 C 
ATOM     10  O   UNL     1      12.867   3.441  -1.581  0.00  0.00    -0.266 OA
ATOM     11  H   UNL     1      13.414   6.030   0.235  0.00  0.00    +0.155 HD
BRANCH   9  12
ATOM     12  C   UNL     1      14.951   4.409  -1.194  0.00  0.00    +0.191 A 
ATOM     13  C   UNL     1      15.706   3.542  -1.918  0.00  0.00    +0.063 A 
ATOM     14  C   UNL     1      17.087   4.004  -1.790  0.00  0.00    +0.021 A 
ATOM     15  C   UNL     1      18.314   3.555  -2.286  0.00  0.00    +0.011 A 
ATOM     16  C   UNL     1      19.459   4.231  -1.973  0.00  0.00    +0.001 A 
ATOM     17  C   UNL     1      19.412   5.359  -1.165  0.00  0.00    +0.004 A 
ATOM     18  C   UNL     1      18.212   5.818  -0.666  0.00  0.00    +0.047 A 
ATOM     19  C   UNL     1      17.033   5.147  -0.972  0.00  0.00    +0.136 A 
ATOM     20  O   UNL     1      15.743   5.354  -0.645  0.00  0.00    -0.450 OA
ENDBRANCH   9  12
ENDBRANCH   7   8
BRANCH   4  21
ATOM     21  N   UNL     1       7.292   5.104   0.107  0.00  0.00    -0.297 N 
ATOM     22  H   UNL     1       6.806   4.348   0.742  0.00  0.00    +0.154 HD
BRANCH  21  23
ATOM     23  C   UNL     1       6.543   5.993  -0.575  0.00  0.00    +0.141 C 
ATOM     24  S   UNL     1       7.300   7.226  -1.490  0.00  0.00    -0.018 S 
BRANCH  23  25
ATOM     25  N   UNL     1       5.198   5.912  -0.536  0.00  0.00    -0.261 N 
ATOM     26  C   UNL     1       4.450   6.802  -1.218  0.00  0.00    +0.285 C 
ATOM     27  O   UNL     1       4.988   7.677  -1.868  0.00  0.00    -0.266 OA
ATOM     28  H   UNL     1       4.712   5.120   0.052  0.00  0.00    +0.157 HD
BRANCH  26  29
ATOM     29  C   UNL     1       2.984   6.713  -1.175  0.00  0.00    +0.191 A 
ATOM     30  C   UNL     1       2.131   7.552  -1.820  0.00  0.00    +0.063 A 
ATOM     31  C   UNL     1       0.783   7.089  -1.492  0.00  0.00    +0.021 A 
ATOM     32  C   UNL     1      -0.502   7.515  -1.834  0.00  0.00    +0.011 A 
ATOM     33  C   UNL     1      -1.589   6.848  -1.343  0.00  0.00    +0.001 A 
ATOM     34  C   UNL     1      -1.424   5.745  -0.516  0.00  0.00    +0.004 A 
ATOM     35  C   UNL     1      -0.164   5.309  -0.167  0.00  0.00    +0.047 A 
ATOM     36  C   UNL     1       0.957   5.974  -0.650  0.00  0.00    +0.136 A 
ATOM     37  O   UNL     1       2.281   5.788  -0.489  0.00  0.00    -0.450 OA
ENDBRANCH  26  29
ENDBRANCH  23  25
ENDBRANCH  21  23
ENDBRANCH   4  21
TORSDOF 6
