REMARK  Name = ZINC31520581
REMARK  8 active torsions:
REMARK  status: ('A' for Active; 'I' for Inactive)
REMARK    1  A    between atoms: C_1  and  C_2
REMARK    2  A    between atoms: N_6  and  C_14
REMARK    3  A    between atoms: C_14  and  C_15
REMARK    4  A    between atoms: N_17  and  C_18
REMARK    5  A    between atoms: C_22  and  O_24
REMARK    6  A    between atoms: O_24  and  C_25
REMARK    7  A    between atoms: C_25  and  C_26
REMARK    8  A    between atoms: N_28  and  C_29
REMARK                            x       y       z     vdW  Elec       q    Type
REMARK                         _______ _______ _______ _____ _____    ______ ____
ROOT
ATOM      1  C   UNL     1      -2.664  -0.538   1.837  0.00  0.00    +0.235 C 
ATOM      2  O   UNL     1      -2.754   0.439   2.550  0.00  0.00    -0.274 OA
ATOM      3  N   UNL     1      -2.729  -1.773   2.375  0.00  0.00    -0.284 N 
ATOM      4  H   UNL     1      -2.724  -2.658   1.722  0.00  0.00    +0.155 HD
ENDROOT
BRANCH   3   5
ATOM      5  C   UNL     1      -2.805  -1.928   3.764  0.00  0.00    +0.037 A 
ATOM      6  C   UNL     1      -3.508  -1.006   4.529  0.00  0.00    +0.023 A 
ATOM      7  C   UNL     1      -3.583  -1.159   5.900  0.00  0.00    +0.005 A 
ATOM      8  C   UNL     1      -2.959  -2.229   6.513  0.00  0.00    +0.046 A 
ATOM      9  C   UNL     1      -2.255  -3.153   5.753  0.00  0.00    +0.123 A 
ATOM     10  C   UNL     1      -2.183  -3.006   4.377  0.00  0.00    +0.069 A 
BRANCH   9  11
ATOM     11  O   UNL     1      -1.643  -4.205   6.358  0.00  0.00    -0.483 OA
BRANCH  11  12
ATOM     12  C   UNL     1      -1.764  -4.297   7.779  0.00  0.00    +0.324 C 
BRANCH  12  13
ATOM     13  C   UNL     1      -1.026  -5.517   8.268  0.00  0.00    +0.250 C 
ATOM     14  O   UNL     1      -0.453  -6.236   7.477  0.00  0.00    -0.272 OA
ATOM     15  N   UNL     1      -1.003  -5.809   9.583  0.00  0.00    -0.316 N 
ATOM     16  C   UNL     1      -0.286  -6.994  10.059  0.00  0.00    +0.128 C 
ATOM     17  H   UNL     1      -1.524  -5.156  10.300  0.00  0.00    +0.148 HD
ENDBRANCH  12  13
ENDBRANCH  11  12
ENDBRANCH   9  11
ENDBRANCH   3   5
BRANCH   1  18
ATOM     18  C   UNL     1      -2.477  -0.373   0.351  0.00  0.00    +0.209 C 
BRANCH  18  23
ATOM     19  C   UNL     1      -3.302   3.308  -2.164  0.00  0.00    +0.062 C 
ATOM     20  C   UNL     1      -3.509   3.179  -0.654  0.00  0.00    +0.256 C 
ATOM     21  C   UNL     1      -3.574   1.720  -0.280  0.00  0.00    +0.261 C 
ATOM     22  O   UNL     1      -4.643   1.147  -0.248  0.00  0.00    -0.271 OA
ATOM     23  N   UNL     1      -2.438   1.054   0.020  0.00  0.00    -0.256 N 
ATOM     24  C   UNL     1      -1.220   1.748   0.009  0.00  0.00    +0.079 A 
ATOM     25  C   UNL     1      -0.015   1.065  -0.008  0.00  0.00    +0.027 A 
ATOM     26  C   UNL     1       1.175   1.770  -0.023  0.00  0.00    +0.002 A 
ATOM     27  C   UNL     1       1.164   3.152  -0.015  0.00  0.00    +0.004 A 
ATOM     28  C   UNL     1      -0.035   3.840   0.007  0.00  0.00    +0.047 A 
ATOM     29  C   UNL     1      -1.230   3.142   0.022  0.00  0.00    +0.143 A 
ATOM     30  O   UNL     1      -2.419   3.802   0.041  0.00  0.00    -0.478 OA
ENDBRANCH  18  23
ENDBRANCH   1  18
TORSDOF 6
