REMARK  Name = ZINC66844361
REMARK  8 active torsions:
REMARK  status: ('A' for Active; 'I' for Inactive)
REMARK    1  A    between atoms: C_1  and  C_2
REMARK    2  A    between atoms: C_2  and  C_4
REMARK    3  A    between atoms: C_2  and  N_15
REMARK    4  A    between atoms: N_6  and  C_7
REMARK    5  A    between atoms: N_15  and  C_16
REMARK    6  A    between atoms: N_15  and  C_17
REMARK    7  A    between atoms: C_17  and  C_18
REMARK    8  A    between atoms: N_20  and  C_21
REMARK                            x       y       z     vdW  Elec       q    Type
REMARK                         _______ _______ _______ _____ _____    ______ ____
ROOT
ATOM      1  N   UNL     1       0.482  -1.308   0.377  0.00  0.00    +0.391 N 
ATOM      2  C   UNL     1       1.854  -0.879   0.677  0.00  0.00    -0.094 C 
ATOM      3  H   UNL     1       0.017  -1.572   1.233  0.00  0.00    -0.080 HD
ENDROOT
BRANCH   1   5
ATOM      4  C   UNL     1      -0.202   1.027   0.653  0.00  0.00    -0.004 C 
ATOM      5  C   UNL     1      -0.249  -0.202  -0.256  0.00  0.00    +0.017 C 
BRANCH   5   6
ATOM      6  C   UNL     1      -1.684  -0.609  -0.475  0.00  0.00    +0.203 C 
ATOM      7  O   UNL     1      -2.167  -1.506   0.183  0.00  0.00    -0.277 OA
ATOM      8  N   UNL     1      -2.429   0.023  -1.403  0.00  0.00    -0.287 N 
ATOM      9  H   UNL     1      -2.024   0.691  -1.978  0.00  0.00    +0.155 HD
BRANCH   8  10
ATOM     10  C   UNL     1      -3.789  -0.283  -1.536  0.00  0.00    +0.036 A 
ATOM     11  C   UNL     1      -4.372  -0.328  -2.796  0.00  0.00    +0.026 A 
ATOM     12  C   UNL     1      -5.713  -0.630  -2.926  0.00  0.00    +0.043 A 
ATOM     13  C   UNL     1      -6.478  -0.888  -1.802  0.00  0.00    +0.159 A 
ATOM     14  C   UNL     1      -5.900  -0.844  -0.542  0.00  0.00    +0.160 A 
ATOM     15  C   UNL     1      -4.555  -0.547  -0.409  0.00  0.00    +0.064 A 
ATOM     16  F   UNL     1      -6.648  -1.096   0.554  0.00  0.00    -0.202 F 
ATOM     17  F   UNL     1      -7.790  -1.183  -1.932  0.00  0.00    -0.202 F 
ENDBRANCH   8  10
ENDBRANCH   5   6
ENDBRANCH   1   5
BRANCH   1  18
ATOM     18  C   UNL     1       0.517  -2.458  -0.536  0.00  0.00    +0.020 C 
BRANCH  18  19
ATOM     19  C   UNL     1       1.100  -3.650   0.179  0.00  0.00    +0.201 C 
ATOM     20  O   UNL     1       1.452  -3.551   1.335  0.00  0.00    -0.278 OA
ATOM     21  N   UNL     1       1.230  -4.825  -0.467  0.00  0.00    -0.287 N 
ATOM     22  H   UNL     1       1.019  -4.886  -1.412  0.00  0.00    +0.155 HD
BRANCH  21  23
ATOM     23  C   UNL     1       1.672  -5.959   0.225  0.00  0.00    +0.039 A 
ATOM     24  C   UNL     1       2.432  -6.920  -0.427  0.00  0.00    +0.061 A 
ATOM     25  C   UNL     1       2.867  -8.040   0.259  0.00  0.00    +0.128 A 
ATOM     26  C   UNL     1       2.544  -8.202   1.596  0.00  0.00    +0.076 A 
ATOM     27  C   UNL     1       1.786  -7.245   2.248  0.00  0.00    +0.128 A 
ATOM     28  C   UNL     1       1.354  -6.121   1.567  0.00  0.00    +0.061 A 
ATOM     29  F   UNL     1       1.472  -7.406   3.552  0.00  0.00    -0.205 F 
ATOM     30  F   UNL     1       3.607  -8.975  -0.376  0.00  0.00    -0.205 F 
ENDBRANCH  21  23
ENDBRANCH  18  19
ENDBRANCH   1  18
TORSDOF 6
