REMARK  Name = ZINC18519599
REMARK  16 active torsions:
REMARK  status: ('A' for Active; 'I' for Inactive)
REMARK    1  A    between atoms: C_1  and  C_2
REMARK    2  A    between atoms: C_2  and  C_4
REMARK    3  A    between atoms: C_2  and  S_14
REMARK    4  A    between atoms: N_9  and  C_10
REMARK    5  A    between atoms: C_10  and  C_11
REMARK    6  A    between atoms: C_10  and  C_12
REMARK    7  A    between atoms: C_10  and  C_13
REMARK    8  A    between atoms: S_14  and  C_15
REMARK    9  A    between atoms: C_18  and  S_20
REMARK   10  A    between atoms: S_20  and  C_21
REMARK   11  A    between atoms: C_21  and  C_23
REMARK   12  A    between atoms: C_21  and  C_24
REMARK   13  A    between atoms: N_29  and  C_30
REMARK   14  A    between atoms: C_30  and  C_31
REMARK   15  A    between atoms: C_30  and  C_32
REMARK   16  A    between atoms: C_30  and  C_33
REMARK                            x       y       z     vdW  Elec       q    Type
REMARK                         _______ _______ _______ _____ _____    ______ ____
ROOT
ATOM      1  C   UNL     1       2.575  -4.507   0.741  0.00  0.00    +0.160 A 
ATOM      2  N   UNL     1       1.548  -5.250   0.373  0.00  0.00    -0.134 NA
ATOM      3  N   UNL     1       1.612  -6.618   0.502  0.00  0.00    -0.134 NA
ATOM      4  C   UNL     1       2.696  -7.180   1.002  0.00  0.00    +0.160 A 
ATOM      5  S   UNL     1       3.719  -5.751   1.320  0.00  0.00    -0.033 S 
ENDROOT
BRANCH   1   6
ATOM      6  S   UNL     1       2.764  -2.756   0.684  0.00  0.00    -0.084 S 
BRANCH   6   8
ATOM      7  C   UNL     1       1.066  -2.673  -1.460  0.00  0.00    +0.029 C 
ATOM      8  C   UNL     1       1.199  -2.169  -0.021  0.00  0.00    +0.136 C 
BRANCH   8   9
ATOM      9  C   UNL     1       1.178  -0.662  -0.013  0.00  0.00    +0.233 C 
ATOM     10  O   UNL     1       2.220  -0.042  -0.019  0.00  0.00    -0.274 OA
ATOM     11  N   UNL     1       0.002  -0.004   0.002  0.00  0.00    -0.239 N 
ATOM     12  C   UNL     1      -0.016   1.344   0.009  0.00  0.00    +0.306 C 
ATOM     13  O   UNL     1       1.028   1.966   0.003  0.00  0.00    -0.252 OA
ATOM     14  N   UNL     1      -1.192   2.002   0.019  0.00  0.00    -0.294 N 
ATOM     15  H   UNL     1      -0.831  -0.500   0.007  0.00  0.00    +0.159 HD
ATOM     16  H   UNL     1      -2.026   1.505   0.020  0.00  0.00    +0.151 HD
BRANCH  14  17
ATOM     17  C   UNL     1      -1.212   3.466   0.027  0.00  0.00    +0.028 C 
ATOM     18  C   UNL     1      -0.504   3.993  -1.223  0.00  0.00    +0.031 C 
ATOM     19  C   UNL     1      -2.662   3.957   0.036  0.00  0.00    +0.031 C 
ATOM     20  C   UNL     1      -0.492   3.979   1.275  0.00  0.00    +0.031 C 
ENDBRANCH  14  17
ENDBRANCH   8   9
ENDBRANCH   6   8
ENDBRANCH   1   6
BRANCH   4  21
ATOM     21  S   UNL     1       3.042  -8.885   1.282  0.00  0.00    -0.084 S 
BRANCH  21  22
ATOM     22  C   UNL     1       1.542  -9.735   0.717  0.00  0.00    +0.136 C 
ATOM     23  C   UNL     1       0.365  -9.343   1.613  0.00  0.00    +0.029 C 
BRANCH  22  24
ATOM     24  C   UNL     1       1.752 -11.226   0.788  0.00  0.00    +0.233 C 
ATOM     25  O   UNL     1       2.563 -11.687   1.563  0.00  0.00    -0.274 OA
ATOM     26  N   UNL     1       1.039 -12.046  -0.009  0.00  0.00    -0.239 N 
ATOM     27  C   UNL     1       1.228 -13.379   0.055  0.00  0.00    +0.306 C 
ATOM     28  O   UNL     1       2.040 -13.841   0.831  0.00  0.00    -0.252 OA
ATOM     29  N   UNL     1       0.514 -14.199  -0.742  0.00  0.00    -0.294 N 
ATOM     30  H   UNL     1       0.391 -11.677  -0.628  0.00  0.00    +0.159 HD
ATOM     31  H   UNL     1      -0.134 -13.830  -1.362  0.00  0.00    +0.151 HD
BRANCH  29  32
ATOM     32  C   UNL     1       0.719 -15.648  -0.673  0.00  0.00    +0.028 C 
ATOM     33  C   UNL     1       0.404 -16.141   0.741  0.00  0.00    +0.031 C 
ATOM     34  C   UNL     1      -0.207 -16.342  -1.673  0.00  0.00    +0.031 C 
ATOM     35  C   UNL     1       2.175 -15.974  -1.014  0.00  0.00    +0.031 C 
ENDBRANCH  29  32
ENDBRANCH  22  24
ENDBRANCH  21  22
ENDBRANCH   4  21
TORSDOF 8
