REMARK  Name = ZINC08582795
REMARK  7 active torsions:
REMARK  status: ('A' for Active; 'I' for Inactive)
REMARK    1  A    between atoms: C_1  and  C_2
REMARK    2  A    between atoms: C_9  and  O_36
REMARK    3  A    between atoms: C_10  and  C_12
REMARK    4  A    between atoms: C_12  and  C_14
REMARK    5  A    between atoms: C_12  and  N_71
REMARK    6  A    between atoms: N_18  and  C_19
REMARK    7  A    between atoms: C_19  and  C_20
REMARK                            x       y       z     vdW  Elec       q    Type
REMARK                         _______ _______ _______ _____ _____    ______ ____
ROOT
ATOM      1  C   UNL     1       2.653   4.946   1.851  0.00  0.00    +0.039 C 
ENDROOT
BRANCH   1  12
ATOM      2  C   UNL     1       3.017   7.188   1.013  0.00  0.00    -0.077 C 
ATOM      3  C   UNL     1       3.423   8.607   1.418  0.00  0.00    -0.018 C 
ATOM      4  C   UNL     1       4.875   8.598   1.902  0.00  0.00    +0.003 C 
ATOM      5  C   UNL     1       5.010   7.617   3.069  0.00  0.00    -0.044 C 
ATOM      6  C   UNL     1       4.559   6.227   2.616  0.00  0.00    -0.071 C 
ATOM      7  C   UNL     1       4.133   8.085   4.232  0.00  0.00    +0.005 C 
ATOM      8  C   UNL     1       4.582   9.477   4.681  0.00  0.00    +0.000 C 
ATOM      9  C   UNL     1       6.042   9.420   5.133  0.00  0.00    +0.000 C 
ATOM     10  C   UNL     1       6.919   8.952   3.971  0.00  0.00    +0.000 C 
ATOM     11  C   UNL     1       6.470   7.560   3.522  0.00  0.00    +0.005 C 
ATOM     12  N   UNL     1       3.146   6.298   2.186  0.00  0.00    +0.390 N 
ATOM     13  H   UNL     1       2.583   6.677   2.956  0.00  0.00    -0.080 HD
ENDBRANCH   1  12
BRANCH   1  23
ATOM     14  C   UNL     1       2.839   2.228   7.796  0.00  0.00    +0.046 C 
ATOM     15  C   UNL     1       3.251   1.703   6.445  0.00  0.00    -0.024 A 
ATOM     16  C   UNL     1       3.767   0.449   6.327  0.00  0.00    +0.005 A 
ATOM     17  C   UNL     1       4.153  -0.055   5.087  0.00  0.00    +0.001 A 
ATOM     18  C   UNL     1       4.024   0.695   3.957  0.00  0.00    +0.010 A 
ATOM     19  C   UNL     1       3.496   1.992   4.042  0.00  0.00    +0.001 A 
ATOM     20  C   UNL     1       3.103   2.507   5.302  0.00  0.00    +0.078 A 
ATOM     21  N   UNL     1       2.599   3.743   5.389  0.00  0.00    -0.213 NA
ATOM     22  C   UNL     1       2.464   4.502   4.323  0.00  0.00    +0.215 A 
ATOM     23  C   UNL     1       2.828   4.049   3.049  0.00  0.00    +0.008 A 
ATOM     24  C   UNL     1       3.348   2.799   2.896  0.00  0.00    +0.017 A 
BRANCH  22  25
ATOM     25  O   UNL     1       1.954   5.751   4.461  0.00  0.00    -0.492 OA
ATOM     26  H   UNL     1       0.991   5.793   4.381  0.00  0.00    +0.294 HD
ENDBRANCH  22  25
ENDBRANCH   1  23
BRANCH   1  27
ATOM     27  C   UNL     1       1.190   5.035   1.500  0.00  0.00    +0.143 A 
ATOM     28  N   UNL     1       0.282   5.760   2.107  0.00  0.00    -0.115 NA
ATOM     29  N   UNL     1      -0.845   5.564   1.514  0.00  0.00    -0.023 NA
ATOM     30  N   UNL     1      -0.679   4.739   0.541  0.00  0.00    -0.044 NA
ATOM     31  N   UNL     1       0.561   4.384   0.503  0.00  0.00    -0.228 N 
BRANCH  31  32
ATOM     32  C   UNL     1       1.172   3.454  -0.450  0.00  0.00    +0.178 C 
BRANCH  32  33
ATOM     33  C   UNL     1       0.989   2.020   0.049  0.00  0.00    +0.140 C 
ATOM     34  C   UNL     1       1.616   1.011  -0.947  0.00  0.00    +0.035 C 
ATOM     35  C   UNL     1       0.815  -0.280  -0.649  0.00  0.00    +0.031 C 
ATOM     36  C   UNL     1      -0.472   0.223   0.032  0.00  0.00    +0.160 C 
ATOM     37  O   UNL     1      -0.409   1.659   0.058  0.00  0.00    -0.375 OA
ENDBRANCH  32  33
ENDBRANCH  31  32
ENDBRANCH   1  27
TORSDOF 6
