REMARK  Name = ZINC18042956
REMARK  8 active torsions:
REMARK  status: ('A' for Active; 'I' for Inactive)
REMARK    1  A    between atoms: C_1  and  C_2
REMARK    2  A    between atoms: C_2  and  C_3
REMARK    3  A    between atoms: C_3  and  C_4
REMARK    4  A    between atoms: C_10  and  S_12
REMARK    5  A    between atoms: S_12  and  C_13
REMARK    6  A    between atoms: C_13  and  C_14
REMARK    7  A    between atoms: N_19  and  S_22
REMARK    8  A    between atoms: S_22  and  C_25
REMARK                            x       y       z     vdW  Elec       q    Type
REMARK                         _______ _______ _______ _____ _____    ______ ____
ROOT
ATOM      1  C   UNL     1      -4.044  -4.137   3.505  0.00  0.00    +0.226 C 
ATOM      2  O   UNL     1      -4.170  -5.342   3.565  0.00  0.00    -0.275 OA
ATOM      3  N   UNL     1      -5.023  -3.334   3.966  0.00  0.00    -0.298 N 
ATOM      4  C   UNL     1      -4.887  -1.872   3.894  0.00  0.00    +0.125 C 
ATOM      5  C   UNL     1      -6.099  -1.304   3.145  0.00  0.00    +0.128 C 
ATOM      6  N   UNL     1      -7.321  -1.873   3.729  0.00  0.00    -0.174 NA
ATOM      7  C   UNL     1      -7.457  -3.335   3.801  0.00  0.00    +0.128 C 
ATOM      8  C   UNL     1      -6.248  -3.903   4.545  0.00  0.00    +0.125 C 
ENDROOT
BRANCH   6   9
ATOM      9  S   UNL     1      -8.524  -0.886   4.295  0.00  0.00    +0.061 S 
ATOM     10  O   UNL     1      -9.251  -1.641   5.255  0.00  0.00    -0.153 OA
ATOM     11  O   UNL     1      -7.914   0.358   4.609  0.00  0.00    -0.153 OA
BRANCH   9  12
ATOM     12  C   UNL     1      -9.625  -0.583   2.954  0.00  0.00    +0.106 A 
ATOM     13  C   UNL     1      -9.399   0.506   2.113  0.00  0.00    +0.029 A 
ATOM     14  C   UNL     1     -10.230   0.768   1.068  0.00  0.00    +0.010 A 
ATOM     15  C   UNL     1     -11.333  -0.069   0.829  0.00  0.00    -0.018 A 
ATOM     16  C   UNL     1     -12.213   0.170  -0.240  0.00  0.00    +0.008 A 
ATOM     17  C   UNL     1     -13.271  -0.663  -0.441  0.00  0.00    +0.001 A 
ATOM     18  C   UNL     1     -13.497  -1.752   0.400  0.00  0.00    +0.001 A 
ATOM     19  C   UNL     1     -12.666  -2.014   1.445  0.00  0.00    +0.008 A 
ATOM     20  C   UNL     1     -11.563  -1.176   1.684  0.00  0.00    -0.016 A 
ATOM     21  C   UNL     1     -10.680  -1.418   2.750  0.00  0.00    +0.037 A 
ENDBRANCH   9  12
ENDBRANCH   6   9
BRANCH   1  22
ATOM     22  C   UNL     1      -2.794  -3.539   2.914  0.00  0.00    +0.173 C 
BRANCH  22  23
ATOM     23  S   UNL     1      -1.677  -4.868   2.388  0.00  0.00    -0.078 S 
BRANCH  23  30
ATOM     24  C   UNL     1       0.762  -2.018   1.233  0.00  0.00    +0.049 A 
ATOM     25  C   UNL     1       1.841  -2.682   0.725  0.00  0.00    +0.093 A 
ATOM     26  C   UNL     1       1.838  -4.088   0.728  0.00  0.00    +0.252 A 
ATOM     27  O   UNL     1       2.786  -4.712   0.281  0.00  0.00    -0.268 OA
ATOM     28  N   UNL     1       0.766  -4.733   1.235  0.00  0.00    -0.302 N 
ATOM     29  H   UNL     1       0.743  -5.703   1.248  0.00  0.00    +0.171 HD
ATOM     30  C   UNL     1      -0.282  -4.018   1.729  0.00  0.00    +0.170 A 
ATOM     31  N   UNL     1      -0.269  -2.699   1.727  0.00  0.00    -0.228 NA
BRANCH  24  32
ATOM     32  C   UNL     1       0.742  -0.511   1.242  0.00  0.00    +0.055 C 
BRANCH  32  34
ATOM     33  C   UNL     1      -0.019   1.526   0.010  0.00  0.00    +0.004 C 
ATOM     34  C   UNL     1       0.002  -0.004   0.002  0.00  0.00    +0.003 C 
ENDBRANCH  32  34
ENDBRANCH  24  32
ENDBRANCH  23  30
ENDBRANCH  22  23
ENDBRANCH   1  22
TORSDOF 7
