REMARK  Name = ZINC14997633
REMARK  11 active torsions:
REMARK  status: ('A' for Active; 'I' for Inactive)
REMARK    1  A    between atoms: C_1  and  C_2
REMARK    2  A    between atoms: C_2  and  C_3
REMARK    3  A    between atoms: C_2  and  O_4
REMARK    4  A    between atoms: O_4  and  C_5
REMARK    5  A    between atoms: C_5  and  C_6
REMARK    6  A    between atoms: C_6  and  C_7
REMARK    7  A    between atoms: C_7  and  N_60
REMARK    8  A    between atoms: C_8  and  N_60
REMARK    9  A    between atoms: N_19  and  C_22
REMARK   10  A    between atoms: C_22  and  C_23
REMARK   11  A    between atoms: C_27  and  C_29
REMARK                            x       y       z     vdW  Elec       q    Type
REMARK                         _______ _______ _______ _____ _____    ______ ____
ROOT
ATOM      1  C   UNL     1      -4.545   7.797  -5.799  0.00  0.00    -0.067 C 
ATOM      2  C   UNL     1      -4.790   6.581  -4.901  0.00  0.00    -0.011 C 
ATOM      3  C   UNL     1      -3.869   6.642  -3.681  0.00  0.00    +0.035 C 
ATOM      4  C   UNL     1      -2.432   6.829  -4.159  0.00  0.00    -0.023 A 
ATOM      5  C   UNL     1      -2.172   7.280  -5.404  0.00  0.00    -0.006 A 
ATOM      6  S   UNL     1      -0.404   7.337  -5.513  0.00  0.00    -0.073 S 
ATOM      7  C   UNL     1      -0.018   6.754  -3.881  0.00  0.00    +0.116 A 
ATOM      8  C   UNL     1      -1.280   6.534  -3.307  0.00  0.00    +0.076 A 
ATOM      9  C   UNL     1      -1.272   6.049  -1.958  0.00  0.00    +0.263 A 
ATOM     10  O   UNL     1      -2.318   5.828  -1.373  0.00  0.00    -0.267 OA
ATOM     11  N   UNL     1      -0.090   5.842  -1.348  0.00  0.00    -0.294 N 
ATOM     12  C   UNL     1       1.085   6.089  -1.983  0.00  0.00    +0.203 A 
ATOM     13  N   UNL     1       1.109   6.526  -3.214  0.00  0.00    -0.230 NA
ATOM     14  C   UNL     1      -3.167   7.651  -6.461  0.00  0.00    +0.027 C 
ENDROOT
BRANCH   1  15
ATOM     15  N   UNL     1      -5.590   7.854  -6.838  0.00  0.00    +0.381 N 
ATOM     16  H   UNL     1      -5.324   7.244  -7.620  0.00  0.00    -0.086 HD
ATOM     17  H   UNL     1      -6.481   7.532  -6.441  0.00  0.00    -0.086 HD
BRANCH  15  18
ATOM     18  C   UNL     1      -5.749   9.235  -7.330  0.00  0.00    -0.080 C 
BRANCH  18  19
ATOM     19  C   UNL     1      -6.838   9.263  -8.405  0.00  0.00    +0.009 C 
BRANCH  19  20
ATOM     20  C   UNL     1      -7.008  10.693  -8.921  0.00  0.00    +0.158 C 
BRANCH  20  21
ATOM     21  O   UNL     1      -8.025  10.719  -9.925  0.00  0.00    -0.377 OA
BRANCH  21  23
ATOM     22  C   UNL     1      -7.356  12.230 -11.688  0.00  0.00    +0.037 C 
ATOM     23  C   UNL     1      -8.265  12.015 -10.476  0.00  0.00    +0.112 C 
ATOM     24  C   UNL     1      -9.728  12.121 -10.912  0.00  0.00    +0.037 C 
ENDBRANCH  21  23
ENDBRANCH  20  21
ENDBRANCH  19  20
ENDBRANCH  18  19
ENDBRANCH  15  18
ENDBRANCH   1  15
BRANCH  11  25
ATOM     25  C   UNL     1      -0.070   5.347   0.030  0.00  0.00    +0.161 C 
BRANCH  25  26
ATOM     26  C   UNL     1      -0.050   3.840   0.022  0.00  0.00    -0.027 A 
ATOM     27  C   UNL     1       1.157   3.165   0.008  0.00  0.00    +0.005 A 
ATOM     28  C   UNL     1       1.175   1.783   0.000  0.00  0.00    +0.001 A 
ATOM     29  C   UNL     1      -0.013   1.076   0.008  0.00  0.00    +0.012 A 
ATOM     30  C   UNL     1      -1.219   1.750   0.017  0.00  0.00    +0.055 A 
ATOM     31  C   UNL     1      -1.238   3.133   0.030  0.00  0.00    +0.017 A 
BRANCH  30  32
ATOM     32  C   UNL     1      -2.514   0.979   0.019  0.00  0.00    +0.417 C 
ATOM     33  F   UNL     1      -2.239  -0.392   0.010  0.00  0.00    -0.166 F 
ATOM     34  F   UNL     1      -3.246   1.301   1.167  0.00  0.00    -0.166 F 
ATOM     35  F   UNL     1      -3.257   1.314  -1.118  0.00  0.00    -0.166 F 
ENDBRANCH  30  32
ENDBRANCH  25  26
ENDBRANCH  11  25
TORSDOF 9
