REMARK  Name = ZINC14654738
REMARK  10 active torsions:
REMARK  status: ('A' for Active; 'I' for Inactive)
REMARK    1  A    between atoms: C_1  and  C_2
REMARK    2  A    between atoms: C_2  and  O_3
REMARK    3  A    between atoms: O_3  and  C_4
REMARK    4  A    between atoms: C_9  and  C_10
REMARK    5  A    between atoms: N_12  and  C_13
REMARK    6  A    between atoms: C_18  and  C_19
REMARK    7  A    between atoms: N_21  and  C_22
REMARK    8  A    between atoms: C_22  and  C_23
REMARK    9  A    between atoms: C_22  and  C_24
REMARK   10  A    between atoms: C_22  and  C_25
REMARK                            x       y       z     vdW  Elec       q    Type
REMARK                         _______ _______ _______ _____ _____    ______ ____
ROOT
ATOM      1  C   UNL     1      -0.091   1.342   0.592  0.00  0.00    +0.252 C 
ATOM      2  O   UNL     1      -0.147   0.249   1.121  0.00  0.00    -0.270 OA
ATOM      3  N   UNL     1      -1.191   1.870   0.017  0.00  0.00    -0.281 N 
ATOM      4  H   UNL     1      -1.168   2.774  -0.333  0.00  0.00    +0.155 HD
ENDROOT
BRANCH   1  10
ATOM      5  C   UNL     1       2.326   1.544   1.170  0.00  0.00    +0.133 A 
ATOM      6  C   UNL     1       3.518   2.252   1.143  0.00  0.00    +0.047 A 
ATOM      7  C   UNL     1       3.573   3.493   0.541  0.00  0.00    +0.019 A 
ATOM      8  C   UNL     1       2.441   4.038  -0.046  0.00  0.00    +0.019 A 
ATOM      9  C   UNL     1       1.249   3.345  -0.033  0.00  0.00    +0.032 A 
ATOM     10  C   UNL     1       1.181   2.089   0.574  0.00  0.00    +0.080 A 
ATOM     11 BR   UNL     1       2.532   5.739  -0.867  0.00  0.00    -0.050 Br
BRANCH   5  12
ATOM     12  O   UNL     1       2.270   0.327   1.767  0.00  0.00    -0.491 OA
BRANCH  12  14
ATOM     13  C   UNL     1       3.220  -1.539   2.974  0.00  0.00    +0.048 C 
ATOM     14  C   UNL     1       3.477  -0.164   2.354  0.00  0.00    +0.226 C 
ENDBRANCH  12  14
ENDBRANCH   5  12
ENDBRANCH   1  10
BRANCH   3  15
ATOM     15  C   UNL     1      -2.358   1.117  -0.073  0.00  0.00    +0.046 A 
ATOM     16  C   UNL     1      -2.295  -0.271  -0.080  0.00  0.00    +0.024 A 
ATOM     17  C   UNL     1      -3.454  -1.015  -0.165  0.00  0.00    +0.002 A 
ATOM     18  C   UNL     1      -4.686  -0.387  -0.255  0.00  0.00    +0.001 A 
ATOM     19  C   UNL     1      -4.767   0.989  -0.256  0.00  0.00    +0.015 A 
ATOM     20  C   UNL     1      -3.603   1.756  -0.165  0.00  0.00    +0.058 A 
BRANCH  20  21
ATOM     21  C   UNL     1      -3.684   3.229  -0.165  0.00  0.00    +0.246 C 
ATOM     22  O   UNL     1      -2.665   3.893  -0.178  0.00  0.00    -0.270 OA
ATOM     23  N   UNL     1      -4.886   3.838  -0.152  0.00  0.00    -0.307 N 
ATOM     24  H   UNL     1      -5.698   3.308  -0.141  0.00  0.00    +0.150 HD
BRANCH  23  25
ATOM     25  C   UNL     1      -4.965   5.301  -0.152  0.00  0.00    +0.026 C 
ATOM     26  C   UNL     1      -4.287   5.848  -1.410  0.00  0.00    +0.031 C 
ATOM     27  C   UNL     1      -6.433   5.732  -0.135  0.00  0.00    +0.031 C 
ATOM     28  C   UNL     1      -4.258   5.851   1.088  0.00  0.00    +0.031 C 
ENDBRANCH  23  25
ENDBRANCH  20  21
ENDBRANCH   3  15
TORSDOF 6
