REMARK  Name = ZINC39600128
REMARK  8 active torsions:
REMARK  status: ('A' for Active; 'I' for Inactive)
REMARK    1  A    between atoms: C_1  and  C_2
REMARK    2  A    between atoms: C_2  and  C_3
REMARK    3  A    between atoms: C_3  and  C_4
REMARK    4  A    between atoms: C_4  and  C_5
REMARK    5  A    between atoms: C_9  and  C_18
REMARK    6  A    between atoms: N_20  and  C_21
REMARK    7  A    between atoms: C_21  and  C_22
REMARK    8  A    between atoms: C_24  and  C_29
REMARK                            x       y       z     vdW  Elec       q    Type
REMARK                         _______ _______ _______ _____ _____    ______ ____
ROOT
ATOM      1  C   UNL     1       1.399  -2.550  -2.195  0.00  0.00    +0.216 C 
ATOM      2  O   UNL     1       1.838  -1.680  -2.917  0.00  0.00    -0.276 OA
ATOM      3  N   UNL     1       1.556  -3.846  -2.530  0.00  0.00    -0.300 N 
ATOM      4  C   UNL     1       1.088  -5.039  -1.786  0.00  0.00    +0.121 C 
ATOM      5  C   UNL     1       0.600  -6.015  -2.880  0.00  0.00    +0.100 C 
ATOM      6  C   UNL     1       1.357  -5.592  -4.149  0.00  0.00    -0.004 C 
ATOM      7  C   UNL     1       2.229  -4.400  -3.728  0.00  0.00    +0.115 C 
ATOM      8  C   UNL     1       0.374  -5.161  -5.233  0.00  0.00    -0.010 C 
ATOM      9  C   UNL     1       1.148  -4.799  -6.504  0.00  0.00    -0.082 C 
ATOM     10  N   UNL     1       1.924  -5.961  -6.953  0.00  0.00    +0.379 N 
ATOM     11  C   UNL     1       2.931  -6.312  -5.944  0.00  0.00    -0.082 C 
ATOM     12  C   UNL     1       2.232  -6.737  -4.649  0.00  0.00    -0.010 C 
ATOM     13  H   UNL     1       1.304  -6.745  -7.094  0.00  0.00    -0.086 HD
ATOM     14  H   UNL     1       2.385  -5.740  -7.823  0.00  0.00    -0.086 HD
ENDROOT
BRANCH   5  15
ATOM     15  C   UNL     1      -0.887  -5.875  -3.082  0.00  0.00    +0.218 C 
ATOM     16  O   UNL     1      -1.428  -4.807  -2.888  0.00  0.00    -0.275 OA
ATOM     17  N   UNL     1      -1.616  -6.938  -3.479  0.00  0.00    -0.311 N 
ATOM     18  H   UNL     1      -1.183  -7.792  -3.634  0.00  0.00    +0.149 HD
BRANCH  17  19
ATOM     19  C   UNL     1      -3.061  -6.802  -3.675  0.00  0.00    +0.139 C 
BRANCH  19  20
ATOM     20  C   UNL     1      -3.634  -8.124  -4.115  0.00  0.00    -0.027 A 
ATOM     21  C   UNL     1      -3.708  -8.432  -5.461  0.00  0.00    +0.017 A 
ATOM     22  C   UNL     1      -4.234  -9.645  -5.866  0.00  0.00    +0.058 A 
ATOM     23  C   UNL     1      -4.687 -10.551  -4.926  0.00  0.00    +0.050 A 
ATOM     24  C   UNL     1      -4.614 -10.244  -3.578  0.00  0.00    +0.124 A 
ATOM     25  C   UNL     1      -4.081  -9.031  -3.173  0.00  0.00    +0.043 A 
ATOM     26  F   UNL     1      -5.057 -11.128  -2.658  0.00  0.00    -0.205 F 
BRANCH  22  27
ATOM     27  C   UNL     1      -4.313  -9.979  -7.334  0.00  0.00    +0.418 C 
ATOM     28  F   UNL     1      -3.136 -10.622  -7.730  0.00  0.00    -0.166 F 
ATOM     29  F   UNL     1      -5.405 -10.823  -7.561  0.00  0.00    -0.166 F 
ATOM     30  F   UNL     1      -4.472  -8.801  -8.072  0.00  0.00    -0.166 F 
ENDBRANCH  22  27
ENDBRANCH  19  20
ENDBRANCH  17  19
ENDBRANCH   5  15
BRANCH   1  31
ATOM     31  C   UNL     1       0.678  -2.181  -0.924  0.00  0.00    +0.096 C 
BRANCH  31  32
ATOM     32  C   UNL     1       0.639  -0.658  -0.783  0.00  0.00    +0.009 C 
BRANCH  32  34
ATOM     33  C   UNL     1      -0.133   1.238   0.649  0.00  0.00    +0.004 C 
ATOM     34  C   UNL     1      -0.093  -0.285   0.508  0.00  0.00    -0.003 C 
ENDBRANCH  32  34
ENDBRANCH  31  32
ENDBRANCH   1  31
TORSDOF 7
