REMARK  Name = ZINC39605825
REMARK  9 active torsions:
REMARK  status: ('A' for Active; 'I' for Inactive)
REMARK    1  A    between atoms: C_1  and  C_2
REMARK    2  A    between atoms: C_2  and  C_3
REMARK    3  A    between atoms: C_3  and  C_5
REMARK    4  A    between atoms: C_3  and  C_6
REMARK    5  A    between atoms: C_6  and  N_7
REMARK    6  A    between atoms: C_8  and  C_10
REMARK    7  A    between atoms: C_21  and  C_23
REMARK    8  A    between atoms: C_23  and  C_24
REMARK    9  A    between atoms: C_24  and  C_25
REMARK                            x       y       z     vdW  Elec       q    Type
REMARK                         _______ _______ _______ _____ _____    ______ ____
ROOT
ATOM      1  C   UNL     1      -4.434  -4.387  -0.472  0.00  0.00    +0.100 C 
ATOM      2  C   UNL     1      -5.189  -4.178   0.860  0.00  0.00    +0.121 C 
ATOM      3  N   UNL     1      -6.043  -5.381   0.998  0.00  0.00    -0.300 N 
ATOM      4  C   UNL     1      -5.192  -6.495   0.516  0.00  0.00    +0.115 C 
ATOM      5  C   UNL     1      -4.437  -5.908  -0.694  0.00  0.00    -0.004 C 
ATOM      6  C   UNL     1      -3.007  -6.440  -0.731  0.00  0.00    -0.010 C 
ATOM      7  C   UNL     1      -3.035  -7.945  -1.011  0.00  0.00    -0.082 C 
ATOM      8  N   UNL     1      -3.704  -8.195  -2.293  0.00  0.00    +0.379 N 
ATOM      9  C   UNL     1      -5.106  -7.765  -2.217  0.00  0.00    -0.082 C 
ATOM     10  C   UNL     1      -5.166  -6.252  -1.989  0.00  0.00    -0.010 C 
ATOM     11  C   UNL     1      -7.308  -5.448   1.459  0.00  0.00    +0.216 C 
ATOM     12  O   UNL     1      -7.878  -6.517   1.512  0.00  0.00    -0.276 OA
ATOM     13  H   UNL     1      -3.235  -7.679  -3.022  0.00  0.00    -0.086 HD
ATOM     14  H   UNL     1      -3.667  -9.181  -2.504  0.00  0.00    -0.086 HD
ENDROOT
BRANCH   1  16
ATOM     15  N   UNL     1      -2.378  -3.422  -1.454  0.00  0.00    -0.315 N 
ATOM     16  C   UNL     1      -3.020  -3.876  -0.359  0.00  0.00    +0.218 C 
ATOM     17  O   UNL     1      -2.461  -3.873   0.717  0.00  0.00    -0.275 OA
ATOM     18  H   UNL     1      -2.826  -3.424  -2.314  0.00  0.00    +0.149 HD
BRANCH  15  19
ATOM     19  C   UNL     1      -1.004  -2.925  -1.344  0.00  0.00    +0.107 C 
BRANCH  19  20
ATOM     20  C   UNL     1      -0.514  -2.474  -2.721  0.00  0.00    +0.003 C 
ATOM     21  C   UNL     1      -1.341  -1.275  -3.189  0.00  0.00    +0.009 C 
BRANCH  20  23
ATOM     22  C   UNL     1       1.484  -1.741  -4.030  0.00  0.00    +0.004 C 
ATOM     23  C   UNL     1       0.960  -2.073  -2.631  0.00  0.00    +0.001 C 
ENDBRANCH  20  23
ENDBRANCH  19  20
ENDBRANCH  15  19
ENDBRANCH   1  16
BRANCH  11  24
ATOM     24  C   UNL     1      -8.014  -4.194   1.907  0.00  0.00    +0.096 C 
BRANCH  24  25
ATOM     25  C   UNL     1      -9.426  -4.545   2.379  0.00  0.00    +0.013 C 
BRANCH  25  26
ATOM     26  C   UNL     1     -10.142  -3.272   2.834  0.00  0.00    -0.011 C 
ATOM     27  C   UNL     1      -9.482  -2.723   4.116  0.00  0.00    +0.003 C 
ATOM     28  C   UNL     1     -10.668  -2.180   4.952  0.00  0.00    +0.000 C 
ATOM     29  C   UNL     1     -11.781  -3.223   4.683  0.00  0.00    +0.000 C 
ATOM     30  C   UNL     1     -11.604  -3.590   3.195  0.00  0.00    +0.003 C 
ENDBRANCH  25  26
ENDBRANCH  24  25
ENDBRANCH  11  24
TORSDOF 7
