REMARK  Name = ZINC39688473
REMARK  8 active torsions:
REMARK  status: ('A' for Active; 'I' for Inactive)
REMARK    1  A    between atoms: C_1  and  C_2
REMARK    2  A    between atoms: C_2  and  C_3
REMARK    3  A    between atoms: C_6  and  C_9
REMARK    4  A    between atoms: C_13  and  C_22
REMARK    5  A    between atoms: N_24  and  C_25
REMARK    6  A    between atoms: C_25  and  C_27
REMARK    7  A    between atoms: C_25  and  C_28
REMARK    8  A    between atoms: C_28  and  C_29
REMARK                            x       y       z     vdW  Elec       q    Type
REMARK                         _______ _______ _______ _____ _____    ______ ____
ROOT
ATOM      1  C   UNL     1      -5.400  -1.999   0.045  0.00  0.00    +0.247 C 
ATOM      2  O   UNL     1      -5.925  -2.314   1.095  0.00  0.00    -0.270 OA
ATOM      3  N   UNL     1      -6.075  -2.135  -1.114  0.00  0.00    -0.296 N 
ATOM      4  C   UNL     1      -5.568  -1.929  -2.491  0.00  0.00    +0.121 C 
ATOM      5  C   UNL     1      -6.220  -3.059  -3.320  0.00  0.00    +0.100 C 
ATOM      6  C   UNL     1      -7.484  -3.443  -2.533  0.00  0.00    -0.004 C 
ATOM      7  C   UNL     1      -7.492  -2.530  -1.298  0.00  0.00    +0.115 C 
ATOM      8  C   UNL     1      -8.729  -3.198  -3.381  0.00  0.00    -0.010 C 
ATOM      9  C   UNL     1      -9.968  -3.642  -2.599  0.00  0.00    -0.082 C 
ATOM     10  N   UNL     1      -9.853  -5.066  -2.263  0.00  0.00    +0.379 N 
ATOM     11  C   UNL     1      -8.707  -5.279  -1.372  0.00  0.00    -0.082 C 
ATOM     12  C   UNL     1      -7.414  -4.905  -2.101  0.00  0.00    -0.010 C 
ATOM     13  H   UNL     1     -10.697  -5.371  -1.802  0.00  0.00    -0.086 HD
ATOM     14  H   UNL     1      -9.724  -5.601  -3.109  0.00  0.00    -0.086 HD
ENDROOT
BRANCH   1  18
ATOM     15  C   UNL     1      -1.436  -0.472   0.025  0.00  0.00    -0.048 A 
ATOM     16  C   UNL     1      -1.857  -1.283   1.065  0.00  0.00    +0.004 A 
ATOM     17  C   UNL     1      -3.143  -1.782   1.077  0.00  0.00    +0.013 A 
ATOM     18  C   UNL     1      -4.020  -1.468   0.038  0.00  0.00    +0.037 A 
ATOM     19  C   UNL     1      -3.590  -0.649  -1.008  0.00  0.00    +0.013 A 
ATOM     20  C   UNL     1      -2.303  -0.152  -1.005  0.00  0.00    +0.004 A 
BRANCH  15  22
ATOM     21  C   UNL     1       0.003   1.413   0.749  0.00  0.00    +0.009 C 
ATOM     22  C   UNL     1      -0.030   0.069   0.018  0.00  0.00    +0.032 C 
ENDBRANCH  15  22
ENDBRANCH   1  18
BRANCH   5  23
ATOM     23  C   UNL     1      -5.287  -4.237  -3.426  0.00  0.00    +0.218 C 
ATOM     24  O   UNL     1      -4.561  -4.522  -2.497  0.00  0.00    -0.275 OA
ATOM     25  N   UNL     1      -5.258  -4.974  -4.554  0.00  0.00    -0.312 N 
ATOM     26  H   UNL     1      -5.838  -4.746  -5.298  0.00  0.00    +0.149 HD
BRANCH  25  27
ATOM     27  C   UNL     1      -4.351  -6.120  -4.658  0.00  0.00    +0.074 C 
ATOM     28  C   UNL     1      -2.971  -5.639  -5.112  0.00  0.00    +0.028 C 
BRANCH  27  29
ATOM     29  C   UNL     1      -4.904  -7.118  -5.678  0.00  0.00    +0.057 C 
BRANCH  29  30
ATOM     30  C   UNL     1      -6.205  -7.684  -5.171  0.00  0.00    -0.045 A 
ATOM     31  C   UNL     1      -6.205  -8.826  -4.391  0.00  0.00    +0.006 A 
ATOM     32  C   UNL     1      -7.398  -9.346  -3.926  0.00  0.00    +0.038 A 
ATOM     33  C   UNL     1      -8.594  -8.723  -4.241  0.00  0.00    +0.123 A 
ATOM     34  C   UNL     1      -8.593  -7.580  -5.022  0.00  0.00    +0.038 A 
ATOM     35  C   UNL     1      -7.398  -7.058  -5.482  0.00  0.00    +0.006 A 
ATOM     36  F   UNL     1      -9.760  -9.230  -3.788  0.00  0.00    -0.205 F 
ENDBRANCH  29  30
ENDBRANCH  27  29
ENDBRANCH  25  27
ENDBRANCH   5  23
TORSDOF 6
