REMARK  Name = ZINC38546800
REMARK  9 active torsions:
REMARK  status: ('A' for Active; 'I' for Inactive)
REMARK    1  A    between atoms: C_1  and  C_2
REMARK    2  A    between atoms: C_2  and  N_3
REMARK    3  A    between atoms: N_6  and  C_9
REMARK    4  A    between atoms: C_9  and  C_11
REMARK    5  A    between atoms: C_9  and  C_20
REMARK    6  A    between atoms: C_21  and  C_34
REMARK    7  A    between atoms: C_22  and  C_33
REMARK    8  A    between atoms: C_24  and  N_25
REMARK    9  A    between atoms: C_26  and  C_28
REMARK                            x       y       z     vdW  Elec       q    Type
REMARK                         _______ _______ _______ _____ _____    ______ ____
ROOT
ATOM      1  C   UNL     1       3.474  -2.490  -3.752  0.00  0.00    +0.120 C 
ENDROOT
BRANCH   1   2
ATOM      2  C   UNL     1       4.937  -2.144  -3.654  0.00  0.00    -0.022 A 
ATOM      3  C   UNL     1       5.557  -2.111  -2.419  0.00  0.00    +0.009 A 
ATOM      4  C   UNL     1       6.899  -1.795  -2.325  0.00  0.00    +0.050 A 
ATOM      5  C   UNL     1       7.627  -1.508  -3.469  0.00  0.00    +0.166 A 
ATOM      6  C   UNL     1       7.002  -1.541  -4.713  0.00  0.00    +0.167 A 
ATOM      7  C   UNL     1       5.657  -1.865  -4.800  0.00  0.00    +0.055 A 
ATOM      8  O   UNL     1       7.921  -1.226  -5.671  0.00  0.00    -0.453 OA
ATOM      9  C   UNL     1       9.012  -0.602  -4.967  0.00  0.00    +0.466 C 
ATOM     10  O   UNL     1       8.938  -1.173  -3.647  0.00  0.00    -0.453 OA
ENDBRANCH   1   2
BRANCH   1  14
ATOM     11  N   UNL     1       0.777  -0.343  -1.304  0.00  0.00    +0.381 N 
ATOM     12  C   UNL     1       2.197   0.034  -1.264  0.00  0.00    -0.063 C 
ATOM     13  C   UNL     1       2.898  -0.485  -2.521  0.00  0.00    +0.067 C 
ATOM     14  N   UNL     1       2.763  -1.947  -2.586  0.00  0.00    -0.295 NA
ATOM     15  C   UNL     1       1.347  -2.340  -2.602  0.00  0.00    +0.067 C 
ATOM     16  C   UNL     1       0.658  -1.806  -1.344  0.00  0.00    -0.063 C 
ATOM     17  H   UNL     1       0.348   0.052  -2.128  0.00  0.00    -0.082 HD
BRANCH  11  19
ATOM     18  C   UNL     1       0.116   1.700  -0.128  0.00  0.00    -0.017 C 
ATOM     19  C   UNL     1       0.100   0.171  -0.106  0.00  0.00    -0.082 C 
ENDBRANCH  11  19
ENDBRANCH   1  14
BRANCH   1  20
ATOM     20  C   UNL     1       3.313  -3.988  -3.785  0.00  0.00    +0.006 A 
ATOM     21  C   UNL     1       3.062  -4.643  -4.977  0.00  0.00    -0.034 A 
ATOM     22  C   UNL     1       2.923  -5.990  -4.972  0.00  0.00    -0.008 A 
ATOM     23  S   UNL     1       3.148  -6.381  -3.244  0.00  0.00    -0.078 S 
ATOM     24  C   UNL     1       3.418  -4.722  -2.642  0.00  0.00    +0.077 A 
ATOM     25  C   UNL     1       2.650  -6.919  -6.126  0.00  0.00    +0.052 C 
ATOM     26  C   UNL     1       2.944  -3.868  -6.264  0.00  0.00    +0.045 C 
BRANCH  24  27
ATOM     27  N   UNL     1       3.669  -4.290  -1.339  0.00  0.00    -0.275 N 
ATOM     28  C   UNL     1       3.857  -5.191  -0.354  0.00  0.00    +0.255 C 
ATOM     29  O   UNL     1       3.808  -6.382  -0.601  0.00  0.00    -0.269 OA
ATOM     30  H   UNL     1       3.708  -3.341  -1.141  0.00  0.00    +0.156 HD
BRANCH  28  31
ATOM     31  C   UNL     1       4.121  -4.737   1.014  0.00  0.00    +0.074 A 
ATOM     32  C   UNL     1       4.346  -5.490   2.157  0.00  0.00    +0.021 A 
ATOM     33  C   UNL     1       4.567  -4.774   3.309  0.00  0.00    +0.008 A 
ATOM     34  C   UNL     1       4.552  -3.419   3.257  0.00  0.00    +0.046 A 
ATOM     35  S   UNL     1       4.245  -3.073   1.642  0.00  0.00    -0.092 S 
ENDBRANCH  28  31
ENDBRANCH  24  27
ENDBRANCH   1  20
TORSDOF 6
