REMARK  Name = ZINC63557885
REMARK  9 active torsions:
REMARK  status: ('A' for Active; 'I' for Inactive)
REMARK    1  A    between atoms: C_1  and  C_2
REMARK    2  A    between atoms: C_8  and  C_11
REMARK    3  A    between atoms: C_11  and  C_12
REMARK    4  A    between atoms: C_12  and  N_13
REMARK    5  A    between atoms: C_15  and  C_20
REMARK    6  A    between atoms: N_22  and  C_23
REMARK    7  A    between atoms: C_28  and  C_29
REMARK    8  A    between atoms: N_31  and  C_32
REMARK    9  A    between atoms: C_32  and  C_33
REMARK                            x       y       z     vdW  Elec       q    Type
REMARK                         _______ _______ _______ _____ _____    ______ ____
ROOT
ATOM      1  C   UNL     1      -0.911  -3.461   9.126  0.00  0.00    +0.222 C 
ATOM      2  O   UNL     1      -0.026  -4.272   8.951  0.00  0.00    -0.275 OA
ATOM      3  N   UNL     1      -1.175  -3.011  10.369  0.00  0.00    -0.285 N 
ATOM      4  H   UNL     1      -1.838  -2.315  10.502  0.00  0.00    +0.155 HD
ENDROOT
BRANCH   1   7
ATOM      5  N   UNL     1      -1.353  -2.558   5.619  0.00  0.00    -0.300 N 
ATOM      6  C   UNL     1      -1.239  -3.608   6.637  0.00  0.00    +0.121 C 
ATOM      7  C   UNL     1      -1.715  -2.958   7.955  0.00  0.00    +0.101 C 
ATOM      8  C   UNL     1      -1.430  -1.462   7.689  0.00  0.00    +0.110 C 
ATOM      9  C   UNL     1      -1.450  -1.341   6.182  0.00  0.00    +0.216 C 
ATOM     10  O   UNL     1      -1.543  -0.298   5.569  0.00  0.00    -0.276 OA
BRANCH   5  11
ATOM     11  C   UNL     1      -1.353  -2.803   4.175  0.00  0.00    +0.112 C 
BRANCH  11  12
ATOM     12  C   UNL     1       0.083  -2.763   3.650  0.00  0.00    +0.052 C 
BRANCH  12  20
ATOM     13  C   UNL     1       0.072   1.560   0.044  0.00  0.00    +0.044 C 
ATOM     14  C   UNL     1       0.074   0.054   0.027  0.00  0.00    -0.050 A 
ATOM     15  C   UNL     1       0.074  -0.615  -1.205  0.00  0.00    +0.005 A 
ATOM     16  C   UNL     1       0.076  -1.962  -1.304  0.00  0.00    +0.026 A 
ATOM     17  C   UNL     1       0.079  -2.768  -0.132  0.00  0.00    +0.043 A 
ATOM     18  N   UNL     1       0.081  -4.069   0.032  0.00  0.00    -0.380 N 
ATOM     19  C   UNL     1       0.083  -4.359   1.470  0.00  0.00    +0.144 C 
ATOM     20  C   UNL     1       0.082  -3.015   2.164  0.00  0.00    -0.040 C 
ATOM     21  C   UNL     1       0.080  -2.086   1.181  0.00  0.00    -0.001 A 
ATOM     22  C   UNL     1       0.083  -0.618   1.201  0.00  0.00    +0.013 A 
ATOM     23  H   UNL     1       0.080  -4.729  -0.679  0.00  0.00    +0.160 HD
ENDBRANCH  12  20
ENDBRANCH  11  12
ENDBRANCH   5  11
ENDBRANCH   1   7
BRANCH   3  24
ATOM     24  C   UNL     1      -0.497  -3.544  11.462  0.00  0.00    +0.046 A 
ATOM     25  C   UNL     1       0.833  -3.925  11.340  0.00  0.00    +0.024 A 
ATOM     26  C   UNL     1       1.503  -4.453  12.425  0.00  0.00    +0.002 A 
ATOM     27  C   UNL     1       0.857  -4.608  13.641  0.00  0.00    +0.001 A 
ATOM     28  C   UNL     1      -0.462  -4.236  13.780  0.00  0.00    +0.015 A 
ATOM     29  C   UNL     1      -1.152  -3.695  12.693  0.00  0.00    +0.058 A 
BRANCH  29  30
ATOM     30  C   UNL     1      -2.563  -3.288  12.838  0.00  0.00    +0.246 C 
ATOM     31  O   UNL     1      -3.190  -2.913  11.866  0.00  0.00    -0.270 OA
ATOM     32  N   UNL     1      -3.157  -3.333  14.047  0.00  0.00    -0.307 N 
ATOM     33  H   UNL     1      -2.656  -3.632  14.822  0.00  0.00    +0.149 HD
BRANCH  32  34
ATOM     34  C   UNL     1      -4.558  -2.929  14.190  0.00  0.00    +0.139 C 
BRANCH  34  35
ATOM     35  C   UNL     1      -4.976  -3.072  15.631  0.00  0.00    -0.030 A 
ATOM     36  C   UNL     1      -5.509  -4.265  16.081  0.00  0.00    +0.005 A 
ATOM     37  C   UNL     1      -5.894  -4.395  17.402  0.00  0.00    +0.000 A 
ATOM     38  C   UNL     1      -5.744  -3.333  18.274  0.00  0.00    +0.000 A 
ATOM     39  C   UNL     1      -5.211  -2.139  17.824  0.00  0.00    +0.000 A 
ATOM     40  C   UNL     1      -4.822  -2.010  16.503  0.00  0.00    +0.005 A 
ENDBRANCH  34  35
ENDBRANCH  32  34
ENDBRANCH  29  30
ENDBRANCH   3  24
TORSDOF 8
