REMARK  Name = ZINC24211001
REMARK  8 active torsions:
REMARK  status: ('A' for Active; 'I' for Inactive)
REMARK    1  A    between atoms: C_4  and  C_7
REMARK    2  A    between atoms: C_7  and  C_9
REMARK    3  A    between atoms: C_7  and  O_15
REMARK    4  A    between atoms: N_11  and  C_12
REMARK    5  A    between atoms: O_15  and  C_16
REMARK    6  A    between atoms: C_16  and  C_18
REMARK    7  A    between atoms: C_21  and  C_23
REMARK    8  A    between atoms: C_23  and  N_24
REMARK                            x       y       z     vdW  Elec       q    Type
REMARK                         _______ _______ _______ _____ _____    ______ ____
ROOT
ATOM      1  O   UNL     1       3.559   3.326   0.864  0.00  0.00    -0.441 OA
ENDROOT
BRANCH   1   2
ATOM      2  C   UNL     1       3.916   3.140   2.152  0.00  0.00    +0.376 C 
ATOM      3  O   UNL     1       4.310   2.051   2.522  0.00  0.00    -0.241 OA
BRANCH   2   4
ATOM      4  C   UNL     1       3.828   4.250   3.103  0.00  0.00    +0.212 A 
ATOM      5  C   UNL     1       4.156   4.199   4.429  0.00  0.00    +0.057 A 
ATOM      6  C   UNL     1       3.920   5.480   4.952  0.00  0.00    +0.047 A 
ATOM      7  C   UNL     1       3.465   6.247   3.937  0.00  0.00    +0.126 A 
ATOM      8  O   UNL     1       3.416   5.504   2.824  0.00  0.00    -0.451 OA
BRANCH   7   9
ATOM      9  C   UNL     1       3.081   7.701   4.039  0.00  0.00    +0.199 C 
BRANCH   9  10
ATOM     10  N   UNL     1       4.254   8.536   3.765  0.00  0.00    -0.308 N 
ATOM     11  C   UNL     1       4.517   8.926   2.492  0.00  0.00    +0.089 A 
ATOM     12  C   UNL     1       5.594   9.697   2.215  0.00  0.00    +0.018 A 
ATOM     13  C   UNL     1       6.451  10.100   3.248  0.00  0.00    +0.007 A 
ATOM     14  C   UNL     1       6.185   9.707   4.527  0.00  0.00    +0.070 A 
ATOM     15  C   UNL     1       5.055   8.911   4.780  0.00  0.00    +0.252 A 
ATOM     16  O   UNL     1       4.802   8.556   5.921  0.00  0.00    -0.268 OA
ENDBRANCH   9  10
ENDBRANCH   7   9
ENDBRANCH   2   4
ENDBRANCH   1   2
BRANCH   1  17
ATOM     17  C   UNL     1       3.672   2.182  -0.023  0.00  0.00    +0.292 C 
BRANCH  17  21
ATOM     18  C   UNL     1       0.002  -0.004   0.002  0.00  0.00    +0.000 A 
ATOM     19  C   UNL     1      -0.017   1.378   0.010  0.00  0.00    +0.000 A 
ATOM     20  C   UNL     1       1.171   2.086   0.002  0.00  0.00    +0.008 A 
ATOM     21  C   UNL     1       2.377   1.411  -0.015  0.00  0.00    +0.002 A 
ATOM     22  C   UNL     1       2.396   0.029  -0.022  0.00  0.00    +0.008 A 
ATOM     23  C   UNL     1       1.208  -0.679  -0.013  0.00  0.00    +0.000 A 
ENDBRANCH  17  21
BRANCH  17  24
ATOM     24  C   UNL     1       3.964   2.658  -1.423  0.00  0.00    +0.259 C 
ATOM     25  O   UNL     1       3.978   3.845  -1.669  0.00  0.00    -0.271 OA
ATOM     26  N   UNL     1       4.210   1.764  -2.401  0.00  0.00    -0.309 N 
ATOM     27  H   UNL     1       4.198   0.687  -2.177  0.00  0.00    +0.149 HD
BRANCH  26  28
ATOM     28  C   UNL     1       4.495   2.227  -3.761  0.00  0.00    +0.073 C 
ATOM     29  C   UNL     1       3.813   1.489  -4.915  0.00  0.00    +0.024 C 
ATOM     30  C   UNL     1       5.311   1.302  -4.666  0.00  0.00    +0.024 C 
ENDBRANCH  26  28
ENDBRANCH  17  24
ENDBRANCH   1  17
TORSDOF 8
