REMARK  Name = ZINC34912099
REMARK  6 active torsions:
REMARK  status: ('A' for Active; 'I' for Inactive)
REMARK    1  A    between atoms: C_1  and  C_2
REMARK    2  A    between atoms: C_5  and  N_9
REMARK    3  A    between atoms: C_7  and  C_8
REMARK    4  A    between atoms: C_10  and  C_12
REMARK    5  A    between atoms: N_15  and  C_18
REMARK    6  A    between atoms: C_24  and  C_26
REMARK                            x       y       z     vdW  Elec       q    Type
REMARK                         _______ _______ _______ _____ _____    ______ ____
ROOT
ATOM      1  C   UNL     1      -1.215  -7.012  -0.862  0.00  0.00    +0.072 C 
ATOM      2  C   UNL     1       0.141  -7.405  -0.269  0.00  0.00    -0.006 C 
ATOM      3  C   UNL     1       0.325  -8.919  -0.391  0.00  0.00    -0.078 C 
ATOM      4  N   UNL     1       0.275  -9.310  -1.805  0.00  0.00    +0.382 N 
ATOM      5  C   UNL     1      -1.048  -9.001  -2.361  0.00  0.00    -0.078 C 
ATOM      6  C   UNL     1      -1.284  -7.490  -2.315  0.00  0.00    -0.006 C 
ATOM      7  H   UNL     1       0.981  -8.803  -2.317  0.00  0.00    -0.081 HD
ENDROOT
BRANCH   4   8
ATOM      8  C   UNL     1       0.530 -10.752  -1.922  0.00  0.00    -0.066 C 
ATOM      9  C   UNL     1       1.912 -11.074  -1.349  0.00  0.00    +0.004 C 
ATOM     10  C   UNL     1       2.159 -12.583  -1.442  0.00  0.00    +0.106 C 
ATOM     11  N   UNL     1       1.969 -13.009  -2.835  0.00  0.00    -0.298 N 
ATOM     12  C   UNL     1       0.710 -12.671  -3.511  0.00  0.00    +0.106 C 
ATOM     13  C   UNL     1       0.478 -11.161  -3.396  0.00  0.00    +0.004 C 
ATOM     14  C   UNL     1       2.932 -13.697  -3.480  0.00  0.00    +0.248 C 
ATOM     15  O   UNL     1       3.937 -14.038  -2.887  0.00  0.00    -0.270 OA
BRANCH  14  16
ATOM     16  C   UNL     1       2.766 -14.038  -4.908  0.00  0.00    +0.055 A 
ATOM     17  C   UNL     1       1.631 -14.730  -5.336  0.00  0.00    +0.016 A 
ATOM     18  C   UNL     1       1.482 -15.046  -6.670  0.00  0.00    +0.021 A 
ATOM     19  C   UNL     1       2.454 -14.677  -7.585  0.00  0.00    +0.042 A 
ATOM     20  C   UNL     1       3.582 -13.991  -7.168  0.00  0.00    +0.040 A 
ATOM     21  C   UNL     1       3.740 -13.663  -5.836  0.00  0.00    +0.054 A 
ATOM     22 CL   UNL     1       5.151 -12.795  -5.316  0.00  0.00    -0.083 Cl
ATOM     23 CL   UNL     1       2.258 -15.078  -9.263  0.00  0.00    -0.083 Cl
ENDBRANCH  14  16
ENDBRANCH   4   8
BRANCH   1  25
ATOM     24  N   UNL     1      -1.341  -4.869   0.366  0.00  0.00    -0.285 N 
ATOM     25  C   UNL     1      -1.370  -5.514  -0.817  0.00  0.00    +0.220 C 
ATOM     26  O   UNL     1      -1.520  -4.888  -1.845  0.00  0.00    -0.275 OA
ATOM     27  H   UNL     1      -1.144  -5.357   1.181  0.00  0.00    +0.155 HD
BRANCH  24  32
ATOM     28  C   UNL     1      -2.372   0.706   0.585  0.00  0.00    +0.044 C 
ATOM     29  C   UNL     1      -2.098  -0.775   0.527  0.00  0.00    -0.047 A 
ATOM     30  C   UNL     1      -2.754  -1.562  -0.402  0.00  0.00    +0.005 A 
ATOM     31  C   UNL     1      -2.505  -2.919  -0.458  0.00  0.00    +0.023 A 
ATOM     32  C   UNL     1      -1.595  -3.494   0.420  0.00  0.00    +0.034 A 
ATOM     33  C   UNL     1      -0.937  -2.700   1.351  0.00  0.00    +0.027 A 
ATOM     34  C   UNL     1      -1.187  -1.343   1.398  0.00  0.00    -0.046 A 
ATOM     35  C   UNL     1      -0.470  -0.480   2.404  0.00  0.00    +0.044 C 
ENDBRANCH  24  32
ENDBRANCH   1  25
TORSDOF 4
