REMARK  Name = ZINC09590742
REMARK  3 active torsions:
REMARK  status: ('A' for Active; 'I' for Inactive)
REMARK    1  A    between atoms: C_4  and  C_7
REMARK    2  A    between atoms: C_12  and  C_28
REMARK    3  A    between atoms: C_14  and  C_26
REMARK                            x       y       z     vdW  Elec       q    Type
REMARK                         _______ _______ _______ _____ _____    ______ ____
ROOT
ATOM      1  C   UNL     1       2.450   3.936   0.001  0.00  0.00    +0.032 C 
ATOM      2  C   UNL     1       2.517   4.841   1.236  0.00  0.00    +0.060 C 
ATOM      3  C   UNL     1       3.842   5.570   1.249  0.00  0.00    +0.025 C 
ATOM      4  C   UNL     1       4.426   5.865   0.061  0.00  0.00    +0.025 C 
ATOM      5  C   UNL     1       5.835   6.422   0.071  0.00  0.00    +0.099 C 
ATOM      6  C   UNL     1       6.550   6.399   1.406  0.00  0.00    +0.082 C 
ATOM      7  C   UNL     1       5.797   6.108   2.538  0.00  0.00    +0.146 C 
ATOM      8  N   UNL     1       4.441   5.853   2.450  0.00  0.00    -0.256 N 
ATOM      9  C   UNL     1       3.695   5.859   3.626  0.00  0.00    +0.050 A 
ATOM     10  C   UNL     1       2.312   5.941   3.642  0.00  0.00    +0.024 A 
ATOM     11  C   UNL     1       1.616   5.817   4.829  0.00  0.00    +0.002 A 
ATOM     12  C   UNL     1       2.288   5.631   6.027  0.00  0.00    +0.001 A 
ATOM     13  C   UNL     1       3.666   5.627   6.048  0.00  0.00    +0.013 A 
ATOM     14  C   UNL     1       4.375   5.778   4.857  0.00  0.00    +0.036 A 
ATOM     15  C   UNL     1       5.844   5.849   4.851  0.00  0.00    +0.127 C 
ATOM     16  N   UNL     1       6.457   6.056   3.705  0.00  0.00    -0.215 NA
ATOM     17  N   UNL     1       6.563   5.726   6.013  0.00  0.00    -0.343 N 
ATOM     18  C   UNL     1       3.766   5.669  -1.158  0.00  0.00    +0.162 C 
ATOM     19  O   UNL     1       4.174   6.205  -2.171  0.00  0.00    -0.292 OA
ATOM     20  C   UNL     1       2.517   4.828  -1.243  0.00  0.00    +0.088 C 
ATOM     21  H   UNL     1       7.530   5.792   5.994  0.00  0.00    +0.144 HD
ATOM     22  H   UNL     1       6.103   5.574   6.854  0.00  0.00    +0.144 HD
ENDROOT
BRANCH   1  26
ATOM     23  C   UNL     1      -1.219   1.751   0.017  0.00  0.00    +0.000 A 
ATOM     24  C   UNL     1      -0.013   1.076   0.008  0.00  0.00    +0.000 A 
ATOM     25  C   UNL     1       1.175   1.783   0.000  0.00  0.00    +0.004 A 
ATOM     26  C   UNL     1       1.156   3.165   0.008  0.00  0.00    -0.044 A 
ATOM     27  C   UNL     1      -0.050   3.840   0.023  0.00  0.00    +0.004 A 
ATOM     28  C   UNL     1      -1.238   3.133   0.029  0.00  0.00    +0.000 A 
ENDBRANCH   1  26
BRANCH   5  29
ATOM     29  C   UNL     1       6.673   5.611  -0.883  0.00  0.00    -0.017 A 
ATOM     30  C   UNL     1       7.284   6.217  -1.970  0.00  0.00    +0.007 A 
ATOM     31  C   UNL     1       8.050   5.432  -2.819  0.00  0.00    +0.020 A 
ATOM     32  C   UNL     1       8.169   4.079  -2.561  0.00  0.00    +0.111 A 
ATOM     33  N   UNL     1       7.569   3.536  -1.520  0.00  0.00    -0.263 NA
ATOM     34  C   UNL     1       6.837   4.252  -0.689  0.00  0.00    +0.115 A 
ENDBRANCH   5  29
BRANCH   6  35
ATOM     35  C   UNL     1       7.954   6.664   1.494  0.00  0.00    +0.099 C 
ATOM     36  N   UNL     1       9.068   6.875   1.563  0.00  0.00    -0.191 NA
ENDBRANCH   6  35
TORSDOF 3
