REMARK  Name = ZINC65713331
REMARK  6 active torsions:
REMARK  status: ('A' for Active; 'I' for Inactive)
REMARK    1  A    between atoms: C_1  and  C_2
REMARK    2  A    between atoms: C_3  and  C_29
REMARK    3  A    between atoms: C_9  and  C_12
REMARK    4  A    between atoms: C_12  and  N_13
REMARK    5  A    between atoms: C_14  and  C_16
REMARK    6  A    between atoms: N_18  and  C_19
REMARK                            x       y       z     vdW  Elec       q    Type
REMARK                         _______ _______ _______ _____ _____    ______ ____
ROOT
ATOM      1  N   UNL     1      -1.311  -1.447   5.397  0.00  0.00    -0.303 N 
ATOM      2  C   UNL     1      -1.548  -1.232   6.706  0.00  0.00    +0.300 C 
ATOM      3  O   UNL     1      -0.620  -1.098   7.476  0.00  0.00    -0.265 OA
ATOM      4  H   UNL     1      -2.053  -1.554   4.781  0.00  0.00    +0.149 HD
ENDROOT
BRANCH   2   5
ATOM      5  C   UNL     1      -2.952  -1.160   7.209  0.00  0.00    +0.303 C 
ATOM      6  O   UNL     1      -3.880  -1.295   6.439  0.00  0.00    -0.265 OA
ATOM      7  N   UNL     1      -3.189  -0.946   8.519  0.00  0.00    -0.275 N 
ATOM      8  H   UNL     1      -2.449  -0.903   9.145  0.00  0.00    +0.155 HD
BRANCH   7   9
ATOM      9  C   UNL     1      -4.501  -0.785   8.975  0.00  0.00    +0.080 A 
ATOM     10  C   UNL     1      -5.536  -1.496   8.381  0.00  0.00    +0.027 A 
ATOM     11  C   UNL     1      -6.832  -1.337   8.832  0.00  0.00    +0.006 A 
ATOM     12  C   UNL     1      -7.104  -0.470   9.874  0.00  0.00    +0.049 A 
ATOM     13  C   UNL     1      -6.076   0.245  10.474  0.00  0.00    +0.164 A 
ATOM     14  C   UNL     1      -4.771   0.084  10.030  0.00  0.00    +0.183 A 
ATOM     15  O   UNL     1      -3.747   0.767  10.612  0.00  0.00    -0.483 OA
ATOM     16  C   UNL     1      -4.101   1.901  11.411  0.00  0.00    +0.270 C 
ATOM     17  C   UNL     1      -5.266   1.498  12.326  0.00  0.00    +0.270 C 
ATOM     18  O   UNL     1      -6.364   1.097  11.496  0.00  0.00    -0.485 OA
ENDBRANCH   7   9
ENDBRANCH   2   5
BRANCH   1  19
ATOM     19  C   UNL     1       0.067  -1.518   4.903  0.00  0.00    +0.140 C 
BRANCH  19  28
ATOM     20  C   UNL     1       0.005   1.451   0.004  0.00  0.00    +0.046 C 
ATOM     21  C   UNL     1       0.015  -0.056   0.001  0.00  0.00    -0.022 A 
ATOM     22  C   UNL     1       0.017  -0.852  -1.079  0.00  0.00    +0.017 A 
ATOM     23  N   UNL     1       0.027  -2.165  -0.692  0.00  0.00    -0.358 N 
ATOM     24  H   UNL     1       0.030  -2.924  -1.296  0.00  0.00    +0.166 HD
ATOM     25  C   UNL     1       0.032  -2.247   0.683  0.00  0.00    +0.047 A 
ATOM     26  C   UNL     1       0.031  -0.930   1.177  0.00  0.00    +0.003 A 
ATOM     27  C   UNL     1       0.041  -0.703   2.554  0.00  0.00    +0.015 A 
ATOM     28  C   UNL     1       0.056  -1.763   3.417  0.00  0.00    -0.030 A 
ATOM     29  C   UNL     1       0.060  -3.064   2.934  0.00  0.00    +0.007 A 
ATOM     30  C   UNL     1       0.041  -3.311   1.578  0.00  0.00    +0.026 A 
ATOM     31  C   UNL     1       0.009  -0.372  -2.508  0.00  0.00    +0.063 C 
ENDBRANCH  19  28
ENDBRANCH   1  19
TORSDOF 4
