REMARK  Name = ZINC08924277
REMARK  7 active torsions:
REMARK  status: ('A' for Active; 'I' for Inactive)
REMARK    1  A    between atoms: C_7  and  S_18
REMARK    2  A    between atoms: C_8  and  C_11
REMARK    3  A    between atoms: S_18  and  C_19
REMARK    4  A    between atoms: C_19  and  C_20
REMARK    5  A    between atoms: C_20  and  N_21
REMARK    6  A    between atoms: C_22  and  C_24
REMARK    7  A    between atoms: C_29  and  N_30
REMARK                            x       y       z     vdW  Elec       q    Type
REMARK                         _______ _______ _______ _____ _____    ______ ____
ROOT
ATOM      1  C   UNL     1      -9.627  -1.663   4.557  0.00  0.00    +0.001 A 
ATOM      2  C   UNL     1     -10.619  -2.592   4.271  0.00  0.00    +0.002 A 
ATOM      3  C   UNL     1     -10.953  -2.883   2.966  0.00  0.00    +0.026 A 
ATOM      4  C   UNL     1     -10.292  -2.241   1.923  0.00  0.00    +0.048 A 
ATOM      5  C   UNL     1      -9.288  -1.301   2.219  0.00  0.00    +0.014 A 
ATOM      6  C   UNL     1      -8.965  -1.022   3.549  0.00  0.00    +0.011 A 
ATOM      7  C   UNL     1      -8.790  -0.808   0.931  0.00  0.00    +0.041 A 
ATOM      8  C   UNL     1      -9.499  -1.449  -0.038  0.00  0.00    +0.061 A 
ATOM      9  N   UNL     1     -10.401  -2.317   0.552  0.00  0.00    -0.353 N 
ATOM     10  H   UNL     1     -11.019  -2.890   0.072  0.00  0.00    +0.166 HD
ENDROOT
BRANCH   8  11
ATOM     11  C   UNL     1      -9.329  -1.253  -1.491  0.00  0.00    -0.001 A 
ATOM     12  C   UNL     1      -9.225   0.037  -2.017  0.00  0.00    +0.011 A 
ATOM     13  C   UNL     1      -9.061   0.214  -3.375  0.00  0.00    +0.016 A 
ATOM     14  C   UNL     1      -9.011  -0.883  -4.218  0.00  0.00    +0.018 A 
ATOM     15  C   UNL     1      -9.119  -2.165  -3.704  0.00  0.00    +0.016 A 
ATOM     16  C   UNL     1      -9.278  -2.356  -2.347  0.00  0.00    +0.011 A 
ATOM     17 BR   UNL     1      -8.793  -0.631  -6.079  0.00  0.00    -0.050 Br
ENDBRANCH   8  11
BRANCH   7  18
ATOM     18  S   UNL     1      -7.523   0.392   0.686  0.00  0.00    -0.121 S 
BRANCH  18  19
ATOM     19  C   UNL     1      -6.000  -0.590   0.600  0.00  0.00    +0.093 C 
BRANCH  19  20
ATOM     20  C   UNL     1      -4.805   0.340   0.385  0.00  0.00    +0.115 C 
BRANCH  20  21
ATOM     21  N   UNL     1      -3.575  -0.453   0.316  0.00  0.00    -0.310 N 
ATOM     22  C   UNL     1      -2.388   0.159   0.130  0.00  0.00    +0.246 C 
ATOM     23  O   UNL     1      -2.339   1.369   0.020  0.00  0.00    -0.270 OA
ATOM     24  H   UNL     1      -3.615  -1.418   0.404  0.00  0.00    +0.149 HD
BRANCH  22  25
ATOM     25  C   UNL     1      -1.147  -0.641   0.060  0.00  0.00    +0.067 A 
ATOM     26  C   UNL     1      -0.815  -1.512   1.099  0.00  0.00    +0.015 A 
ATOM     27  C   UNL     1       0.344  -2.256   1.028  0.00  0.00    +0.001 A 
ATOM     28  C   UNL     1       1.177  -2.141  -0.071  0.00  0.00    +0.002 A 
ATOM     29  C   UNL     1       0.851  -1.283  -1.107  0.00  0.00    +0.033 A 
ATOM     30  C   UNL     1      -0.303  -0.529  -1.045  0.00  0.00    +0.138 A 
BRANCH  30  31
ATOM     31  N   UNL     1      -0.647   0.391  -2.152  0.00  0.00    +0.057 N 
ATOM     32  O   UNL     1       0.143   0.574  -3.060  0.00  0.00    -0.126 OA
ATOM     33  O   UNL     1      -1.723   0.962  -2.156  0.00  0.00    -0.126 OA
ENDBRANCH  30  31
ENDBRANCH  22  25
ENDBRANCH  20  21
ENDBRANCH  19  20
ENDBRANCH  18  19
ENDBRANCH   7  18
TORSDOF 7
