REMARK  Name = ZINC09229717
REMARK  7 active torsions:
REMARK  status: ('A' for Active; 'I' for Inactive)
REMARK    1  A    between atoms: C_3  and  N_25
REMARK    2  A    between atoms: C_6  and  C_7
REMARK    3  A    between atoms: C_8  and  C_9
REMARK    4  A    between atoms: N_11  and  C_12
REMARK    5  A    between atoms: C_12  and  N_14
REMARK    6  A    between atoms: N_14  and  C_15
REMARK    7  A    between atoms: C_16  and  C_23
REMARK                            x       y       z     vdW  Elec       q    Type
REMARK                         _______ _______ _______ _____ _____    ______ ____
ROOT
ATOM      1  C   UNL     1       0.002  -0.004   0.002  0.00  0.00    +0.242 C 
ATOM      2  O   UNL     1      -1.043  -0.627   0.009  0.00  0.00    -0.270 OA
ATOM      3  N   UNL     1       1.178  -0.662  -0.013  0.00  0.00    -0.264 N 
ATOM      4  H   UNL     1       2.012  -0.166  -0.018  0.00  0.00    +0.157 HD
ENDROOT
BRANCH   1   6
ATOM      5  C   UNL     1      -1.195   2.117   0.019  0.00  0.00    +0.013 C 
ATOM      6  C   UNL     1      -0.018   1.459   0.010  0.00  0.00    +0.068 C 
BRANCH   5  12
ATOM      7  C   UNL     1      -0.015   4.308   0.031  0.00  0.00    +0.010 A 
ATOM      8  C   UNL     1      -0.043   5.687   0.033  0.00  0.00    +0.033 A 
ATOM      9  C   UNL     1      -1.252   6.359   0.042  0.00  0.00    +0.126 A 
ATOM     10  C   UNL     1      -2.444   5.654   0.044  0.00  0.00    +0.033 A 
ATOM     11  C   UNL     1      -2.433   4.275   0.037  0.00  0.00    +0.010 A 
ATOM     12  C   UNL     1      -1.215   3.589   0.027  0.00  0.00    -0.025 A 
BRANCH   9  13
ATOM     13  N   UNL     1      -1.273   7.839   0.050  0.00  0.00    +0.056 N 
ATOM     14  O   UNL     1      -2.336   8.433   0.059  0.00  0.00    -0.126 OA
ATOM     15  O   UNL     1      -0.226   8.462   0.048  0.00  0.00    -0.126 OA
ENDBRANCH   9  13
ENDBRANCH   5  12
ENDBRANCH   1   6
BRANCH   3  16
ATOM     16  C   UNL     1       1.196  -2.010  -0.020  0.00  0.00    +0.141 C 
ATOM     17  S   UNL     1      -0.274  -2.886  -0.011  0.00  0.00    -0.018 S 
BRANCH  16  18
ATOM     18  N   UNL     1       2.373  -2.667  -0.035  0.00  0.00    -0.290 N 
ATOM     19  H   UNL     1       3.206  -2.171  -0.040  0.00  0.00    +0.154 HD
BRANCH  18  20
ATOM     20  C   UNL     1       2.392  -4.054  -0.043  0.00  0.00    +0.089 A 
ATOM     21  C   UNL     1       3.487  -4.899  -0.063  0.00  0.00    +0.084 A 
ATOM     22  C   UNL     1       3.232  -6.339  -0.063  0.00  0.00    -0.018 A 
ATOM     23  C   UNL     1       1.933  -6.689  -0.052  0.00  0.00    -0.004 A 
ATOM     24  S   UNL     1       1.050  -5.148  -0.036  0.00  0.00    -0.077 S 
ATOM     25  C   UNL     1       1.752  -8.183  -0.056  0.00  0.00    +0.043 C 
ATOM     26  C   UNL     1       3.128  -8.743   0.367  0.00  0.00    +0.010 C 
ATOM     27  C   UNL     1       4.077  -7.614  -0.080  0.00  0.00    +0.037 C 
BRANCH  21  28
ATOM     28  C   UNL     1       4.822  -4.383  -0.080  0.00  0.00    +0.102 C 
ATOM     29  N   UNL     1       5.882  -3.972  -0.093  0.00  0.00    -0.191 NA
ENDBRANCH  21  28
ENDBRANCH  18  20
ENDBRANCH  16  18
ENDBRANCH   3  16
TORSDOF 7
