REMARK  Name = ZINC16101287
REMARK  4 active torsions:
REMARK  status: ('A' for Active; 'I' for Inactive)
REMARK    1  A    between atoms: C_1  and  C_2
REMARK    2  A    between atoms: C_5  and  N_9
REMARK    3  A    between atoms: N_9  and  S_10
REMARK    4  A    between atoms: S_10  and  C_13
REMARK                            x       y       z     vdW  Elec       q    Type
REMARK                         _______ _______ _______ _____ _____    ______ ____
ROOT
ATOM      1  S   UNL     1       3.985   2.420   0.005  0.00  0.00    +0.072 S 
ATOM      2  O   UNL     1       3.940   3.773   0.436  0.00  0.00    -0.150 OA
ATOM      3  O   UNL     1       4.836   1.455   0.608  0.00  0.00    -0.150 OA
ENDROOT
BRANCH   1   4
ATOM      4  C   UNL     1       2.342   1.795   0.137  0.00  0.00    +0.112 A 
ATOM      5  C   UNL     1       1.276   2.671   0.217  0.00  0.00    +0.032 A 
ATOM      6  C   UNL     1      -0.016   2.188   0.320  0.00  0.00    +0.051 A 
ATOM      7  C   UNL     1      -0.238   0.822   0.343  0.00  0.00    +0.162 A 
ATOM      8  C   UNL     1       0.832  -0.058   0.264  0.00  0.00    +0.164 A 
ATOM      9  C   UNL     1       2.124   0.429   0.161  0.00  0.00    +0.078 A 
ATOM     10  O   UNL     1       0.603  -1.403   0.288  0.00  0.00    -0.488 OA
ATOM     11  C   UNL     1       0.122  -1.932   1.526  0.00  0.00    +0.232 C 
ATOM     12  C   UNL     1      -1.388  -1.786   1.625  0.00  0.00    +0.082 C 
ATOM     13  C   UNL     1      -1.827  -0.331   1.669  0.00  0.00    +0.232 C 
ATOM     14  O   UNL     1      -1.508   0.332   0.443  0.00  0.00    -0.488 OA
ENDBRANCH   1   4
BRANCH   1  15
ATOM     15  N   UNL     1       4.369   2.449  -1.606  0.00  0.00    -0.216 N 
ATOM     16  H   UNL     1       5.091   1.896  -1.942  0.00  0.00    +0.174 HD
BRANCH  15  21
ATOM     17  C   UNL     1       1.460   5.780  -5.157  0.00  0.00    +0.045 C 
ATOM     18  C   UNL     1       2.233   4.895  -4.213  0.00  0.00    -0.032 A 
ATOM     19  C   UNL     1       2.026   3.528  -4.223  0.00  0.00    +0.006 A 
ATOM     20  C   UNL     1       2.737   2.713  -3.364  0.00  0.00    +0.025 A 
ATOM     21  C   UNL     1       3.653   3.270  -2.480  0.00  0.00    +0.049 A 
ATOM     22  C   UNL     1       3.860   4.643  -2.472  0.00  0.00    +0.044 A 
ATOM     23  C   UNL     1       3.149   5.452  -3.338  0.00  0.00    +0.046 A 
ATOM     24 CL   UNL     1       3.406   7.169  -3.329  0.00  0.00    -0.083 Cl
ENDBRANCH  15  21
ENDBRANCH   1  15
TORSDOF 3
