REMARK  Name = ZINC39766470
REMARK  16 active torsions:
REMARK  status: ('A' for Active; 'I' for Inactive)
REMARK    1  A    between atoms: C_1  and  C_2
REMARK    2  A    between atoms: C_2  and  C_3
REMARK    3  A    between atoms: C_4  and  C_37
REMARK    4  A    between atoms: C_9  and  C_11
REMARK    5  A    between atoms: C_11  and  C_13
REMARK    6  A    between atoms: C_11  and  S_14
REMARK    7  A    between atoms: S_14  and  C_15
REMARK    8  A    between atoms: C_18  and  CA_22
REMARK    9  A    between atoms: N_19  and  C_20
REMARK   10  A    between atoms: C_20  and  C_21
REMARK   11  A    between atoms: CA_22  and  C_24
REMARK   12  A    between atoms: CA_22  and  N_26
REMARK   13  A    between atoms: C_24  and  O_25
REMARK   14  A    between atoms: C_27  and  C_29
REMARK   15  A    between atoms: C_32  and  O_35
REMARK   16  A    between atoms: O_35  and  C_36
REMARK                            x       y       z     vdW  Elec       q    Type
REMARK                         _______ _______ _______ _____ _____    ______ ____
ROOT
ATOM      1  C   UNL     1       7.806  -3.589  -5.364  0.00  0.00    +0.192 A 
ATOM      2  N   UNL     1       8.701  -3.166  -4.502  0.00  0.00    -0.122 NA
ATOM      3  N   UNL     1       9.859  -3.631  -4.810  0.00  0.00    -0.131 NA
ATOM      4  C   UNL     1       9.773  -4.373  -5.877  0.00  0.00    +0.157 A 
ATOM      5  N   UNL     1       8.462  -4.378  -6.266  0.00  0.00    -0.305 N 
ENDROOT
BRANCH   5   6
ATOM      6  C   UNL     1       7.881  -5.080  -7.412  0.00  0.00    +0.122 C 
ATOM      7  C   UNL     1       7.925  -4.171  -8.643  0.00  0.00    +0.027 C 
ENDBRANCH   5   6
BRANCH   1   8
ATOM      8  S   UNL     1       6.084  -3.216  -5.355  0.00  0.00    -0.074 S 
BRANCH   8   9
ATOM      9  C   UNL     1       5.877  -2.135  -3.914  0.00  0.00    +0.137 C 
ATOM     10  C   UNL     1       6.638  -0.827  -4.144  0.00  0.00    +0.029 C 
BRANCH   9  17
ATOM     11  C   UNL     1       0.707  -0.490  -1.238  0.00  0.00    +0.053 A 
ATOM     12  C   UNL     1       0.033  -0.724  -2.390  0.00  0.00    +0.011 A 
ATOM     13  S   UNL     1       1.365  -1.259  -3.453  0.00  0.00    -0.057 S 
ATOM     14  C   UNL     1       2.618  -1.130  -2.337  0.00  0.00    +0.165 A 
ATOM     15  N   UNL     1       2.010  -0.702  -1.252  0.00  0.00    -0.229 NA
ATOM     16  N   UNL     1       3.968  -1.406  -2.519  0.00  0.00    -0.264 N 
ATOM     17  C   UNL     1       4.413  -1.836  -3.716  0.00  0.00    +0.232 C 
ATOM     18  O   UNL     1       3.635  -1.983  -4.635  0.00  0.00    -0.274 OA
ATOM     19  C   UNL     1      -1.436  -0.574  -2.692  0.00  0.00    +0.053 C 
ATOM     20  H   UNL     1       4.591  -1.288  -1.784  0.00  0.00    +0.157 HD
BRANCH  11  22
ATOM     21  C   UNL     1      -0.019   1.526   0.010  0.00  0.00    +0.010 C 
ATOM     22  C   UNL     1       0.002  -0.004   0.002  0.00  0.00    +0.053 C 
ENDBRANCH  11  22
ENDBRANCH   9  17
ENDBRANCH   8   9
ENDBRANCH   1   8
BRANCH   4  23
ATOM     23  CA  UNL     1      10.908  -5.097  -6.555  0.00  0.00    +0.167 C 
BRANCH  23  24
ATOM     24  N   UNL     1      11.729  -5.771  -5.547  0.00  0.00    -0.299 N 
ATOM     25  C   UNL     1      12.460  -6.851  -5.885  0.00  0.00    +0.245 C 
ATOM     26  O   UNL     1      12.439  -7.266  -7.028  0.00  0.00    -0.270 OA
ATOM     27  H   UNL     1      11.746  -5.440  -4.635  0.00  0.00    +0.150 HD
BRANCH  25  28
ATOM     28  C   UNL     1      13.288  -7.530  -4.869  0.00  0.00    +0.037 A 
ATOM     29  C   UNL     1      13.310  -7.058  -3.554  0.00  0.00    +0.016 A 
ATOM     30  C   UNL     1      14.083  -7.694  -2.609  0.00  0.00    +0.046 A 
ATOM     31  C   UNL     1      14.841  -8.805  -2.961  0.00  0.00    +0.120 A 
ATOM     32  C   UNL     1      14.822  -9.277  -4.268  0.00  0.00    +0.046 A 
ATOM     33  C   UNL     1      14.047  -8.650  -5.218  0.00  0.00    +0.016 A 
BRANCH  31  34
ATOM     34  O   UNL     1      15.602  -9.429  -2.027  0.00  0.00    -0.495 OA
ATOM     35  C   UNL     1      16.357 -10.564  -2.457  0.00  0.00    +0.277 C 
ENDBRANCH  31  34
ENDBRANCH  25  28
ENDBRANCH  23  24
BRANCH  23  36
ATOM     36  C   UNL     1      11.767  -4.091  -7.324  0.00  0.00    +0.186 C 
BRANCH  36  37
ATOM     37  O   UNL     1      12.200  -3.058  -6.437  0.00  0.00    -0.393 OA
ATOM     38  H   UNL     1      12.751  -2.384  -6.858  0.00  0.00    +0.209 HD
ENDBRANCH  36  37
ENDBRANCH  23  36
ENDBRANCH   4  23
TORSDOF 11
