REMARK  Name = ZINC51691671
REMARK  2 active torsions:
REMARK  status: ('A' for Active; 'I' for Inactive)
REMARK    1  A    between atoms: C_6  and  C_10
REMARK    2  A    between atoms: C_8  and  N_9
REMARK                            x       y       z     vdW  Elec       q    Type
REMARK                         _______ _______ _______ _____ _____    ______ ____
ROOT
ATOM      1  C   UNL     1      -0.019   1.540   0.011  0.00  0.00    +0.011 C 
ATOM      2  C   UNL     1       1.485   1.891  -0.002  0.00  0.00    +0.041 C 
ATOM      3  C   UNL     1       2.173   0.702   0.625  0.00  0.00    +0.013 A 
ATOM      4  C   UNL     1       1.324  -0.386   0.629  0.00  0.00    +0.050 A 
ATOM      5  N   UNL     1       1.749  -1.533   1.142  0.00  0.00    -0.236 NA
ATOM      6  C   UNL     1       2.962  -1.644   1.643  0.00  0.00    +0.137 A 
ATOM      7  N   UNL     1       3.805  -0.631   1.660  0.00  0.00    -0.217 NA
ATOM      8  C   UNL     1       3.451   0.552   1.165  0.00  0.00    +0.123 A 
ATOM      9  C   UNL     1       0.002  -0.004   0.002  0.00  0.00    +0.056 C 
ENDROOT
BRANCH   6  10
ATOM     10  C   UNL     1       3.399  -2.968   2.215  0.00  0.00    +0.085 C 
ATOM     11  C   UNL     1       3.813  -2.808   3.699  0.00  0.00    +0.041 C 
ATOM     12  C   UNL     1       5.066  -3.716   3.786  0.00  0.00    +0.160 C 
ATOM     13  O   UNL     1       5.716  -3.516   2.513  0.00  0.00    -0.379 OA
ATOM     14  C   UNL     1       4.680  -3.462   1.514  0.00  0.00    +0.171 C 
ENDBRANCH   6  10
BRANCH   8  15
ATOM     15  N   UNL     1       4.338   1.616   1.183  0.00  0.00    -0.343 N 
ATOM     16  H   UNL     1       4.072   2.475   0.819  0.00  0.00    +0.144 HD
ATOM     17  H   UNL     1       5.224   1.503   1.560  0.00  0.00    +0.144 HD
ENDBRANCH   8  15
TORSDOF 2
