REMARK  Name = ZINC06321439
REMARK  13 active torsions:
REMARK  status: ('A' for Active; 'I' for Inactive)
REMARK    1  A    between atoms: C_1  and  C_2
REMARK    2  A    between atoms: C_6  and  C_15
REMARK    3  A    between atoms: C_15  and  N_16
REMARK    4  A    between atoms: N_16  and  C_17
REMARK    5  A    between atoms: N_16  and  C_25
REMARK    6  A    between atoms: C_17  and  C_18
REMARK    7  A    between atoms: C_25  and  N_27
REMARK    8  A    between atoms: N_27  and  C_28
REMARK    9  A    between atoms: C_28  and  C_29
REMARK   10  A    between atoms: C_29  and  C_30
REMARK   11  A    between atoms: C_30  and  N_60
REMARK   12  A    between atoms: C_31  and  N_60
REMARK   13  A    between atoms: C_32  and  N_60
REMARK                            x       y       z     vdW  Elec       q    Type
REMARK                         _______ _______ _______ _____ _____    ______ ____
ROOT
ATOM      1  N   UNL     1       0.968   4.076   1.296  0.00  0.00    -0.304 N 
ENDROOT
BRANCH   1   2
ATOM      2  C   UNL     1       2.185   4.225   1.856  0.00  0.00    +0.133 C 
ATOM      3  S   UNL     1       2.325   4.483   3.542  0.00  0.00    -0.019 S 
BRANCH   2   4
ATOM      4  N   UNL     1       3.291   4.171   1.088  0.00  0.00    -0.326 N 
ATOM      5  H   UNL     1       3.212   4.024   0.132  0.00  0.00    +0.148 HD
BRANCH   4   6
ATOM      6  C   UNL     1       4.614   4.332   1.697  0.00  0.00    +0.101 C 
BRANCH   6   7
ATOM      7  C   UNL     1       5.690   4.229   0.614  0.00  0.00    +0.000 C 
BRANCH   7   8
ATOM      8  C   UNL     1       7.071   4.398   1.249  0.00  0.00    -0.078 C 
BRANCH   8  11
ATOM      9  C   UNL     1       8.013   5.424  -0.732  0.00  0.00    -0.097 C 
ATOM     10  C   UNL     1       9.445   4.219   0.805  0.00  0.00    -0.097 C 
ATOM     11  N   UNL     1       8.100   4.275   0.195  0.00  0.00    +0.376 N 
ATOM     12  H   UNL     1       7.936   3.409  -0.331  0.00  0.00    -0.083 HD
ENDBRANCH   8  11
ENDBRANCH   7   8
ENDBRANCH   6   7
ENDBRANCH   4   6
ENDBRANCH   2   4
ENDBRANCH   1   2
BRANCH   1  13
ATOM     13  C   UNL     1      -0.238   4.214   2.116  0.00  0.00    +0.147 C 
BRANCH  13  19
ATOM     14  C   UNL     1      -4.784   9.277  -0.935  0.00  0.00    +0.045 C 
ATOM     15  C   UNL     1      -3.696   8.906   0.040  0.00  0.00    -0.031 A 
ATOM     16  C   UNL     1      -3.256   7.614   0.103  0.00  0.00    +0.014 A 
ATOM     17  C   UNL     1      -2.246   7.269   1.007  0.00  0.00    -0.001 A 
ATOM     18  C   UNL     1      -1.750   5.895   1.100  0.00  0.00    +0.020 A 
ATOM     19  C   UNL     1      -0.770   5.619   1.995  0.00  0.00    +0.035 A 
ATOM     20  C   UNL     1      -0.250   6.641   2.817  0.00  0.00    +0.254 A 
ATOM     21  O   UNL     1       0.628   6.370   3.619  0.00  0.00    -0.268 OA
ATOM     22  N   UNL     1      -0.695   7.907   2.736  0.00  0.00    -0.322 N 
ATOM     23  H   UNL     1      -0.312   8.586   3.314  0.00  0.00    +0.169 HD
ATOM     24  C   UNL     1      -1.689   8.254   1.847  0.00  0.00    +0.051 A 
ATOM     25  C   UNL     1      -2.153   9.562   1.766  0.00  0.00    +0.046 A 
ATOM     26  C   UNL     1      -3.150   9.880   0.867  0.00  0.00    +0.046 A 
ATOM     27 CL   UNL     1      -3.728  11.514   0.767  0.00  0.00    -0.083 Cl
ENDBRANCH  13  19
ENDBRANCH   1  13
BRANCH   1  28
ATOM     28  C   UNL     1       0.851   3.776  -0.134  0.00  0.00    +0.142 C 
BRANCH  28  29
ATOM     29  C   UNL     1       0.904   2.285  -0.340  0.00  0.00    -0.030 A 
ATOM     30  C   UNL     1      -0.250   1.531  -0.236  0.00  0.00    +0.008 A 
ATOM     31  C   UNL     1      -0.203   0.163  -0.425  0.00  0.00    +0.038 A 
ATOM     32  C   UNL     1       1.002  -0.453  -0.719  0.00  0.00    +0.123 A 
ATOM     33  C   UNL     1       2.158   0.302  -0.823  0.00  0.00    +0.038 A 
ATOM     34  C   UNL     1       2.108   1.671  -0.633  0.00  0.00    +0.008 A 
ATOM     35  F   UNL     1       1.050  -1.790  -0.903  0.00  0.00    -0.205 F 
ENDBRANCH  28  29
ENDBRANCH   1  28
TORSDOF 10
