REMARK  Name = ZINC44878505
REMARK  8 active torsions:
REMARK  status: ('A' for Active; 'I' for Inactive)
REMARK    1  A    between atoms: C_1  and  C_2
REMARK    2  A    between atoms: N_7  and  C_9
REMARK    3  A    between atoms: C_9  and  C_10
REMARK    4  A    between atoms: C_13  and  C_16
REMARK    5  A    between atoms: C_16  and  N_17
REMARK    6  A    between atoms: C_18  and  C_20
REMARK    7  A    between atoms: N_23  and  S_31
REMARK    8  A    between atoms: S_31  and  C_34
REMARK                            x       y       z     vdW  Elec       q    Type
REMARK                         _______ _______ _______ _____ _____    ______ ____
ROOT
ATOM      1  N   UNL     1       1.336  -8.708   0.933  0.00  0.00    -0.308 N 
ATOM      2  C   UNL     1       1.331 -10.025   0.648  0.00  0.00    +0.256 C 
ATOM      3  O   UNL     1       1.885 -10.808   1.391  0.00  0.00    -0.272 OA
ATOM      4  H   UNL     1       0.893  -8.082   0.339  0.00  0.00    +0.149 HD
ENDROOT
BRANCH   2   5
ATOM      5  C   UNL     1       0.638 -10.525  -0.593  0.00  0.00    +0.277 C 
ATOM      6  C   UNL     1      -0.872 -10.272  -0.477  0.00  0.00    +0.186 C 
ATOM      7  N   UNL     1      -1.509 -10.820  -1.686  0.00  0.00    -0.195 N 
ATOM      8  C   UNL     1      -1.059 -12.065  -2.154  0.00  0.00    +0.093 A 
ATOM      9  C   UNL     1      -1.797 -12.759  -3.099  0.00  0.00    +0.028 A 
ATOM     10  C   UNL     1      -1.348 -13.983  -3.560  0.00  0.00    +0.002 A 
ATOM     11  C   UNL     1      -0.165 -14.513  -3.079  0.00  0.00    +0.004 A 
ATOM     12  C   UNL     1       0.574 -13.824  -2.135  0.00  0.00    +0.047 A 
ATOM     13  C   UNL     1       0.131 -12.597  -1.666  0.00  0.00    +0.144 A 
ATOM     14  O   UNL     1       0.863 -11.930  -0.734  0.00  0.00    -0.476 OA
BRANCH   7  15
ATOM     15  S   UNL     1      -2.716  -9.997  -2.466  0.00  0.00    +0.075 S 
ATOM     16  O   UNL     1      -2.619  -8.642  -2.048  0.00  0.00    -0.150 OA
ATOM     17  O   UNL     1      -2.651 -10.379  -3.833  0.00  0.00    -0.150 OA
BRANCH  15  18
ATOM     18  C   UNL     1      -4.248 -10.607  -1.845  0.00  0.00    +0.109 A 
ATOM     19  C   UNL     1      -4.862 -11.684  -2.456  0.00  0.00    +0.029 A 
ATOM     20  C   UNL     1      -6.064 -12.163  -1.968  0.00  0.00    +0.002 A 
ATOM     21  C   UNL     1      -6.652 -11.563  -0.870  0.00  0.00    +0.000 A 
ATOM     22  C   UNL     1      -6.038 -10.486  -0.259  0.00  0.00    +0.002 A 
ATOM     23  C   UNL     1      -4.834 -10.011  -0.744  0.00  0.00    +0.029 A 
ENDBRANCH  15  18
ENDBRANCH   7  15
ENDBRANCH   2   5
BRANCH   1  24
ATOM     24  C   UNL     1       2.010  -8.222   2.140  0.00  0.00    +0.139 C 
BRANCH  24  28
ATOM     25  C   UNL     1       1.612  -3.975   2.382  0.00  0.00    -0.064 A 
ATOM     26  C   UNL     1       0.660  -4.793   2.962  0.00  0.00    +0.002 A 
ATOM     27  C   UNL     1       0.789  -6.167   2.883  0.00  0.00    +0.005 A 
ATOM     28  C   UNL     1       1.869  -6.723   2.224  0.00  0.00    -0.030 A 
ATOM     29  C   UNL     1       2.821  -5.906   1.644  0.00  0.00    +0.005 A 
ATOM     30  C   UNL     1       2.690  -4.532   1.719  0.00  0.00    +0.002 A 
BRANCH  25  31
ATOM     31  C   UNL     1       1.472  -2.477   2.468  0.00  0.00    -0.043 C 
BRANCH  31  37
ATOM     32  C   UNL     1      -0.087   1.520   0.110  0.00  0.00    +0.005 C 
ATOM     33  C   UNL     1      -0.059  -0.010   0.090  0.00  0.00    -0.031 C 
ATOM     34  C   UNL     1      -1.493  -0.548   0.092  0.00  0.00    -0.001 C 
ATOM     35  C   UNL     1      -1.453  -2.078   0.151  0.00  0.00    -0.018 C 
ATOM     36  C   UNL     1      -0.668  -2.514   1.390  0.00  0.00    -0.078 C 
ATOM     37  N   UNL     1       0.701  -1.991   1.316  0.00  0.00    +0.383 N 
ATOM     38  C   UNL     1       0.675  -0.523   1.331  0.00  0.00    -0.075 C 
ATOM     39  H   UNL     1       1.136  -2.310   0.463  0.00  0.00    -0.081 HD
ENDBRANCH  31  37
ENDBRANCH  25  31
ENDBRANCH  24  28
ENDBRANCH   1  24
TORSDOF 7
