REMARK  Name = ZINC04545569
REMARK  6 active torsions:
REMARK  status: ('A' for Active; 'I' for Inactive)
REMARK    1  A    between atoms: C_14  and  C_15
REMARK    2  A    between atoms: N_16  and  N_17
REMARK    3  A    between atoms: C_18  and  C_20
REMARK    4  A    between atoms: C_20  and  C_21
REMARK    5  A    between atoms: C_21  and  C_22
REMARK    6  A    between atoms: C_22  and  C_24
REMARK                            x       y       z     vdW  Elec       q    Type
REMARK                         _______ _______ _______ _____ _____    ______ ____
ROOT
ATOM      1  N   UNL     1      -3.309   6.760   0.055  0.00  0.00    -0.207 N 
ATOM      2  C   UNL     1      -2.220   5.965   0.045  0.00  0.00    +0.233 C 
ATOM      3  O   UNL     1      -1.111   6.456   0.043  0.00  0.00    -0.274 OA
ATOM      4  H   UNL     1      -4.196   6.368   0.057  0.00  0.00    +0.177 HD
ENDROOT
BRANCH   1   6
ATOM      5  C   UNL     1      -4.208   8.919   0.071  0.00  0.00    +0.140 C 
ATOM      6  N   UNL     1      -3.159   8.153   0.062  0.00  0.00    -0.188 NA
BRANCH   5  20
ATOM      7  C   UNL     1      -0.078  15.342   0.086  0.00  0.00    +0.001 A 
ATOM      8  C   UNL     1      -1.410  15.746   0.095  0.00  0.00    +0.001 A 
ATOM      9  C   UNL     1      -2.419  14.830   0.095  0.00  0.00    +0.010 A 
ATOM     10  C   UNL     1      -2.115  13.461   0.085  0.00  0.00    +0.006 A 
ATOM     11  C   UNL     1      -0.760  13.049   0.076  0.00  0.00    -0.016 A 
ATOM     12  C   UNL     1       0.253  14.021   0.077  0.00  0.00    +0.008 A 
ATOM     13  C   UNL     1      -0.445  11.674   0.068  0.00  0.00    +0.009 A 
ATOM     14  C   UNL     1      -1.433  10.746   0.068  0.00  0.00    +0.011 A 
ATOM     15  C   UNL     1      -2.783  11.133   0.082  0.00  0.00    +0.009 A 
ATOM     16  C   UNL     1      -3.136  12.484   0.085  0.00  0.00    +0.055 A 
ATOM     17  N   UNL     1      -4.508  12.558   0.093  0.00  0.00    -0.360 N 
ATOM     18  H   UNL     1      -5.018  13.383   0.100  0.00  0.00    +0.165 HD
ATOM     19  C   UNL     1      -5.049  11.309   0.089  0.00  0.00    +0.093 A 
ATOM     20  C   UNL     1      -4.051  10.383   0.079  0.00  0.00    +0.020 A 
ENDBRANCH   5  20
ENDBRANCH   1   6
BRANCH   2  21
ATOM     21  C   UNL     1      -2.381   4.467   0.038  0.00  0.00    +0.105 C 
BRANCH  21  22
ATOM     22  C   UNL     1      -1.002   3.806   0.028  0.00  0.00    +0.089 C 
BRANCH  22  23
ATOM     23  C   UNL     1      -1.163   2.308   0.020  0.00  0.00    +0.166 C 
ATOM     24  O   UNL     1      -2.273   1.816   0.023  0.00  0.00    -0.292 OA
BRANCH  23  25
ATOM     25  C   UNL     1      -0.018   1.472   0.010  0.00  0.00    +0.042 A 
ATOM     26  C   UNL     1       1.301   1.874  -0.000  0.00  0.00    +0.095 A 
ATOM     27  N   UNL     1       2.103   0.793  -0.014  0.00  0.00    -0.360 N 
ATOM     28  H   UNL     1       3.073   0.826  -0.023  0.00  0.00    +0.165 HD
ATOM     29  C   UNL     1       1.358  -0.369  -0.013  0.00  0.00    +0.047 A 
ATOM     30  C   UNL     1       0.002  -0.004   0.002  0.00  0.00    +0.010 A 
ATOM     31  C   UNL     1      -0.986  -0.984   0.007  0.00  0.00    +0.011 A 
ATOM     32  C   UNL     1      -0.626  -2.315  -0.004  0.00  0.00    +0.001 A 
ATOM     33  C   UNL     1       0.712  -2.678  -0.019  0.00  0.00    +0.002 A 
ATOM     34  C   UNL     1       1.700  -1.717  -0.023  0.00  0.00    +0.026 A 
ENDBRANCH  23  25
ENDBRANCH  22  23
ENDBRANCH  21  22
ENDBRANCH   2  21
TORSDOF 6
