REMARK  Name = ZINC56555427
REMARK  8 active torsions:
REMARK  status: ('A' for Active; 'I' for Inactive)
REMARK    1  A    between atoms: C_1  and  C_2
REMARK    2  A    between atoms: C_2  and  C_4
REMARK    3  A    between atoms: C_2  and  C_22
REMARK    4  A    between atoms: C_4  and  N_5
REMARK    5  A    between atoms: N_8  and  C_9
REMARK    6  A    between atoms: N_8  and  C_15
REMARK    7  A    between atoms: C_9  and  C_10
REMARK    8  A    between atoms: C_15  and  C_16
REMARK                            x       y       z     vdW  Elec       q    Type
REMARK                         _______ _______ _______ _____ _____    ______ ____
ROOT
ATOM      1  N   UNL     1      -2.082  -0.162   1.273  0.00  0.00    -0.299 N 
ATOM      2  C   UNL     1      -3.358  -0.524   1.506  0.00  0.00    +0.303 C 
ATOM      3  O   UNL     1      -3.973  -1.159   0.671  0.00  0.00    -0.253 OA
ATOM      4  N   UNL     1      -3.955  -0.182   2.666  0.00  0.00    -0.276 N 
ATOM      5  H   UNL     1      -1.592   0.345   1.939  0.00  0.00    +0.150 HD
ENDROOT
BRANCH   1   6
ATOM      6  C   UNL     1      -1.433  -0.534   0.013  0.00  0.00    +0.113 C 
BRANCH   6   8
ATOM      7  C   UNL     1      -0.019   1.526   0.010  0.00  0.00    +0.014 C 
ATOM      8  C   UNL     1       0.002  -0.004   0.002  0.00  0.00    +0.033 C 
BRANCH   8   9
ATOM      9  C   UNL     1       0.707  -0.490  -1.238  0.00  0.00    -0.043 A 
ATOM     10  C   UNL     1       0.222  -0.151  -2.487  0.00  0.00    +0.004 A 
ATOM     11  C   UNL     1       0.869  -0.597  -3.624  0.00  0.00    +0.000 A 
ATOM     12  C   UNL     1       2.002  -1.381  -3.513  0.00  0.00    +0.000 A 
ATOM     13  C   UNL     1       2.488  -1.720  -2.263  0.00  0.00    +0.000 A 
ATOM     14  C   UNL     1       1.843  -1.270  -1.126  0.00  0.00    +0.004 A 
ENDBRANCH   8   9
ENDBRANCH   6   8
ENDBRANCH   1   6
BRANCH   4  15
ATOM     15  C   UNL     1      -3.215   0.584   3.672  0.00  0.00    +0.183 C 
BRANCH  15  16
ATOM     16  C   UNL     1      -3.413   2.058   3.427  0.00  0.00    +0.122 A 
ATOM     17  C   UNL     1      -4.388   2.819   3.955  0.00  0.00    +0.046 A 
ATOM     18  C   UNL     1      -4.197   4.130   3.462  0.00  0.00    +0.041 A 
ATOM     19  C   UNL     1      -3.115   4.092   2.663  0.00  0.00    +0.195 A 
ATOM     20  O   UNL     1      -2.641   2.835   2.650  0.00  0.00    -0.466 OA
ENDBRANCH  15  16
ENDBRANCH   4  15
BRANCH   4  21
ATOM     21  C   UNL     1      -5.343  -0.576   2.919  0.00  0.00    +0.141 C 
BRANCH  21  22
ATOM     22  C   UNL     1      -5.368  -1.942   3.606  0.00  0.00    +0.136 C 
ATOM     23  C   UNL     1      -6.830  -2.394   3.853  0.00  0.00    +0.035 C 
ATOM     24  C   UNL     1      -6.655  -3.936   3.914  0.00  0.00    +0.031 C 
ATOM     25  C   UNL     1      -5.518  -4.178   2.898  0.00  0.00    +0.160 C 
ATOM     26  O   UNL     1      -4.804  -2.944   2.745  0.00  0.00    -0.375 OA
ENDBRANCH  21  22
ENDBRANCH   4  21
TORSDOF 7
