REMARK  Name = ZINC64605213
REMARK  9 active torsions:
REMARK  status: ('A' for Active; 'I' for Inactive)
REMARK    1  A    between atoms: C_1  and  C_2
REMARK    2  A    between atoms: C_7  and  N_8
REMARK    3  A    between atoms: C_9  and  C_11
REMARK    4  A    between atoms: C_11  and  N_12
REMARK    5  A    between atoms: C_15  and  N_25
REMARK    6  A    between atoms: C_17  and  C_19
REMARK    7  A    between atoms: C_26  and  C_28
REMARK    8  A    between atoms: C_28  and  C_29
REMARK    9  A    between atoms: C_28  and  C_30
REMARK                            x       y       z     vdW  Elec       q    Type
REMARK                         _______ _______ _______ _____ _____    ______ ____
ROOT
ATOM      1  N   UNL     1      -0.233  -0.898   5.985  0.00  0.00    -0.218 N 
ATOM      2  C   UNL     1       0.896  -1.317   6.589  0.00  0.00    +0.289 A 
ATOM      3  O   UNL     1       1.982  -0.901   6.220  0.00  0.00    -0.264 OA
ATOM      4  C   UNL     1       0.814  -2.245   7.658  0.00  0.00    +0.102 A 
ATOM      5  C   UNL     1      -0.412  -2.696   8.054  0.00  0.00    +0.059 A 
ATOM      6  C   UNL     1      -1.571  -2.234   7.397  0.00  0.00    +0.093 A 
ATOM      7  N   UNL     1      -1.479  -1.370   6.412  0.00  0.00    -0.168 NA
ENDROOT
BRANCH   6   8
ATOM      8  C   UNL     1      -2.905  -2.724   7.826  0.00  0.00    +0.002 A 
ATOM      9  C   UNL     1      -3.011  -3.632   8.877  0.00  0.00    +0.010 A 
ATOM     10  C   UNL     1      -4.254  -4.083   9.272  0.00  0.00    +0.001 A 
ATOM     11  C   UNL     1      -5.393  -3.636   8.626  0.00  0.00    +0.000 A 
ATOM     12  C   UNL     1      -5.293  -2.735   7.582  0.00  0.00    +0.001 A 
ATOM     13  C   UNL     1      -4.055  -2.272   7.182  0.00  0.00    +0.010 A 
ENDBRANCH   6   8
BRANCH   4  14
ATOM     14  N   UNL     1       1.973  -2.692   8.297  0.00  0.00    -0.281 N 
ATOM     15  C   UNL     1       2.790  -1.810   8.906  0.00  0.00    +0.220 C 
ATOM     16  O   UNL     1       2.567  -0.621   8.825  0.00  0.00    -0.275 OA
ATOM     17  H   UNL     1       2.189  -3.638   8.303  0.00  0.00    +0.155 HD
BRANCH  15  18
ATOM     18  C   UNL     1       3.981  -2.302   9.688  0.00  0.00    +0.069 C 
ATOM     19  C   UNL     1       4.736  -1.106  10.273  0.00  0.00    +0.017 C 
ATOM     20  C   UNL     1       3.506  -3.210  10.823  0.00  0.00    +0.017 C 
ENDBRANCH  15  18
ENDBRANCH   4  14
BRANCH   1  21
ATOM     21  C   UNL     1      -0.156   0.061   4.880  0.00  0.00    +0.243 C 
BRANCH  21  23
ATOM     22  N   UNL     1       0.045  -0.002   2.416  0.00  0.00    -0.284 N 
ATOM     23  C   UNL     1      -0.040  -0.684   3.575  0.00  0.00    +0.239 C 
ATOM     24  O   UNL     1      -0.023  -1.897   3.569  0.00  0.00    -0.273 OA
ATOM     25  H   UNL     1       0.097   0.966   2.425  0.00  0.00    +0.155 HD
BRANCH  22  32
ATOM     26  C   UNL     1      -1.237   1.197   0.177  0.00  0.00    +0.046 C 
ATOM     27  C   UNL     1      -0.554  -0.143   0.080  0.00  0.00    -0.027 A 
ATOM     28  C   UNL     1      -0.534  -0.823  -1.122  0.00  0.00    +0.043 A 
ATOM     29  C   UNL     1       0.093  -2.054  -1.212  0.00  0.00    +0.124 A 
ATOM     30  C   UNL     1       0.701  -2.607  -0.097  0.00  0.00    +0.040 A 
ATOM     31  C   UNL     1       0.682  -1.931   1.107  0.00  0.00    +0.026 A 
ATOM     32  C   UNL     1       0.059  -0.693   1.198  0.00  0.00    +0.037 A 
ATOM     33  F   UNL     1       0.112  -2.717  -2.389  0.00  0.00    -0.205 F 
ENDBRANCH  22  32
ENDBRANCH  21  23
ENDBRANCH   1  21
TORSDOF 6
