REMARK  Name = ZINC22650439
REMARK  13 active torsions:
REMARK  status: ('A' for Active; 'I' for Inactive)
REMARK    1  A    between atoms: C_1  and  C_2
REMARK    2  A    between atoms: C_2  and  C_3
REMARK    3  A    between atoms: C_3  and  N_4
REMARK    4  A    between atoms: C_5  and  C_7
REMARK    5  A    between atoms: C_7  and  C_9
REMARK    6  A    between atoms: C_7  and  O_10
REMARK    7  A    between atoms: O_10  and  C_11
REMARK    8  A    between atoms: C_11  and  C_13
REMARK    9  A    between atoms: C_13  and  C_14
REMARK   10  A    between atoms: C_20  and  C_24
REMARK   11  A    between atoms: C_21  and  C_23
REMARK   12  A    between atoms: C_24  and  C_25
REMARK   13  A    between atoms: C_24  and  C_26
REMARK                            x       y       z     vdW  Elec       q    Type
REMARK                         _______ _______ _______ _____ _____    ______ ____
ROOT
ATOM      1  C   UNL     1      -0.850   0.319  -7.048  0.00  0.00    +0.159 C 
ENDROOT
BRANCH   1   2
ATOM      2  C   UNL     1      -1.791   0.211  -8.221  0.00  0.00    +0.009 A 
ATOM      3  C   UNL     1      -2.380  -0.901  -8.680  0.00  0.00    +0.200 A 
ATOM      4  O   UNL     1      -3.152  -0.611  -9.742  0.00  0.00    -0.463 OA
ATOM      5  C   UNL     1      -3.104   0.706 -10.027  0.00  0.00    +0.135 A 
ATOM      6  C   UNL     1      -2.250   1.305  -9.085  0.00  0.00    +0.024 A 
ATOM      7  C   UNL     1      -2.001   2.675  -9.139  0.00  0.00    +0.016 A 
ATOM      8  C   UNL     1      -2.605   3.439 -10.113  0.00  0.00    -0.041 A 
ATOM      9  C   UNL     1      -3.453   2.850 -11.039  0.00  0.00    -0.044 A 
ATOM     10  C   UNL     1      -3.703   1.494 -11.000  0.00  0.00    +0.050 A 
ATOM     11  C   UNL     1      -4.107   3.699 -12.098  0.00  0.00    +0.044 C 
BRANCH   8  12
ATOM     12  C   UNL     1      -2.345   4.923 -10.172  0.00  0.00    +0.013 C 
ATOM     13  C   UNL     1      -2.655   5.550  -8.812  0.00  0.00    +0.012 C 
ATOM     14  C   UNL     1      -0.876   5.169 -10.524  0.00  0.00    +0.012 C 
ENDBRANCH   8  12
ENDBRANCH   1   2
BRANCH   1  15
ATOM     15  C   UNL     1      -1.626   0.704  -5.815  0.00  0.00    +0.312 C 
ATOM     16  O   UNL     1      -2.820   0.873  -5.881  0.00  0.00    -0.250 OA
BRANCH  15  17
ATOM     17  O   UNL     1      -0.990   0.858  -4.643  0.00  0.00    -0.452 OA
BRANCH  17  18
ATOM     18  C   UNL     1      -1.801   1.229  -3.497  0.00  0.00    +0.258 C 
ATOM     19  C   UNL     1      -1.871   2.754  -3.394  0.00  0.00    +0.062 C 
BRANCH  18  21
ATOM     20  N   UNL     1      -1.818   0.801  -1.061  0.00  0.00    -0.312 N 
ATOM     21  C   UNL     1      -1.183   0.669  -2.242  0.00  0.00    +0.254 C 
ATOM     22  O   UNL     1      -0.114   0.099  -2.295  0.00  0.00    -0.272 OA
ATOM     23  H   UNL     1      -2.788   1.318  -1.013  0.00  0.00    +0.149 HD
BRANCH  20  24
ATOM     24  C   UNL     1      -1.218   0.257   0.160  0.00  0.00    +0.104 C 
BRANCH  24  26
ATOM     25  C   UNL     1      -1.508  -0.028   2.625  0.00  0.00    +0.005 C 
ATOM     26  C   UNL     1      -2.135   0.541   1.350  0.00  0.00    +0.015 C 
ENDBRANCH  24  26
ENDBRANCH  20  24
ENDBRANCH  18  21
ENDBRANCH  17  18
ENDBRANCH  15  17
ENDBRANCH   1  15
TORSDOF 8
