REMARK  Name = ZINC03304877
REMARK  11 active torsions:
REMARK  status: ('A' for Active; 'I' for Inactive)
REMARK    1  A    between atoms: C_1  and  C_2
REMARK    2  A    between atoms: C_5  and  S_31
REMARK    3  A    between atoms: C_7  and  N_8
REMARK    4  A    between atoms: C_18  and  S_19
REMARK    5  A    between atoms: S_19  and  C_20
REMARK    6  A    between atoms: C_20  and  C_21
REMARK    7  A    between atoms: N_23  and  C_24
REMARK    8  A    between atoms: C_24  and  C_25
REMARK    9  A    between atoms: S_31  and  N_34
REMARK   10  A    between atoms: N_34  and  C_35
REMARK   11  A    between atoms: N_34  and  C_36
REMARK                            x       y       z     vdW  Elec       q    Type
REMARK                         _______ _______ _______ _____ _____    ______ ____
ROOT
ATOM      1  N   UNL     1      -5.325   1.321   0.035  0.00  0.00    -0.255 N 
ATOM      2  C   UNL     1      -6.410   2.129   0.044  0.00  0.00    +0.267 A 
ATOM      3  O   UNL     1      -7.538   1.670   0.047  0.00  0.00    -0.267 OA
ATOM      4  C   UNL     1      -6.178   3.579   0.052  0.00  0.00    +0.065 A 
ATOM      5  C   UNL     1      -7.230   4.494   0.063  0.00  0.00    +0.015 A 
ATOM      6  C   UNL     1      -6.958   5.834   0.070  0.00  0.00    +0.001 A 
ATOM      7  C   UNL     1      -5.647   6.292   0.066  0.00  0.00    +0.002 A 
ATOM      8  C   UNL     1      -4.597   5.418   0.055  0.00  0.00    +0.028 A 
ATOM      9  C   UNL     1      -4.842   4.041   0.048  0.00  0.00    +0.079 A 
ATOM     10  N   UNL     1      -3.832   3.140   0.043  0.00  0.00    -0.223 NA
ATOM     11  C   UNL     1      -4.064   1.851   0.031  0.00  0.00    +0.177 A 
ENDROOT
BRANCH   1  18
ATOM     12  C   UNL     1      -5.500   0.001  -2.481  0.00  0.00    +0.046 C 
ATOM     13  C   UNL     1      -5.584  -0.753  -1.179  0.00  0.00    -0.026 A 
ATOM     14  C   UNL     1      -5.750  -2.125  -1.183  0.00  0.00    +0.007 A 
ATOM     15  C   UNL     1      -5.826  -2.817   0.011  0.00  0.00    +0.029 A 
ATOM     16  C   UNL     1      -5.737  -2.139   1.214  0.00  0.00    +0.107 A 
ATOM     17  C   UNL     1      -5.566  -0.769   1.225  0.00  0.00    +0.055 A 
ATOM     18  C   UNL     1      -5.494  -0.070   0.027  0.00  0.00    +0.057 A 
BRANCH  16  19
ATOM     19  S   UNL     1      -5.836  -3.026   2.733  0.00  0.00    +0.060 S 
ATOM     20  O   UNL     1      -6.273  -2.098   3.717  0.00  0.00    -0.153 OA
ATOM     21  O   UNL     1      -6.538  -4.230   2.456  0.00  0.00    -0.153 OA
BRANCH  19  22
ATOM     22  N   UNL     1      -4.293  -3.462   3.147  0.00  0.00    -0.183 NA
ATOM     23  C   UNL     1      -3.475  -2.570   3.972  0.00  0.00    +0.131 C 
ATOM     24  C   UNL     1      -3.745  -4.741   2.687  0.00  0.00    +0.131 C 
ENDBRANCH  19  22
ENDBRANCH  16  19
ENDBRANCH   1  18
BRANCH  11  25
ATOM     25  S   UNL     1      -2.689   0.750   0.019  0.00  0.00    -0.078 S 
BRANCH  25  26
ATOM     26  C   UNL     1      -1.330   1.944   0.019  0.00  0.00    +0.173 C 
BRANCH  26  27
ATOM     27  C   UNL     1      -0.014   1.209   0.009  0.00  0.00    +0.223 C 
ATOM     28  O   UNL     1       0.002  -0.004   0.002  0.00  0.00    -0.275 OA
ATOM     29  N   UNL     1       1.143   1.898   0.001  0.00  0.00    -0.314 N 
ATOM     30  H   UNL     1       1.129   2.998   0.007  0.00  0.00    +0.149 HD
BRANCH  29  31
ATOM     31  C   UNL     1       2.422   1.183  -0.015  0.00  0.00    +0.107 C 
BRANCH  31  32
ATOM     32  C   UNL     1       3.571   2.193  -0.020  0.00  0.00    +0.006 C 
ATOM     33  C   UNL     1       3.539   2.995  -1.323  0.00  0.00    +0.005 C 
ATOM     34  C   UNL     1       4.689   4.005  -1.329  0.00  0.00    +0.000 C 
ATOM     35  C   UNL     1       6.022   3.261  -1.220  0.00  0.00    +0.000 C 
ATOM     36  C   UNL     1       6.053   2.460   0.083  0.00  0.00    +0.000 C 
ATOM     37  C   UNL     1       4.904   1.450   0.089  0.00  0.00    +0.005 C 
ENDBRANCH  31  32
ENDBRANCH  29  31
ENDBRANCH  26  27
ENDBRANCH  25  26
ENDBRANCH  11  25
TORSDOF 8
