REMARK  Name = ZINC58940709
REMARK  6 active torsions:
REMARK  status: ('A' for Active; 'I' for Inactive)
REMARK    1  A    between atoms: C_4  and  N_7
REMARK    2  A    between atoms: C_10  and  C_25
REMARK    3  A    between atoms: N_12  and  N_15
REMARK    4  A    between atoms: C_16  and  C_18
REMARK    5  A    between atoms: C_25  and  C_26
REMARK    6  A    between atoms: N_28  and  C_29
REMARK                            x       y       z     vdW  Elec       q    Type
REMARK                         _______ _______ _______ _____ _____    ______ ____
ROOT
ATOM      1  N   UNL     1       3.605  -0.687  -0.014  0.00  0.00    -0.219 N 
ATOM      2  C   UNL     1       3.736  -2.026   0.066  0.00  0.00    +0.248 C 
ATOM      3  O   UNL     1       2.847  -2.844   0.166  0.00  0.00    -0.273 OA
ATOM      4  C   UNL     1       5.226  -2.296   0.003  0.00  0.00    +0.191 C 
ATOM      5  N   UNL     1       5.817  -0.952  -0.116  0.00  0.00    -0.218 N 
ATOM      6  C   UNL     1       4.792  -0.080  -0.123  0.00  0.00    +0.164 C 
ATOM      7  S   UNL     1       4.987   1.616  -0.251  0.00  0.00    -0.016 S 
ENDROOT
BRANCH   1  11
ATOM      8  C   UNL     1      -0.051   1.316   0.050  0.00  0.00    +0.000 A 
ATOM      9  C   UNL     1       0.822   1.506  -1.006  0.00  0.00    +0.002 A 
ATOM     10  C   UNL     1       2.034   0.844  -1.030  0.00  0.00    +0.024 A 
ATOM     11  C   UNL     1       2.376  -0.013   0.008  0.00  0.00    +0.043 A 
ATOM     12  C   UNL     1       1.498  -0.202   1.066  0.00  0.00    +0.024 A 
ATOM     13  C   UNL     1       0.287   0.463   1.085  0.00  0.00    +0.002 A 
ENDBRANCH   1  11
BRANCH   5  14
ATOM     14  N   UNL     1       7.180  -0.642  -0.209  0.00  0.00    -0.228 N 
ATOM     15  C   UNL     1       7.708  -0.272  -1.393  0.00  0.00    +0.260 C 
ATOM     16  O   UNL     1       7.001  -0.208  -2.380  0.00  0.00    -0.269 OA
ATOM     17  H   UNL     1       7.744  -0.694   0.578  0.00  0.00    +0.173 HD
BRANCH  15  18
ATOM     18  C   UNL     1       9.146   0.054  -1.491  0.00  0.00    +0.038 A 
ATOM     19  C   UNL     1       9.961  -0.024  -0.361  0.00  0.00    +0.014 A 
ATOM     20  C   UNL     1      11.302   0.282  -0.459  0.00  0.00    +0.021 A 
ATOM     21  C   UNL     1      11.841   0.667  -1.675  0.00  0.00    +0.041 A 
ATOM     22  C   UNL     1      11.037   0.747  -2.800  0.00  0.00    +0.021 A 
ATOM     23  C   UNL     1       9.695   0.438  -2.716  0.00  0.00    +0.014 A 
ATOM     24 CL   UNL     1      13.530   1.051  -1.791  0.00  0.00    -0.084 Cl
ENDBRANCH  15  18
ENDBRANCH   5  14
BRANCH   4  25
ATOM     25  C   UNL     1       5.567  -3.148  -1.221  0.00  0.00    +0.129 C 
BRANCH  25  26
ATOM     26  C   UNL     1       7.038  -3.474  -1.212  0.00  0.00    +0.220 C 
ATOM     27  O   UNL     1       7.745  -3.065  -0.314  0.00  0.00    -0.275 OA
ATOM     28  N   UNL     1       7.570  -4.220  -2.200  0.00  0.00    -0.285 N 
ATOM     29  H   UNL     1       7.024  -4.480  -2.959  0.00  0.00    +0.155 HD
BRANCH  28  30
ATOM     30  C   UNL     1       8.909  -4.621  -2.132  0.00  0.00    +0.035 A 
ATOM     31  C   UNL     1       9.667  -4.715  -3.293  0.00  0.00    +0.023 A 
ATOM     32  C   UNL     1      10.988  -5.110  -3.223  0.00  0.00    +0.003 A 
ATOM     33  C   UNL     1      11.557  -5.413  -2.000  0.00  0.00    +0.020 A 
ATOM     34  C   UNL     1      10.805  -5.321  -0.842  0.00  0.00    +0.043 A 
ATOM     35  C   UNL     1       9.483  -4.920  -0.905  0.00  0.00    +0.043 A 
ATOM     36 CL   UNL     1      11.524  -5.703   0.692  0.00  0.00    -0.083 Cl
ENDBRANCH  28  30
ENDBRANCH  25  26
ENDBRANCH   4  25
TORSDOF 6
