REMARK  Name = ZINC65055850
REMARK  6 active torsions:
REMARK  status: ('A' for Active; 'I' for Inactive)
REMARK    1  A    between atoms: C_1  and  C_2
REMARK    2  A    between atoms: C_5  and  N_9
REMARK    3  A    between atoms: C_10  and  C_12
REMARK    4  A    between atoms: C_16  and  S_18
REMARK    5  A    between atoms: S_18  and  N_21
REMARK    6  A    between atoms: N_21  and  C_22
REMARK                            x       y       z     vdW  Elec       q    Type
REMARK                         _______ _______ _______ _____ _____    ______ ____
ROOT
ATOM      1  C   UNL     1       0.305  -6.314   1.117  0.00  0.00    +0.083 C 
ATOM      2  C   UNL     1       0.425  -7.154   2.169  0.00  0.00    +0.147 C 
ATOM      3  N   UNL     1       0.522  -8.433   1.743  0.00  0.00    -0.160 NA
ATOM      4  N   UNL     1       0.482  -8.572   0.519  0.00  0.00    -0.154 NA
ATOM      5  C   UNL     1       0.330  -7.239  -0.088  0.00  0.00    +0.327 C 
ENDROOT
BRANCH   1   7
ATOM      6  N   UNL     1       0.059  -4.170  -0.023  0.00  0.00    -0.282 N 
ATOM      7  C   UNL     1       0.175  -4.850   1.134  0.00  0.00    +0.250 C 
ATOM      8  O   UNL     1       0.173  -4.253   2.194  0.00  0.00    -0.270 OA
ATOM      9  H   UNL     1      -0.019  -4.650  -0.862  0.00  0.00    +0.155 HD
BRANCH   6  14
ATOM     10  C   UNL     1       0.015   1.503   0.009  0.00  0.00    +0.047 C 
ATOM     11  C   UNL     1       0.027  -0.004   0.001  0.00  0.00    -0.015 A 
ATOM     12  C   UNL     1      -0.718  -0.695  -0.937  0.00  0.00    +0.008 A 
ATOM     13  C   UNL     1      -0.710  -2.076  -0.947  0.00  0.00    +0.024 A 
ATOM     14  C   UNL     1       0.049  -2.772  -0.015  0.00  0.00    +0.036 A 
ATOM     15  C   UNL     1       0.797  -2.077   0.926  0.00  0.00    +0.062 A 
ATOM     16  C   UNL     1       0.789  -0.694   0.929  0.00  0.00    +0.128 A 
ATOM     17  F   UNL     1       1.520  -0.016   1.841  0.00  0.00    -0.205 F 
ENDBRANCH   6  14
ENDBRANCH   1   7
BRANCH   5  18
ATOM     18  S   UNL     1       1.745  -6.860  -1.158  0.00  0.00    +0.092 S 
ATOM     19  O   UNL     1       1.574  -5.585  -1.762  0.00  0.00    -0.151 OA
ATOM     20  O   UNL     1       2.959  -7.193  -0.500  0.00  0.00    -0.151 OA
BRANCH  18  21
ATOM     21  N   UNL     1       1.633  -7.939  -2.409  0.00  0.00    -0.100 NA
BRANCH  21  22
ATOM     22  C   UNL     1       2.584  -7.923  -3.433  0.00  0.00    +0.074 A 
ATOM     23  C   UNL     1       3.627  -7.007  -3.399  0.00  0.00    +0.028 A 
ATOM     24  C   UNL     1       4.566  -6.994  -4.412  0.00  0.00    +0.022 A 
ATOM     25  C   UNL     1       4.468  -7.892  -5.460  0.00  0.00    +0.041 A 
ATOM     26  C   UNL     1       3.429  -8.806  -5.496  0.00  0.00    +0.022 A 
ATOM     27  C   UNL     1       2.491  -8.828  -4.483  0.00  0.00    +0.028 A 
ATOM     28 CL   UNL     1       5.649  -7.872  -6.732  0.00  0.00    -0.084 Cl
ENDBRANCH  21  22
ENDBRANCH  18  21
ENDBRANCH   5  18
TORSDOF 5
