REMARK  Name = ZINC20841590
REMARK  11 active torsions:
REMARK  status: ('A' for Active; 'I' for Inactive)
REMARK    1  A    between atoms: C_1  and  C_2
REMARK    2  A    between atoms: C_5  and  N_9
REMARK    3  A    between atoms: C_6  and  C_8
REMARK    4  A    between atoms: N_9  and  S_10
REMARK    5  A    between atoms: S_10  and  C_13
REMARK    6  A    between atoms: C_16  and  N_19
REMARK    7  A    between atoms: C_20  and  C_22
REMARK    8  A    between atoms: C_22  and  S_23
REMARK    9  A    between atoms: S_23  and  C_24
REMARK   10  A    between atoms: C_27  and  C_30
REMARK   11  A    between atoms: N_28  and  N_29
REMARK                            x       y       z     vdW  Elec       q    Type
REMARK                         _______ _______ _______ _____ _____    ______ ____
ROOT
ATOM      1  C   UNL     1      -6.044   7.131   9.364  0.00  0.00    +0.109 A 
ATOM      2  C   UNL     1      -5.616   5.891   9.802  0.00  0.00    +0.030 A 
ATOM      3  C   UNL     1      -4.815   5.110   8.992  0.00  0.00    +0.025 A 
ATOM      4  C   UNL     1      -4.440   5.570   7.737  0.00  0.00    +0.034 A 
ATOM      5  C   UNL     1      -4.867   6.818   7.302  0.00  0.00    +0.025 A 
ATOM      6  C   UNL     1      -5.672   7.592   8.114  0.00  0.00    +0.030 A 
ENDROOT
BRANCH   4   7
ATOM      7  N   UNL     1      -3.629   4.781   6.914  0.00  0.00    -0.285 N 
ATOM      8  C   UNL     1      -3.764   3.440   6.921  0.00  0.00    +0.227 C 
ATOM      9  O   UNL     1      -4.529   2.912   7.700  0.00  0.00    -0.275 OA
ATOM     10  H   UNL     1      -2.881   5.255   6.262  0.00  0.00    +0.155 HD
BRANCH   8  11
ATOM     11  C   UNL     1      -2.965   2.597   5.961  0.00  0.00    +0.173 C 
BRANCH  11  12
ATOM     12  S   UNL     1      -3.366   0.850   6.214  0.00  0.00    -0.075 S 
BRANCH  12  13
ATOM     13  C   UNL     1      -2.322   0.117   4.998  0.00  0.00    +0.209 A 
ATOM     14  N   UNL     1      -1.512   0.750   4.181  0.00  0.00    -0.121 NA
ATOM     15  N   UNL     1      -0.900  -0.096   3.432  0.00  0.00    -0.123 NA
ATOM     16  C   UNL     1      -1.286  -1.308   3.717  0.00  0.00    +0.255 A 
ATOM     17  N   UNL     1      -2.202  -1.216   4.728  0.00  0.00    -0.220 N 
BRANCH  16  18
ATOM     18  C   UNL     1      -0.805  -2.576   3.059  0.00  0.00    +0.454 C 
ATOM     19  F   UNL     1       0.356  -2.310   2.326  0.00  0.00    -0.163 F 
ATOM     20  F   UNL     1      -1.798  -3.061   2.201  0.00  0.00    -0.163 F 
ATOM     21  F   UNL     1      -0.528  -3.534   4.041  0.00  0.00    -0.163 F 
ENDBRANCH  16  18
BRANCH  17  22
ATOM     22  N   UNL     1      -2.862  -2.244   5.339  0.00  0.00    -0.295 N 
ATOM     23  H   UNL     1      -2.674  -3.281   5.026  0.00  0.00    +0.163 HD
ATOM     24  H   UNL     1      -3.580  -2.034   6.146  0.00  0.00    +0.163 HD
ENDBRANCH  17  22
ENDBRANCH  12  13
ENDBRANCH  11  12
ENDBRANCH   8  11
ENDBRANCH   4   7
BRANCH   1  25
ATOM     25  S   UNL     1      -7.065   8.125  10.400  0.00  0.00    +0.072 S 
ATOM     26  O   UNL     1      -7.779   9.005   9.542  0.00  0.00    -0.150 OA
ATOM     27  O   UNL     1      -7.720   7.238  11.296  0.00  0.00    -0.150 OA
BRANCH  25  28
ATOM     28  N   UNL     1      -6.061   9.069  11.317  0.00  0.00    -0.216 N 
ATOM     29  H   UNL     1      -6.086   8.993  12.415  0.00  0.00    +0.174 HD
BRANCH  28  34
ATOM     30  C   UNL     1      -2.493  12.691   8.806  0.00  0.00    +0.044 C 
ATOM     31  C   UNL     1      -3.441  11.728   9.473  0.00  0.00    -0.050 A 
ATOM     32  C   UNL     1      -4.692  11.502   8.928  0.00  0.00    +0.005 A 
ATOM     33  C   UNL     1      -5.563  10.621   9.537  0.00  0.00    +0.025 A 
ATOM     34  C   UNL     1      -5.182   9.960  10.698  0.00  0.00    +0.051 A 
ATOM     35  C   UNL     1      -3.927  10.194  11.246  0.00  0.00    -0.028 A 
ATOM     36  C   UNL     1      -3.058  11.073  10.629  0.00  0.00    +0.008 A 
ATOM     37  C   UNL     1      -3.511   9.484  12.509  0.00  0.00    +0.046 C 
ENDBRANCH  28  34
ENDBRANCH  25  28
ENDBRANCH   1  25
TORSDOF 9
