REMARK  Name = ZINC02720796
REMARK  7 active torsions:
REMARK  status: ('A' for Active; 'I' for Inactive)
REMARK    1  A    between atoms: C_1  and  O_2
REMARK    2  A    between atoms: O_2  and  C_3
REMARK    3  A    between atoms: C_6  and  N_9
REMARK    4  A    between atoms: C_23  and  S_24
REMARK    5  A    between atoms: S_24  and  C_25
REMARK    6  A    between atoms: C_25  and  C_26
REMARK    7  A    between atoms: C_29  and  N_32
REMARK                            x       y       z     vdW  Elec       q    Type
REMARK                         _______ _______ _______ _____ _____    ______ ____
ROOT
ATOM      1  N   UNL     1       3.364   2.532  -0.016  0.00  0.00    -0.254 N 
ATOM      2  C   UNL     1       2.511   1.607  -0.505  0.00  0.00    +0.283 A 
ATOM      3  O   UNL     1       2.928   0.554  -0.960  0.00  0.00    -0.265 OA
ATOM      4  C   UNL     1       1.128   1.882  -0.479  0.00  0.00    +0.132 A 
ATOM      5  C   UNL     1       0.703   3.099   0.052  0.00  0.00    +0.104 A 
ATOM      6  C   UNL     1      -0.764   3.108  -0.050  0.00  0.00    +0.026 A 
ATOM      7  C   UNL     1      -1.745   4.034   0.306  0.00  0.00    +0.012 A 
ATOM      8  C   UNL     1      -3.063   3.750   0.080  0.00  0.00    +0.001 A 
ATOM      9  C   UNL     1      -3.433   2.546  -0.503  0.00  0.00    +0.002 A 
ATOM     10  C   UNL     1      -2.481   1.619  -0.863  0.00  0.00    +0.026 A 
ATOM     11  C   UNL     1      -1.131   1.889  -0.645  0.00  0.00    +0.049 A 
ATOM     12  N   UNL     1       0.016   1.165  -0.890  0.00  0.00    -0.349 N 
ATOM     13  H   UNL     1       0.041   0.284  -1.296  0.00  0.00    +0.166 HD
ATOM     14  N   UNL     1       1.604   3.976   0.522  0.00  0.00    -0.221 NA
ATOM     15  C   UNL     1       2.890   3.708   0.492  0.00  0.00    +0.177 A 
ENDROOT
BRANCH   1  19
ATOM     16  C   UNL     1       7.469   1.796  -0.057  0.00  0.00    +0.120 A 
ATOM     17  C   UNL     1       6.866   2.423  -1.138  0.00  0.00    +0.047 A 
ATOM     18  C   UNL     1       5.508   2.667  -1.125  0.00  0.00    +0.030 A 
ATOM     19  C   UNL     1       4.744   2.285  -0.030  0.00  0.00    +0.052 A 
ATOM     20  C   UNL     1       5.349   1.662   1.054  0.00  0.00    +0.030 A 
ATOM     21  C   UNL     1       6.707   1.414   1.038  0.00  0.00    +0.047 A 
BRANCH  16  23
ATOM     22  C   UNL     1       9.361   0.907   1.076  0.00  0.00    +0.277 C 
ATOM     23  O   UNL     1       8.807   1.556  -0.070  0.00  0.00    -0.495 OA
ENDBRANCH  16  23
ENDBRANCH   1  19
BRANCH  15  24
ATOM     24  S   UNL     1       4.030   4.894   1.123  0.00  0.00    -0.083 S 
BRANCH  24  25
ATOM     25  C   UNL     1       2.880   6.193   1.639  0.00  0.00    +0.112 C 
BRANCH  25  26
ATOM     26  C   UNL     1       3.653   7.345   2.227  0.00  0.00    -0.037 A 
ATOM     27  C   UNL     1       3.924   7.375   3.582  0.00  0.00    +0.007 A 
ATOM     28  C   UNL     1       4.638   8.429   4.121  0.00  0.00    +0.033 A 
ATOM     29  C   UNL     1       5.072   9.458   3.306  0.00  0.00    +0.126 A 
ATOM     30  C   UNL     1       4.797   9.430   1.952  0.00  0.00    +0.033 A 
ATOM     31  C   UNL     1       4.087   8.374   1.412  0.00  0.00    +0.007 A 
BRANCH  29  32
ATOM     32  N   UNL     1       5.832  10.589   3.884  0.00  0.00    +0.056 N 
ATOM     33  O   UNL     1       6.215  11.496   3.166  0.00  0.00    -0.126 OA
ATOM     34  O   UNL     1       6.074  10.614   5.077  0.00  0.00    -0.126 OA
ENDBRANCH  29  32
ENDBRANCH  25  26
ENDBRANCH  24  25
ENDBRANCH  15  24
TORSDOF 6
