REMARK  Name = ZINC13644258
REMARK  9 active torsions:
REMARK  status: ('A' for Active; 'I' for Inactive)
REMARK    1  A    between atoms: C_1  and  C_2
REMARK    2  A    between atoms: C_6  and  C_37
REMARK    3  A    between atoms: C_7  and  N_8
REMARK    4  A    between atoms: N_8  and  S_9
REMARK    5  A    between atoms: S_9  and  C_12
REMARK    6  A    between atoms: C_25  and  C_28
REMARK    7  A    between atoms: C_31  and  N_34
REMARK    8  A    between atoms: N_34  and  C_35
REMARK    9  A    between atoms: N_34  and  C_36
REMARK                            x       y       z     vdW  Elec       q    Type
REMARK                         _______ _______ _______ _____ _____    ______ ____
ROOT
ATOM      1  C   UNL     1       0.040  -6.620  -7.215  0.00  0.00    +0.109 A 
ATOM      2  C   UNL     1      -1.003  -6.436  -6.326  0.00  0.00    +0.030 A 
ATOM      3  C   UNL     1      -1.251  -5.186  -5.797  0.00  0.00    +0.025 A 
ATOM      4  C   UNL     1      -0.458  -4.103  -6.154  0.00  0.00    +0.031 A 
ATOM      5  C   UNL     1       0.587  -4.294  -7.066  0.00  0.00    -0.018 A 
ATOM      6  C   UNL     1       0.833  -5.548  -7.581  0.00  0.00    +0.034 A 
ATOM      7  C   UNL     1       1.379  -3.107  -7.455  0.00  0.00    +0.049 C 
ATOM      8  C   UNL     1       2.784  -3.217  -7.922  0.00  0.00    -0.023 C 
ATOM      9  C   UNL     1       3.436  -2.116  -7.568  0.00  0.00    -0.030 C 
ATOM     10  C   UNL     1       2.505  -1.183  -6.792  0.00  0.00    +0.033 C 
ATOM     11  C   UNL     1       1.488  -2.175  -6.211  0.00  0.00    +0.029 C 
ATOM     12  C   UNL     1       0.081  -1.660  -5.965  0.00  0.00    +0.105 C 
ATOM     13  N   UNL     1      -0.719  -2.847  -5.593  0.00  0.00    -0.336 N 
ATOM     14  H   UNL     1      -1.438  -2.754  -4.948  0.00  0.00    +0.147 HD
ENDROOT
BRANCH  12  15
ATOM     15  C   UNL     1       0.082  -0.659  -4.838  0.00  0.00    -0.027 A 
ATOM     16  C   UNL     1      -0.018   0.692  -5.116  0.00  0.00    +0.007 A 
ATOM     17  C   UNL     1      -0.017   1.612  -4.086  0.00  0.00    +0.023 A 
ATOM     18  C   UNL     1       0.085   1.179  -2.770  0.00  0.00    +0.029 A 
ATOM     19  C   UNL     1       0.191  -0.179  -2.495  0.00  0.00    +0.023 A 
ATOM     20  C   UNL     1       0.184  -1.094  -3.530  0.00  0.00    +0.007 A 
BRANCH  18  21
ATOM     21  N   UNL     1       0.087   2.106  -1.726  0.00  0.00    -0.336 N 
ATOM     22  C   UNL     1      -0.018   3.538  -2.018  0.00  0.00    +0.129 C 
ATOM     23  C   UNL     1       0.195   1.647  -0.339  0.00  0.00    +0.129 C 
ENDBRANCH  18  21
ENDBRANCH  12  15
BRANCH   1  24
ATOM     24  S   UNL     1       0.360  -8.220  -7.880  0.00  0.00    +0.072 S 
ATOM     25  O   UNL     1       1.692  -8.197  -8.372  0.00  0.00    -0.150 OA
ATOM     26  O   UNL     1      -0.077  -9.159  -6.908  0.00  0.00    -0.150 OA
BRANCH  24  27
ATOM     27  N   UNL     1      -0.627  -8.408  -9.197  0.00  0.00    -0.216 N 
ATOM     28  H   UNL     1      -1.333  -9.074  -9.183  0.00  0.00    +0.174 HD
BRANCH  27  35
ATOM     29  C   UNL     1      -2.456  -6.275  -9.643  0.00  0.00    +0.046 C 
ATOM     30  C   UNL     1      -1.313  -6.556 -10.584  0.00  0.00    -0.028 A 
ATOM     31  C   UNL     1      -1.126  -5.765 -11.700  0.00  0.00    +0.005 A 
ATOM     32  C   UNL     1      -0.081  -6.026 -12.568  0.00  0.00    +0.001 A 
ATOM     33  C   UNL     1       0.783  -7.076 -12.318  0.00  0.00    +0.005 A 
ATOM     34  C   UNL     1       0.605  -7.868 -11.200  0.00  0.00    -0.028 A 
ATOM     35  C   UNL     1      -0.444  -7.609 -10.327  0.00  0.00    +0.054 A 
ATOM     36  C   UNL     1       1.547  -9.013 -10.929  0.00  0.00    +0.046 C 
ENDBRANCH  27  35
ENDBRANCH  24  27
ENDBRANCH   1  24
TORSDOF 5
