REMARK  Name = ZINC40151165
REMARK  6 active torsions:
REMARK  status: ('A' for Active; 'I' for Inactive)
REMARK    1  A    between atoms: C_1  and  C_2
REMARK    2  A    between atoms: C_2  and  O_4
REMARK    3  A    between atoms: O_4  and  C_5
REMARK    4  A    between atoms: C_5  and  C_6
REMARK    5  A    between atoms: C_9  and  C_19
REMARK    6  A    between atoms: N_11  and  C_12
REMARK                            x       y       z     vdW  Elec       q    Type
REMARK                         _______ _______ _______ _____ _____    ______ ____
ROOT
ATOM      1  C   UNL     1      -2.463  -2.721   0.011  0.00  0.00    +0.156 C 
ATOM      2  C   UNL     1      -3.303  -2.120  -1.093  0.00  0.00    +0.023 C 
ATOM      3  C   UNL     1      -4.326  -1.514  -0.528  0.00  0.00    +0.051 C 
ATOM      4  N   UNL     1      -4.294  -1.625   0.848  0.00  0.00    -0.265 N 
ATOM      5  N   UNL     1      -3.168  -2.361   1.253  0.00  0.00    -0.243 N 
ATOM      6  H   UNL     1      -4.955  -1.248   1.450  0.00  0.00    +0.170 HD
ENDROOT
BRANCH   3   7
ATOM      7  C   UNL     1      -5.403  -0.787  -1.291  0.00  0.00    +0.212 C 
ATOM      8  C   UNL     1      -5.251   0.690  -1.008  0.00  0.00    +0.245 C 
ATOM      9  O   UNL     1      -4.208   1.261  -1.258  0.00  0.00    -0.273 OA
ATOM     10  N   UNL     1      -6.278   1.359  -0.479  0.00  0.00    -0.282 N 
ATOM     11  C   UNL     1      -7.423   0.761  -0.197  0.00  0.00    +0.057 A 
ATOM     12  C   UNL     1      -8.491   1.499   0.362  0.00  0.00    +0.025 A 
ATOM     13  C   UNL     1      -9.665   0.891   0.653  0.00  0.00    +0.002 A 
ATOM     14  C   UNL     1      -9.892  -0.475   0.422  0.00  0.00    +0.002 A 
ATOM     15  C   UNL     1      -8.939  -1.272  -0.109  0.00  0.00    +0.027 A 
ATOM     16  C   UNL     1      -7.633  -0.687  -0.453  0.00  0.00    +0.058 A 
ATOM     17  N   UNL     1      -6.690  -1.421  -0.966  0.00  0.00    -0.368 N 
ATOM     18  H   UNL     1      -6.832  -2.366  -1.131  0.00  0.00    +0.161 HD
ATOM     19  H   UNL     1      -6.182   2.307  -0.296  0.00  0.00    +0.155 HD
ENDBRANCH   3   7
BRANCH   5  20
ATOM     20  C   UNL     1      -2.793  -2.684   2.559  0.00  0.00    +0.048 A 
ATOM     21  C   UNL     1      -1.638  -3.420   2.790  0.00  0.00    +0.026 A 
ATOM     22  C   UNL     1      -1.270  -3.739   4.083  0.00  0.00    +0.017 A 
ATOM     23  C   UNL     1      -2.051  -3.326   5.147  0.00  0.00    +0.018 A 
ATOM     24  C   UNL     1      -3.203  -2.593   4.921  0.00  0.00    +0.017 A 
ATOM     25  C   UNL     1      -3.572  -2.266   3.631  0.00  0.00    +0.026 A 
ATOM     26 BR   UNL     1      -1.545  -3.765   6.916  0.00  0.00    -0.050 Br
ENDBRANCH   5  20
BRANCH   1  27
ATOM     27  C   UNL     1      -1.057  -2.117   0.001  0.00  0.00    +0.260 C 
BRANCH  27  28
ATOM     28  O   UNL     1      -1.151  -0.691   0.009  0.00  0.00    -0.463 OA
BRANCH  28  30
ATOM     29  C   UNL     1      -0.018   1.503   0.010  0.00  0.00    +0.136 C 
ATOM     30  C   UNL     1       0.002  -0.004   0.002  0.00  0.00    +0.304 C 
ATOM     31  O   UNL     1       1.056  -0.594  -0.011  0.00  0.00    -0.251 OA
ENDBRANCH  28  30
ENDBRANCH  27  28
ENDBRANCH   1  27
TORSDOF 5
