REMARK  Name = ZINC63889864
REMARK  8 active torsions:
REMARK  status: ('A' for Active; 'I' for Inactive)
REMARK    1  A    between atoms: C_1  and  C_2
REMARK    2  A    between atoms: C_5  and  C_23
REMARK    3  A    between atoms: C_7  and  N_8
REMARK    4  A    between atoms: N_8  and  C_9
REMARK    5  A    between atoms: C_9  and  C_10
REMARK    6  A    between atoms: N_12  and  C_13
REMARK    7  A    between atoms: C_16  and  N_20
REMARK    8  A    between atoms: C_18  and  C_19
REMARK                            x       y       z     vdW  Elec       q    Type
REMARK                         _______ _______ _______ _____ _____    ______ ____
ROOT
ATOM      1  C   UNL     1       0.047   0.230   4.830  0.00  0.00    +0.234 C 
ATOM      2  O   UNL     1       0.021   1.423   4.613  0.00  0.00    -0.274 OA
ATOM      3  N   UNL     1       0.062  -0.223   6.099  0.00  0.00    -0.284 N 
ATOM      4  H   UNL     1       0.001  -1.175   6.275  0.00  0.00    +0.155 HD
ENDROOT
BRANCH   3   5
ATOM      5  C   UNL     1       0.165   0.679   7.164  0.00  0.00    +0.036 A 
ATOM      6  C   UNL     1       0.751   1.923   6.967  0.00  0.00    +0.026 A 
ATOM      7  C   UNL     1       0.852   2.811   8.019  0.00  0.00    +0.034 A 
ATOM      8  C   UNL     1       0.368   2.464   9.268  0.00  0.00    +0.127 A 
ATOM      9  C   UNL     1      -0.216   1.227   9.467  0.00  0.00    +0.038 A 
ATOM     10  C   UNL     1      -0.325   0.336   8.417  0.00  0.00    -0.027 A 
ATOM     11  C   UNL     1      -0.969  -1.009   8.633  0.00  0.00    +0.046 C 
BRANCH   8  12
ATOM     12  N   UNL     1       0.477   3.419  10.393  0.00  0.00    +0.056 N 
ATOM     13  O   UNL     1       0.988   4.501  10.221  0.00  0.00    -0.126 OA
ATOM     14  O   UNL     1       0.055   3.117  11.485  0.00  0.00    -0.126 OA
ENDBRANCH   8  12
ENDBRANCH   3   5
BRANCH   1  15
ATOM     15  C   UNL     1       0.062  -0.746   3.682  0.00  0.00    +0.198 C 
BRANCH  15  16
ATOM     16  N   UNL     1       0.041  -0.009   2.415  0.00  0.00    -0.335 N 
ATOM     17  H   UNL     1       0.021   0.961   2.419  0.00  0.00    +0.147 HD
BRANCH  16  24
ATOM     18  C   UNL     1       0.000   1.502   0.010  0.00  0.00    +0.045 C 
ATOM     19  C   UNL     1       0.030  -0.005   0.002  0.00  0.00    -0.030 A 
ATOM     20  C   UNL     1       0.044  -0.687  -1.201  0.00  0.00    +0.006 A 
ATOM     21  C   UNL     1       0.072  -2.067  -1.216  0.00  0.00    +0.019 A 
ATOM     22  C   UNL     1       0.086  -2.779  -0.015  0.00  0.00    +0.054 A 
ATOM     23  C   UNL     1       0.073  -2.090   1.198  0.00  0.00    +0.042 A 
ATOM     24  C   UNL     1       0.050  -0.704   1.203  0.00  0.00    +0.032 A 
BRANCH  22  25
ATOM     25  C   UNL     1       0.115  -4.210  -0.028  0.00  0.00    +0.099 C 
ATOM     26  N   UNL     1       0.137  -5.346  -0.039  0.00  0.00    -0.191 NA
ENDBRANCH  22  25
ENDBRANCH  16  24
ENDBRANCH  15  16
ENDBRANCH   1  15
TORSDOF 6
