REMARK  Name = ZINC39846647
REMARK  7 active torsions:
REMARK  status: ('A' for Active; 'I' for Inactive)
REMARK    1  A    between atoms: C_6  and  C_27
REMARK    2  A    between atoms: C_8  and  C_11
REMARK    3  A    between atoms: C_11  and  C_12
REMARK    4  A    between atoms: C_12  and  C_13
REMARK    5  A    between atoms: C_13  and  C_14
REMARK    6  A    between atoms: N_16  and  N_17
REMARK    7  A    between atoms: C_18  and  C_20
REMARK                            x       y       z     vdW  Elec       q    Type
REMARK                         _______ _______ _______ _____ _____    ______ ____
ROOT
ATOM      1  C   UNL     1      -4.350   3.157   0.063  0.00  0.00    +0.038 C 
ENDROOT
BRANCH   1   9
ATOM      2  C   UNL     1      -0.017   1.384   0.010  0.00  0.00    +0.001 A 
ATOM      3  C   UNL     1       0.002  -0.004   0.002  0.00  0.00    +0.002 A 
ATOM      4  C   UNL     1      -1.173  -0.724   0.010  0.00  0.00    +0.026 A 
ATOM      5  C   UNL     1      -2.393  -0.055   0.025  0.00  0.00    +0.047 A 
ATOM      6  N   UNL     1      -3.702  -0.481   0.036  0.00  0.00    -0.353 N 
ATOM      7  C   UNL     1      -4.546   0.607   0.051  0.00  0.00    +0.069 A 
ATOM      8  H   UNL     1      -3.987  -1.408   0.034  0.00  0.00    +0.166 HD
ATOM      9  C   UNL     1      -3.814   1.749   0.049  0.00  0.00    -0.013 A 
ATOM     10  C   UNL     1      -2.407   1.353   0.033  0.00  0.00    +0.003 A 
ATOM     11  C   UNL     1      -1.203   2.062   0.030  0.00  0.00    +0.010 A 
BRANCH   7  12
ATOM     12  C   UNL     1      -6.022   0.540   0.064  0.00  0.00    +0.087 A 
ATOM     13  C   UNL     1      -6.670  -0.588  -0.442  0.00  0.00    +0.030 A 
ATOM     14  C   UNL     1      -8.052  -0.635  -0.422  0.00  0.00    +0.004 A 
ATOM     15  C   UNL     1      -8.745   0.447   0.105  0.00  0.00    +0.020 A 
ATOM     16  C   UNL     1      -8.040   1.533   0.590  0.00  0.00    +0.111 A 
ATOM     17  N   UNL     1      -6.723   1.552   0.564  0.00  0.00    -0.254 NA
ENDBRANCH   7  12
ENDBRANCH   1   9
BRANCH   1  18
ATOM     18  C   UNL     1      -4.516   3.626   1.510  0.00  0.00    +0.014 C 
BRANCH  18  19
ATOM     19  C   UNL     1      -5.060   5.056   1.523  0.00  0.00    +0.097 C 
BRANCH  19  20
ATOM     20  C   UNL     1      -5.223   5.518   2.948  0.00  0.00    +0.229 C 
ATOM     21  O   UNL     1      -4.933   4.776   3.863  0.00  0.00    -0.274 OA
ATOM     22  N   UNL     1      -5.692   6.755   3.206  0.00  0.00    -0.234 N 
ATOM     23  H   UNL     1      -5.923   7.348   2.474  0.00  0.00    +0.173 HD
BRANCH  22  24
ATOM     24  N   UNL     1      -5.844   7.184   4.531  0.00  0.00    -0.230 N 
ATOM     25  C   UNL     1      -6.312   8.421   4.789  0.00  0.00    +0.260 C 
ATOM     26  O   UNL     1      -6.603   9.165   3.872  0.00  0.00    -0.269 OA
ATOM     27  H   UNL     1      -5.612   6.591   5.263  0.00  0.00    +0.173 HD
BRANCH  25  28
ATOM     28  C   UNL     1      -6.472   8.874   6.186  0.00  0.00    +0.038 A 
ATOM     29  C   UNL     1      -6.134   8.024   7.241  0.00  0.00    +0.016 A 
ATOM     30  C   UNL     1      -6.285   8.452   8.543  0.00  0.00    +0.039 A 
ATOM     31  C   UNL     1      -6.773   9.723   8.806  0.00  0.00    +0.123 A 
ATOM     32  C   UNL     1      -7.110  10.571   7.762  0.00  0.00    +0.039 A 
ATOM     33  C   UNL     1      -6.957  10.156   6.456  0.00  0.00    +0.016 A 
ATOM     34  F   UNL     1      -6.920  10.137  10.083  0.00  0.00    -0.205 F 
ENDBRANCH  25  28
ENDBRANCH  22  24
ENDBRANCH  19  20
ENDBRANCH  18  19
ENDBRANCH   1  18
TORSDOF 7
