REMARK  Name = ZINC14668546
REMARK  12 active torsions:
REMARK  status: ('A' for Active; 'I' for Inactive)
REMARK    1  A    between atoms: C_1  and  C_2
REMARK    2  A    between atoms: C_2  and  C_3
REMARK    3  A    between atoms: C_3  and  N_4
REMARK    4  A    between atoms: C_5  and  C_7
REMARK    5  A    between atoms: C_12  and  N_13
REMARK    6  A    between atoms: N_13  and  C_14
REMARK    7  A    between atoms: C_14  and  N_16
REMARK    8  A    between atoms: C_17  and  C_19
REMARK    9  A    between atoms: C_24  and  O_25
REMARK   10  A    between atoms: O_25  and  C_26
REMARK   11  A    between atoms: C_26  and  C_27
REMARK   12  A    between atoms: C_26  and  C_28
REMARK                            x       y       z     vdW  Elec       q    Type
REMARK                         _______ _______ _______ _____ _____    ______ ____
ROOT
ATOM      1  C   UNL     1      -4.819   0.227   0.904  0.00  0.00    +0.141 C 
ATOM      2  S   UNL     1      -4.603   1.864   1.356  0.00  0.00    -0.018 S 
ENDROOT
BRANCH   1   3
ATOM      3  N   UNL     1      -3.747  -0.572   0.732  0.00  0.00    -0.263 N 
ATOM      4  C   UNL     1      -2.505  -0.082   0.917  0.00  0.00    +0.253 C 
ATOM      5  O   UNL     1      -2.352   1.081   1.238  0.00  0.00    -0.270 OA
ATOM      6  H   UNL     1      -3.870  -1.499   0.476  0.00  0.00    +0.157 HD
BRANCH   4   7
ATOM      7  C   UNL     1      -1.333  -0.956   0.729  0.00  0.00    +0.080 A 
ATOM      8  C   UNL     1      -1.504  -2.292   0.356  0.00  0.00    +0.032 A 
ATOM      9  C   UNL     1      -0.404  -3.105   0.188  0.00  0.00    +0.019 A 
ATOM     10  C   UNL     1       0.873  -2.602   0.382  0.00  0.00    +0.019 A 
ATOM     11  C   UNL     1       1.057  -1.283   0.746  0.00  0.00    +0.047 A 
ATOM     12  C   UNL     1      -0.039  -0.451   0.920  0.00  0.00    +0.133 A 
ATOM     13 BR   UNL     1      -0.638  -4.914  -0.311  0.00  0.00    -0.050 Br
BRANCH  12  14
ATOM     14  O   UNL     1       0.140   0.846   1.278  0.00  0.00    -0.489 OA
BRANCH  14  15
ATOM     15  C   UNL     1       1.475   1.257   1.578  0.00  0.00    +0.167 C 
ATOM     16  C   UNL     1       2.128   1.827   0.317  0.00  0.00    +0.051 C 
ATOM     17  C   UNL     1       1.446   2.332   2.666  0.00  0.00    +0.051 C 
ENDBRANCH  14  15
ENDBRANCH  12  14
ENDBRANCH   4   7
ENDBRANCH   1   3
BRANCH   1  18
ATOM     18  N   UNL     1      -6.061  -0.263   0.720  0.00  0.00    -0.296 N 
ATOM     19  H   UNL     1      -6.185  -1.199   0.500  0.00  0.00    +0.154 HD
BRANCH  18  25
ATOM     20  C   UNL     1      -8.330   0.117   1.478  0.00  0.00    +0.058 A 
ATOM     21  C   UNL     1      -9.431   0.969   1.597  0.00  0.00    +0.015 A 
ATOM     22  C   UNL     1      -9.368   2.249   1.093  0.00  0.00    +0.001 A 
ATOM     23  C   UNL     1      -8.216   2.699   0.467  0.00  0.00    +0.002 A 
ATOM     24  C   UNL     1      -7.118   1.871   0.347  0.00  0.00    +0.024 A 
ATOM     25  C   UNL     1      -7.165   0.576   0.844  0.00  0.00    +0.045 A 
BRANCH  20  27
ATOM     26  N   UNL     1      -9.547  -1.729   2.522  0.00  0.00    -0.311 N 
ATOM     27  C   UNL     1      -8.391  -1.254   2.017  0.00  0.00    +0.246 C 
ATOM     28  O   UNL     1      -7.399  -1.957   2.005  0.00  0.00    -0.270 OA
ATOM     29  H   UNL     1     -10.338  -1.169   2.532  0.00  0.00    +0.149 HD
BRANCH  26  30
ATOM     30  C   UNL     1      -9.607  -3.092   3.057  0.00  0.00    +0.104 C 
BRANCH  30  32
ATOM     31  C   UNL     1     -11.086  -4.801   4.123  0.00  0.00    +0.005 C 
ATOM     32  C   UNL     1     -11.022  -3.378   3.564  0.00  0.00    +0.015 C 
ENDBRANCH  30  32
ENDBRANCH  26  30
ENDBRANCH  20  27
ENDBRANCH  18  25
ENDBRANCH   1  18
TORSDOF 9
