REMARK  Name = ZINC36493593
REMARK  13 active torsions:
REMARK  status: ('A' for Active; 'I' for Inactive)
REMARK    1  A    between atoms: C_1  and  C_2
REMARK    2  A    between atoms: C_2  and  C_3
REMARK    3  A    between atoms: C_3  and  C_4
REMARK    4  A    between atoms: C_4  and  C_5
REMARK    5  A    between atoms: N_7  and  C_8
REMARK    6  A    between atoms: N_7  and  C_14
REMARK    7  A    between atoms: C_14  and  C_16
REMARK    8  A    between atoms: C_14  and  C_25
REMARK    9  A    between atoms: C_19  and  N_22
REMARK   10  A    between atoms: N_27  and  C_28
REMARK   11  A    between atoms: C_28  and  S_29
REMARK   12  A    between atoms: S_29  and  C_32
REMARK   13  A    between atoms: C_35  and  C_38
REMARK                            x       y       z     vdW  Elec       q    Type
REMARK                         _______ _______ _______ _____ _____    ______ ____
ROOT
ATOM      1  C   UNL     1       3.338  -4.541  -3.796  0.00  0.00    +0.192 C 
ENDROOT
BRANCH   1   2
ATOM      2  C   UNL     1       2.435  -5.543  -4.468  0.00  0.00    -0.018 A 
ATOM      3  C   UNL     1       1.318  -5.113  -5.159  0.00  0.00    +0.008 A 
ATOM      4  C   UNL     1       0.490  -6.032  -5.776  0.00  0.00    +0.033 A 
ATOM      5  C   UNL     1       0.779  -7.382  -5.701  0.00  0.00    +0.126 A 
ATOM      6  C   UNL     1       1.896  -7.812  -5.010  0.00  0.00    +0.033 A 
ATOM      7  C   UNL     1       2.727  -6.893  -4.397  0.00  0.00    +0.008 A 
BRANCH   5   8
ATOM      8  N   UNL     1      -0.109  -8.366  -6.360  0.00  0.00    +0.056 N 
ATOM      9  O   UNL     1      -1.086  -7.989  -6.964  0.00  0.00    -0.126 OA
ATOM     10  O   UNL     1       0.144  -9.546  -6.295  0.00  0.00    -0.126 OA
ENDBRANCH   5   8
ENDBRANCH   1   2
BRANCH   1  11
ATOM     11  C   UNL     1       4.361  -5.267  -2.960  0.00  0.00    +0.239 C 
ATOM     12  O   UNL     1       4.217  -5.346  -1.759  0.00  0.00    -0.273 OA
ATOM     13  N   UNL     1       5.435  -5.830  -3.548  0.00  0.00    -0.294 N 
ATOM     14  H   UNL     1       5.574  -5.729  -4.503  0.00  0.00    +0.150 HD
BRANCH  13  15
ATOM     15  C   UNL     1       6.394  -6.593  -2.746  0.00  0.00    +0.278 C 
BRANCH  15  16
ATOM     16  S   UNL     1       5.988  -8.359  -2.837  0.00  0.00    +0.013 S 
ATOM     17  O   UNL     1       6.936  -9.118  -2.100  0.00  0.00    -0.168 OA
ATOM     18  O   UNL     1       4.594  -8.552  -2.639  0.00  0.00    -0.168 OA
BRANCH  16  19
ATOM     19  C   UNL     1       6.268  -8.802  -4.519  0.00  0.00    +0.090 A 
ATOM     20  C   UNL     1       5.259  -8.648  -5.452  0.00  0.00    +0.027 A 
ATOM     21  C   UNL     1       5.479  -8.995  -6.771  0.00  0.00    +0.005 A 
ATOM     22  C   UNL     1       6.708  -9.496  -7.159  0.00  0.00    -0.050 A 
ATOM     23  C   UNL     1       7.717  -9.649  -6.227  0.00  0.00    +0.005 A 
ATOM     24  C   UNL     1       7.499  -9.297  -4.908  0.00  0.00    +0.027 A 
ATOM     25  C   UNL     1       6.947  -9.875  -8.598  0.00  0.00    +0.044 C 
ENDBRANCH  16  19
ENDBRANCH  15  16
ENDBRANCH  13  15
ENDBRANCH   1  11
BRANCH   1  28
ATOM     26  C   UNL     1       2.606  -2.326  -3.092  0.00  0.00    +0.217 C 
ATOM     27  O   UNL     1       3.262  -1.853  -3.996  0.00  0.00    -0.276 OA
ATOM     28  N   UNL     1       2.540  -3.663  -2.937  0.00  0.00    -0.283 N 
BRANCH  28  29
ATOM     29  C   UNL     1       1.670  -4.239  -1.908  0.00  0.00    +0.077 C 
ATOM     30  C   UNL     1       2.237  -3.920  -0.523  0.00  0.00    +0.022 C 
ATOM     31  C   UNL     1       1.329  -4.521   0.551  0.00  0.00    +0.002 C 
ATOM     32  C   UNL     1       1.256  -6.038   0.367  0.00  0.00    +0.000 C 
ATOM     33  C   UNL     1       0.689  -6.358  -1.017  0.00  0.00    +0.002 C 
ATOM     34  C   UNL     1       1.598  -5.756  -2.092  0.00  0.00    +0.022 C 
ENDBRANCH  28  29
BRANCH  26  35
ATOM     35  C   UNL     1       1.864  -1.420  -2.144  0.00  0.00    +0.096 C 
BRANCH  35  36
ATOM     36  C   UNL     1       1.949   0.023  -2.646  0.00  0.00    +0.009 C 
BRANCH  36  38
ATOM     37  C   UNL     1       1.280   2.386  -2.186  0.00  0.00    +0.004 C 
ATOM     38  C   UNL     1       1.196   0.943  -1.684  0.00  0.00    -0.003 C 
ENDBRANCH  36  38
ENDBRANCH  35  36
ENDBRANCH  26  35
ENDBRANCH   1  28
TORSDOF 11
