REMARK  Name = ZINC03087649
REMARK  11 active torsions:
REMARK  status: ('A' for Active; 'I' for Inactive)
REMARK    1  A    between atoms: C_1  and  C_2
REMARK    2  A    between atoms: C_5  and  C_28
REMARK    3  A    between atoms: C_6  and  N_8
REMARK    4  A    between atoms: C_9  and  O_11
REMARK    5  A    between atoms: O_11  and  C_12
REMARK    6  A    between atoms: C_12  and  C_13
REMARK    7  A    between atoms: C_13  and  N_14
REMARK    8  A    between atoms: C_15  and  C_17
REMARK    9  A    between atoms: C_19  and  C_24
REMARK   10  A    between atoms: C_21  and  C_22
REMARK   11  A    between atoms: C_21  and  C_23
REMARK                            x       y       z     vdW  Elec       q    Type
REMARK                         _______ _______ _______ _____ _____    ______ ____
ROOT
ATOM      1  C   UNL     1      -0.025   1.070   0.008  0.00  0.00    +0.252 C 
ENDROOT
BRANCH   1   2
ATOM      2  O   UNL     1      -0.702   1.541   1.203  0.00  0.00    -0.449 OA
BRANCH   2   4
ATOM      3  N   UNL     1      -0.747   1.594   3.535  0.00  0.00    -0.251 N 
ATOM      4  C   UNL     1      -0.167   1.190   2.387  0.00  0.00    +0.405 C 
ATOM      5  O   UNL     1       0.839   0.509   2.422  0.00  0.00    -0.226 OA
ATOM      6  H   UNL     1      -1.500   2.204   3.509  0.00  0.00    +0.158 HD
BRANCH   3  12
ATOM      7  C   UNL     1       1.656  -1.826   6.123  0.00  0.00    +0.044 C 
ATOM      8  C   UNL     1       0.907  -0.521   6.048  0.00  0.00    -0.049 A 
ATOM      9  C   UNL     1       0.698   0.224   7.194  0.00  0.00    +0.004 A 
ATOM     10  C   UNL     1       0.012   1.422   7.129  0.00  0.00    +0.005 A 
ATOM     11  C   UNL     1      -0.468   1.879   5.917  0.00  0.00    -0.029 A 
ATOM     12  C   UNL     1      -0.261   1.134   4.764  0.00  0.00    +0.040 A 
ATOM     13  C   UNL     1       0.424  -0.072   4.834  0.00  0.00    +0.027 A 
ATOM     14  C   UNL     1      -1.217   3.185   5.847  0.00  0.00    +0.045 C 
ENDBRANCH   3  12
ENDBRANCH   2   4
ENDBRANCH   1   2
BRANCH   1  15
ATOM     15  C   UNL     1      -0.773   1.565  -1.231  0.00  0.00    +0.145 C 
BRANCH  15  16
ATOM     16  N   UNL     1      -0.700   3.027  -1.295  0.00  0.00    -0.312 N 
ATOM     17  C   UNL     1      -1.292   3.688  -2.309  0.00  0.00    +0.217 C 
ATOM     18  O   UNL     1      -1.886   3.072  -3.169  0.00  0.00    -0.275 OA
ATOM     19  H   UNL     1      -0.225   3.519  -0.607  0.00  0.00    +0.149 HD
BRANCH  17  20
ATOM     20  C   UNL     1      -1.217   5.191  -2.374  0.00  0.00    +0.089 C 
ATOM     21  C   UNL     1      -0.383   5.809  -3.498  0.00  0.00    +0.033 C 
ATOM     22  C   UNL     1      -1.910   5.883  -3.550  0.00  0.00    -0.016 C 
ATOM     23  C   UNL     1      -2.627   4.995  -4.569  0.00  0.00    +0.012 C 
ATOM     24  C   UNL     1      -2.560   7.243  -3.286  0.00  0.00    +0.012 C 
BRANCH  21  25
ATOM     25  C   UNL     1       0.366   7.080  -3.192  0.00  0.00    +0.010 C 
ATOM     26  C   UNL     1       1.227   7.560  -4.059  0.00  0.00    +0.103 C 
ATOM     27 CL   UNL     1       1.503   6.731  -5.559  0.00  0.00    -0.071 Cl
ATOM     28 CL   UNL     1       2.090   9.025  -3.706  0.00  0.00    -0.071 Cl
ENDBRANCH  21  25
ENDBRANCH  17  20
ENDBRANCH  15  16
ENDBRANCH   1  15
TORSDOF 7
