REMARK  Name = ZINC36442654
REMARK  10 active torsions:
REMARK  status: ('A' for Active; 'I' for Inactive)
REMARK    1  A    between atoms: C_1  and  C_2
REMARK    2  A    between atoms: N_8  and  S_9
REMARK    3  A    between atoms: S_9  and  C_12
REMARK    4  A    between atoms: C_16  and  C_18
REMARK    5  A    between atoms: N_20  and  C_21
REMARK    6  A    between atoms: C_21  and  C_22
REMARK    7  A    between atoms: C_22  and  C_24
REMARK    8  A    between atoms: C_22  and  N_29
REMARK    9  A    between atoms: N_29  and  C_30
REMARK   10  A    between atoms: N_29  and  C_31
REMARK                            x       y       z     vdW  Elec       q    Type
REMARK                         _______ _______ _______ _____ _____    ______ ____
ROOT
ATOM      1  C   UNL     1       0.518   1.076   3.819  0.00  0.00    +0.106 A 
ATOM      2  C   UNL     1      -0.461   2.043   3.671  0.00  0.00    +0.029 A 
ATOM      3  C   UNL     1      -1.450   2.186   4.627  0.00  0.00    +0.018 A 
ATOM      4  C   UNL     1      -1.467   1.363   5.736  0.00  0.00    +0.030 A 
ATOM      5  C   UNL     1      -0.482   0.385   5.890  0.00  0.00    +0.052 A 
ATOM      6  C   UNL     1       0.510   0.243   4.918  0.00  0.00    +0.042 A 
ATOM      7 BR   UNL     1      -2.819   1.560   7.043  0.00  0.00    -0.050 Br
ENDROOT
BRANCH   5   8
ATOM      8  C   UNL     1      -0.492  -0.500   7.074  0.00  0.00    +0.245 C 
ATOM      9  O   UNL     1      -1.360  -0.377   7.917  0.00  0.00    -0.270 OA
ATOM     10  N   UNL     1       0.460  -1.442   7.220  0.00  0.00    -0.312 N 
ATOM     11  H   UNL     1       1.152  -1.540   6.547  0.00  0.00    +0.149 HD
BRANCH  10  12
ATOM     12  C   UNL     1       0.449  -2.319   8.393  0.00  0.00    +0.097 C 
BRANCH  12  13
ATOM     13  C   UNL     1       1.553  -3.369   8.255  0.00  0.00    +0.016 C 
BRANCH  13  14
ATOM     14  C   UNL     1       2.898  -2.689   8.259  0.00  0.00    +0.093 A 
ATOM     15  C   UNL     1       3.638  -2.403   7.172  0.00  0.00    +0.043 A 
ATOM     16  C   UNL     1       4.815  -1.770   7.633  0.00  0.00    +0.041 A 
ATOM     17  C   UNL     1       4.723  -1.706   8.974  0.00  0.00    +0.195 A 
ATOM     18  O   UNL     1       3.558  -2.259   9.347  0.00  0.00    -0.469 OA
ENDBRANCH  13  14
BRANCH  13  19
ATOM     19  N   UNL     1       1.478  -4.310   9.381  0.00  0.00    +0.384 N 
ATOM     20  C   UNL     1       0.220  -5.064   9.306  0.00  0.00    -0.096 C 
ATOM     21  C   UNL     1       2.612  -5.242   9.318  0.00  0.00    -0.096 C 
ATOM     22  H   UNL     1       1.512  -3.798  10.250  0.00  0.00    -0.082 HD
ENDBRANCH  13  19
ENDBRANCH  12  13
ENDBRANCH  10  12
ENDBRANCH   5   8
BRANCH   1  23
ATOM     23  S   UNL     1       1.774   0.903   2.595  0.00  0.00    +0.061 S 
ATOM     24  O   UNL     1       2.812   0.133   3.184  0.00  0.00    -0.153 OA
ATOM     25  O   UNL     1       1.998   2.199   2.057  0.00  0.00    -0.153 OA
BRANCH  23  32
ATOM     26  C   UNL     1       1.852  -1.923   2.732  0.00  0.00    +0.026 C 
ATOM     27  C   UNL     1       1.102  -1.479   1.475  0.00  0.00    +0.077 C 
ATOM     28  C   UNL     1       1.772  -2.083   0.237  0.00  0.00    +0.020 C 
ATOM     29  C   UNL     1       1.105  -1.525  -1.023  0.00  0.00    +0.003 C 
ATOM     30  C   UNL     1       1.286  -0.006  -1.068  0.00  0.00    +0.017 C 
ATOM     31  C   UNL     1       0.611   0.621   0.155  0.00  0.00    +0.110 C 
ATOM     32  N   UNL     1       1.141  -0.014   1.370  0.00  0.00    -0.174 NA
ENDBRANCH  23  32
ENDBRANCH   1  23
TORSDOF 7
