REMARK  Name = ZINC20530117
REMARK  8 active torsions:
REMARK  status: ('A' for Active; 'I' for Inactive)
REMARK    1  A    between atoms: C_1  and  C_2
REMARK    2  A    between atoms: C_8  and  N_10
REMARK    3  A    between atoms: C_11  and  C_13
REMARK    4  A    between atoms: C_16  and  C_19
REMARK    5  A    between atoms: C_19  and  N_20
REMARK    6  A    between atoms: N_20  and  S_21
REMARK    7  A    between atoms: S_21  and  C_24
REMARK    8  A    between atoms: C_34  and  C_36
REMARK                            x       y       z     vdW  Elec       q    Type
REMARK                         _______ _______ _______ _____ _____    ______ ____
ROOT
ATOM      1  C   UNL     1       4.629   0.109  -2.558  0.00  0.00    +0.109 C 
ENDROOT
BRANCH   1   5
ATOM      2  C   UNL     1       7.557  -0.227  -5.727  0.00  0.00    +0.075 C 
ATOM      3  C   UNL     1       6.194   0.379  -6.066  0.00  0.00    +0.013 C 
ATOM      4  C   UNL     1       5.507   0.842  -4.779  0.00  0.00    +0.005 C 
ATOM      5  C   UNL     1       5.316  -0.354  -3.845  0.00  0.00    +0.005 C 
ATOM      6  C   UNL     1       6.679  -0.960  -3.506  0.00  0.00    +0.005 C 
ATOM      7  C   UNL     1       7.366  -1.423  -4.792  0.00  0.00    +0.013 C 
BRANCH   2   9
ATOM      8  N   UNL     1       9.664   0.500  -4.654  0.00  0.00    -0.312 N 
ATOM      9  C   UNL     1       8.412   0.811  -5.047  0.00  0.00    +0.216 C 
ATOM     10  O   UNL     1       7.975   1.925  -4.852  0.00  0.00    -0.276 OA
ATOM     11  H   UNL     1      10.061  -0.510  -4.831  0.00  0.00    +0.149 HD
BRANCH   8  18
ATOM     12  C   UNL     1      12.282   1.159  -5.705  0.00  0.00    +0.009 C 
ATOM     13  C   UNL     1      11.973   1.172  -4.206  0.00  0.00    +0.006 C 
ATOM     14  C   UNL     1      12.841   2.225  -3.515  0.00  0.00    +0.005 C 
ATOM     15  C   UNL     1      12.532   2.238  -2.017  0.00  0.00    +0.000 C 
ATOM     16  C   UNL     1      11.055   2.575  -1.804  0.00  0.00    +0.002 C 
ATOM     17  C   UNL     1      10.187   1.522  -2.494  0.00  0.00    +0.022 C 
ATOM     18  C   UNL     1      10.496   1.509  -3.993  0.00  0.00    +0.076 C 
ENDBRANCH   8  18
ENDBRANCH   2   9
ENDBRANCH   1   5
BRANCH   1  19
ATOM     19  N   UNL     1       4.338  -1.053  -1.714  0.00  0.00    -0.190 NA
ATOM     20  H   UNL     1       4.220  -2.047  -2.170  0.00  0.00    +0.148 HD
BRANCH  19  21
ATOM     21  S   UNL     1       3.943  -0.841  -0.120  0.00  0.00    +0.058 S 
ATOM     22  O   UNL     1       4.920   0.035   0.427  0.00  0.00    -0.153 OA
ATOM     23  O   UNL     1       3.695  -2.134   0.412  0.00  0.00    -0.153 OA
BRANCH  21  24
ATOM     24  C   UNL     1       2.409   0.025  -0.075  0.00  0.00    +0.107 A 
ATOM     25  C   UNL     1       1.219  -0.679  -0.064  0.00  0.00    +0.032 A 
ATOM     26  C   UNL     1       0.012  -0.007  -0.030  0.00  0.00    +0.049 A 
ATOM     27  C   UNL     1      -0.011   1.380  -0.006  0.00  0.00    +0.142 A 
ATOM     28  C   UNL     1       1.189   2.086  -0.014  0.00  0.00    +0.080 A 
ATOM     29  C   UNL     1       2.396   1.407  -0.050  0.00  0.00    +0.055 A 
ATOM     30  N   UNL     1       1.171   3.491   0.018  0.00  0.00    -0.265 N 
ATOM     31  C   UNL     1      -0.111   4.165  -0.254  0.00  0.00    +0.154 C 
ATOM     32  C   UNL     1      -1.210   3.386   0.482  0.00  0.00    +0.248 C 
ATOM     33  O   UNL     1      -1.202   2.033   0.019  0.00  0.00    -0.489 OA
ATOM     34  C   UNL     1       2.287   4.197   0.288  0.00  0.00    +0.217 C 
ATOM     35  O   UNL     1       3.305   3.622   0.611  0.00  0.00    -0.276 OA
ATOM     36  C   UNL     1       2.270   5.700   0.188  0.00  0.00    +0.109 C 
ENDBRANCH  21  24
ENDBRANCH  19  21
ENDBRANCH   1  19
TORSDOF 6
