REMARK  Name = ZINC36545279
REMARK  12 active torsions:
REMARK  status: ('A' for Active; 'I' for Inactive)
REMARK    1  A    between atoms: C_1  and  C_2
REMARK    2  A    between atoms: C_2  and  C_3
REMARK    3  A    between atoms: C_3  and  C_4
REMARK    4  A    between atoms: C_4  and  N_5
REMARK    5  A    between atoms: C_6  and  C_8
REMARK    6  A    between atoms: C_8  and  C_10
REMARK    7  A    between atoms: C_8  and  N_13
REMARK    8  A    between atoms: C_11  and  C_12
REMARK    9  A    between atoms: N_13  and  C_14
REMARK   10  A    between atoms: C_21  and  C_23
REMARK   11  A    between atoms: C_24  and  O_30
REMARK   12  A    between atoms: C_28  and  O_29
REMARK                            x       y       z     vdW  Elec       q    Type
REMARK                         _______ _______ _______ _____ _____    ______ ____
ROOT
ATOM      1  N   UNL     1       2.471  -5.678  -4.041  0.00  0.00    -0.250 N 
ATOM      2  C   UNL     1       3.763  -6.022  -3.869  0.00  0.00    +0.259 C 
ATOM      3  O   UNL     1       4.582  -5.178  -3.560  0.00  0.00    -0.269 OA
ENDROOT
BRANCH   1   4
ATOM      4  C   UNL     1       1.512  -6.665  -4.290  0.00  0.00    +0.056 A 
ATOM      5  C   UNL     1       0.855  -7.280  -3.232  0.00  0.00    +0.025 A 
ATOM      6  C   UNL     1      -0.092  -8.254  -3.481  0.00  0.00    +0.002 A 
ATOM      7  C   UNL     1      -0.387  -8.617  -4.783  0.00  0.00    +0.002 A 
ATOM      8  C   UNL     1       0.264  -8.007  -5.839  0.00  0.00    +0.022 A 
ATOM      9  C   UNL     1       1.209  -7.028  -5.597  0.00  0.00    +0.062 A 
ATOM     10 CL   UNL     1       2.022  -6.257  -6.923  0.00  0.00    -0.082 Cl
ENDBRANCH   1   4
BRANCH   2  11
ATOM     11  C   UNL     1       4.183  -7.421  -4.056  0.00  0.00    +0.120 A 
ATOM     12  C   UNL     1       4.692  -7.846  -5.292  0.00  0.00    +0.133 A 
ATOM     13  C   UNL     1       5.085  -9.165  -5.457  0.00  0.00    +0.046 A 
ATOM     14  C   UNL     1       4.976 -10.060  -4.409  0.00  0.00    +0.007 A 
ATOM     15  C   UNL     1       4.475  -9.651  -3.186  0.00  0.00    +0.046 A 
ATOM     16  C   UNL     1       4.083  -8.336  -2.998  0.00  0.00    +0.133 A 
BRANCH  16  17
ATOM     17  O   UNL     1       3.597  -7.936  -1.796  0.00  0.00    -0.506 OA
ATOM     18  H   UNL     1       2.654  -8.110  -1.675  0.00  0.00    +0.292 HD
ENDBRANCH  16  17
BRANCH  12  19
ATOM     19  O   UNL     1       4.800  -6.970  -6.322  0.00  0.00    -0.506 OA
ATOM     20  H   UNL     1       5.647  -6.506  -6.357  0.00  0.00    +0.292 HD
ENDBRANCH  12  19
ENDBRANCH   2  11
BRANCH   1  21
ATOM     21  C   UNL     1       2.072  -4.271  -3.966  0.00  0.00    +0.190 C 
BRANCH  21  23
ATOM     22  N   UNL     1       2.538  -2.180  -5.203  0.00  0.00    -0.314 N 
ATOM     23  C   UNL     1       2.841  -3.475  -4.989  0.00  0.00    +0.238 C 
ATOM     24  O   UNL     1       3.732  -4.002  -5.621  0.00  0.00    -0.273 OA
ATOM     25  H   UNL     1       1.825  -1.759  -4.697  0.00  0.00    +0.149 HD
BRANCH  22  26
ATOM     26  C   UNL     1       3.285  -1.407  -6.198  0.00  0.00    +0.104 C 
BRANCH  26  27
ATOM     27  C   UNL     1       2.746   0.024  -6.242  0.00  0.00    +0.018 C 
BRANCH  27  29
ATOM     28  C   UNL     1       2.986   2.263  -7.325  0.00  0.00    +0.004 C 
ATOM     29  C   UNL     1       3.526   0.832  -7.281  0.00  0.00    -0.002 C 
ENDBRANCH  27  29
ENDBRANCH  26  27
ENDBRANCH  22  26
ENDBRANCH  21  23
BRANCH  21  30
ATOM     30  C   UNL     1       2.370  -3.737  -2.588  0.00  0.00    +0.000 C 
ATOM     31  C   UNL     1       2.777  -4.549  -1.645  0.00  0.00    -0.032 C 
ATOM     32  C   UNL     1       3.163  -4.002  -0.294  0.00  0.00    +0.035 C 
ENDBRANCH  21  30
ENDBRANCH   1  21
TORSDOF 10
