REMARK  Name = ZINC63620093
REMARK  10 active torsions:
REMARK  status: ('A' for Active; 'I' for Inactive)
REMARK    1  A    between atoms: C_1  and  C_2
REMARK    2  A    between atoms: C_5  and  C_8
REMARK    3  A    between atoms: C_8  and  N_9
REMARK    4  A    between atoms: C_17  and  S_20
REMARK    5  A    between atoms: S_20  and  C_21
REMARK    6  A    between atoms: C_21  and  C_22
REMARK    7  A    between atoms: N_24  and  C_25
REMARK    8  A    between atoms: C_25  and  C_26
REMARK    9  A    between atoms: C_26  and  C_27
REMARK   10  A    between atoms: C_30  and  C_36
REMARK                            x       y       z     vdW  Elec       q    Type
REMARK                         _______ _______ _______ _____ _____    ______ ____
ROOT
ATOM      1  N   UNL     1       1.447  -4.746  -0.032  0.00  0.00    -0.300 N 
ATOM      2  C   UNL     1       2.106  -4.959  -1.229  0.00  0.00    +0.071 A 
ATOM      3  C   UNL     1       1.456  -4.728  -2.437  0.00  0.00    +0.028 A 
ATOM      4  C   UNL     1       2.120  -4.942  -3.626  0.00  0.00    +0.002 A 
ATOM      5  C   UNL     1       3.434  -5.388  -3.627  0.00  0.00    +0.002 A 
ATOM      6  C   UNL     1       4.091  -5.622  -2.454  0.00  0.00    +0.030 A 
ATOM      7  C   UNL     1       3.438  -5.411  -1.231  0.00  0.00    +0.089 A 
ATOM      8  N   UNL     1       4.087  -5.641  -0.071  0.00  0.00    -0.234 NA
ATOM      9  C   UNL     1       3.497  -5.451   1.083  0.00  0.00    +0.163 A 
ATOM     10  C   UNL     1       2.102  -4.972   1.128  0.00  0.00    +0.284 A 
ATOM     11  O   UNL     1       1.548  -4.788   2.196  0.00  0.00    -0.265 OA
ENDROOT
BRANCH   1  12
ATOM     12  C   UNL     1       0.059  -4.275  -0.021  0.00  0.00    +0.160 C 
BRANCH  12  17
ATOM     13  C   UNL     1      -0.018   1.503   0.010  0.00  0.00    +0.044 C 
ATOM     14  C   UNL     1       0.002  -0.004   0.002  0.00  0.00    -0.050 A 
ATOM     15  C   UNL     1       0.006  -0.689  -1.199  0.00  0.00    +0.004 A 
ATOM     16  C   UNL     1       0.025  -2.071  -1.206  0.00  0.00    +0.005 A 
ATOM     17  C   UNL     1       0.040  -2.768  -0.013  0.00  0.00    -0.028 A 
ATOM     18  C   UNL     1       0.037  -2.084   1.188  0.00  0.00    +0.005 A 
ATOM     19  C   UNL     1       0.023  -0.702   1.195  0.00  0.00    +0.004 A 
ENDBRANCH  12  17
ENDBRANCH   1  12
BRANCH   9  20
ATOM     20  S   UNL     1       4.370  -5.761   2.581  0.00  0.00    -0.091 S 
BRANCH  20  21
ATOM     21  C   UNL     1       6.008  -6.311   2.028  0.00  0.00    +0.171 C 
BRANCH  21  22
ATOM     22  C   UNL     1       6.868  -6.614   3.228  0.00  0.00    +0.223 C 
ATOM     23  O   UNL     1       6.420  -6.472   4.347  0.00  0.00    -0.275 OA
ATOM     24  N   UNL     1       8.134  -7.042   3.059  0.00  0.00    -0.314 N 
ATOM     25  H   UNL     1       8.493  -7.155   2.165  0.00  0.00    +0.149 HD
BRANCH  24  26
ATOM     26  C   UNL     1       8.970  -7.336   4.226  0.00  0.00    +0.108 C 
BRANCH  26  27
ATOM     27  C   UNL     1      10.351  -7.800   3.760  0.00  0.00    +0.052 C 
BRANCH  27  28
ATOM     28  C   UNL     1      11.211  -8.103   4.960  0.00  0.00    -0.040 C 
ATOM     29  C   UNL     1      11.405  -9.310   5.538  0.00  0.00    -0.001 A 
ATOM     30  C   UNL     1      10.892 -10.652   5.235  0.00  0.00    +0.013 A 
ATOM     31  C   UNL     1      11.272 -11.691   6.012  0.00  0.00    -0.050 A 
ATOM     32  C   UNL     1      12.142 -11.519   7.098  0.00  0.00    +0.005 A 
ATOM     33  C   UNL     1      12.655 -10.318   7.439  0.00  0.00    +0.026 A 
ATOM     34  C   UNL     1      12.322  -9.156   6.689  0.00  0.00    +0.043 A 
ATOM     35  N   UNL     1      12.682  -7.902   6.818  0.00  0.00    -0.380 N 
ATOM     36  C   UNL     1      12.037  -7.119   5.758  0.00  0.00    +0.144 C 
ATOM     37  C   UNL     1      10.747 -13.069   5.704  0.00  0.00    +0.044 C 
ATOM     38  H   UNL     1      13.278  -7.551   7.498  0.00  0.00    +0.160 HD
ENDBRANCH  27  28
ENDBRANCH  26  27
ENDBRANCH  24  26
ENDBRANCH  21  22
ENDBRANCH  20  21
ENDBRANCH   9  20
TORSDOF 8
