REMARK  Name = ZINC39205243
REMARK  5 active torsions:
REMARK  status: ('A' for Active; 'I' for Inactive)
REMARK    1  A    between atoms: C_7  and  C_10
REMARK    2  A    between atoms: N_11  and  N_12
REMARK    3  A    between atoms: C_13  and  C_15
REMARK    4  A    between atoms: C_17  and  C_28
REMARK    5  A    between atoms: C_31  and  N_34
REMARK                            x       y       z     vdW  Elec       q    Type
REMARK                         _______ _______ _______ _____ _____    ______ ____
ROOT
ATOM      1  C   UNL     1       4.480  -6.068  -0.377  0.00  0.00    +0.243 C 
ATOM      2  C   UNL     1       5.020  -6.213   1.062  0.00  0.00    +0.167 C 
ATOM      3  N   UNL     1       5.560  -7.586   1.059  0.00  0.00    -0.173 N 
ATOM      4  N   UNL     1       5.342  -8.118  -0.212  0.00  0.00    -0.076 NA
ATOM      5  N   UNL     1       4.781  -7.362  -1.003  0.00  0.00    -0.156 NA
ATOM      6  C   UNL     1       6.174  -8.233   2.130  0.00  0.00    +0.228 A 
ATOM      7  C   UNL     1       6.712  -9.597   2.114  0.00  0.00    +0.204 A 
ATOM      8  N   UNL     1       7.208  -9.855   3.293  0.00  0.00    -0.032 NA
ATOM      9  O   UNL     1       7.022  -8.709   4.103  0.00  0.00    -0.239 OA
ATOM     10  N   UNL     1       6.374  -7.726   3.314  0.00  0.00    -0.030 NA
ATOM     11  N   UNL     1       6.697 -10.466   1.029  0.00  0.00    -0.338 N 
ATOM     12  H   UNL     1       6.304 -10.185   0.188  0.00  0.00    +0.144 HD
ATOM     13  H   UNL     1       7.079 -11.354   1.113  0.00  0.00    +0.144 HD
ENDROOT
BRANCH   2  14
ATOM     14  C   UNL     1       6.109  -5.206   1.329  0.00  0.00    -0.022 A 
ATOM     15  C   UNL     1       7.393  -5.438   0.873  0.00  0.00    +0.008 A 
ATOM     16  C   UNL     1       8.391  -4.514   1.119  0.00  0.00    +0.033 A 
ATOM     17  C   UNL     1       8.105  -3.357   1.820  0.00  0.00    +0.126 A 
ATOM     18  C   UNL     1       6.821  -3.125   2.276  0.00  0.00    +0.033 A 
ATOM     19  C   UNL     1       5.822  -4.047   2.026  0.00  0.00    +0.008 A 
BRANCH  17  20
ATOM     20  N   UNL     1       9.174  -2.368   2.084  0.00  0.00    +0.056 N 
ATOM     21  O   UNL     1      10.298  -2.572   1.686  0.00  0.00    -0.126 OA
ATOM     22  O   UNL     1       8.924  -1.357   2.697  0.00  0.00    -0.126 OA
ENDBRANCH  17  20
ENDBRANCH   2  14
BRANCH   1  24
ATOM     23  N   UNL     1       2.519  -4.578  -0.146  0.00  0.00    -0.205 N 
ATOM     24  C   UNL     1       2.994  -5.822  -0.360  0.00  0.00    +0.261 C 
ATOM     25  O   UNL     1       2.224  -6.741  -0.540  0.00  0.00    -0.272 OA
ATOM     26  H   UNL     1       3.135  -3.842  -0.003  0.00  0.00    +0.177 HD
BRANCH  23  28
ATOM     27  C   UNL     1       0.678  -3.126  -0.046  0.00  0.00    +0.136 C 
ATOM     28  N   UNL     1       1.137  -4.349  -0.132  0.00  0.00    -0.188 NA
BRANCH  27  35
ATOM     29  C   UNL     1      -0.048   1.346  -0.235  0.00  0.00    +0.001 A 
ATOM     30  C   UNL     1       1.125   2.098  -0.346  0.00  0.00    +0.002 A 
ATOM     31  C   UNL     1       2.347   1.516  -0.390  0.00  0.00    +0.026 A 
ATOM     32  C   UNL     1       2.458   0.102  -0.323  0.00  0.00    +0.043 A 
ATOM     33  N   UNL     1       3.509  -0.692  -0.347  0.00  0.00    -0.380 N 
ATOM     34  C   UNL     1       3.064  -2.085  -0.247  0.00  0.00    +0.150 C 
ATOM     35  C   UNL     1       1.555  -2.038  -0.157  0.00  0.00    +0.000 C 
ATOM     36  C   UNL     1       1.219  -0.687  -0.206  0.00  0.00    +0.004 A 
ATOM     37  C   UNL     1      -0.019  -0.009  -0.166  0.00  0.00    +0.010 A 
ATOM     38  H   UNL     1       4.431  -0.400  -0.419  0.00  0.00    +0.160 HD
ENDBRANCH  27  35
ENDBRANCH  23  28
ENDBRANCH   1  24
TORSDOF 5
