REMARK  Name = ZINC02962929
REMARK  11 active torsions:
REMARK  status: ('A' for Active; 'I' for Inactive)
REMARK    1  A    between atoms: C_1  and  C_2
REMARK    2  A    between atoms: C_5  and  N_9
REMARK    3  A    between atoms: C_6  and  C_8
REMARK    4  A    between atoms: C_10  and  C_12
REMARK    5  A    between atoms: C_18  and  O_33
REMARK    6  A    between atoms: C_23  and  C_32
REMARK    7  A    between atoms: N_24  and  C_28
REMARK    8  A    between atoms: C_28  and  C_29
REMARK    9  A    between atoms: C_29  and  O_30
REMARK   10  A    between atoms: O_30  and  C_31
REMARK   11  A    between atoms: O_33  and  C_34
REMARK                            x       y       z     vdW  Elec       q    Type
REMARK                         _______ _______ _______ _____ _____    ______ ____
ROOT
ATOM      1  C   UNL     1      -0.008   1.073   0.001  0.00  0.00    +0.162 C 
ATOM      2  C   UNL     1      -0.760   1.573   1.245  0.00  0.00    +0.123 C 
ATOM      3  C   UNL     1      -0.913   3.074   1.136  0.00  0.00    +0.019 A 
ATOM      4  C   UNL     1      -1.098   3.812   2.290  0.00  0.00    +0.054 A 
ATOM      5  C   UNL     1      -1.258   5.187   2.218  0.00  0.00    +0.121 A 
ATOM      6  C   UNL     1      -1.231   5.821   0.985  0.00  0.00    +0.049 A 
ATOM      7  C   UNL     1      -1.042   5.084  -0.166  0.00  0.00    +0.049 A 
ATOM      8  C   UNL     1      -0.878   3.704  -0.095  0.00  0.00    +0.129 A 
ATOM      9  O   UNL     1      -0.685   3.014  -1.250  0.00  0.00    -0.467 OA
ATOM     10  C   UNL     1      -0.776   1.593  -1.224  0.00  0.00    +0.190 C 
ATOM     11  N   UNL     1      -2.168   1.161  -1.140  0.00  0.00    -0.272 N 
ATOM     12  C   UNL     1      -2.748   0.852   0.035  0.00  0.00    +0.136 C 
ATOM     13  S   UNL     1      -4.353   0.257   0.031  0.00  0.00    -0.019 S 
ATOM     14  N   UNL     1      -2.112   0.992   1.210  0.00  0.00    -0.318 N 
ATOM     15  C   UNL     1      -0.149   1.020  -2.496  0.00  0.00    +0.079 C 
ATOM     16  H   UNL     1      -2.599   0.674   2.144  0.00  0.00    +0.148 HD
ENDROOT
BRANCH   1  18
ATOM     17  N   UNL     1       2.243   1.307   0.999  0.00  0.00    -0.285 N 
ATOM     18  C   UNL     1       1.397   1.617  -0.004  0.00  0.00    +0.228 C 
ATOM     19  O   UNL     1       1.768   2.333  -0.910  0.00  0.00    -0.275 OA
ATOM     20  H   UNL     1       1.882   0.733   1.865  0.00  0.00    +0.155 HD
BRANCH  17  25
ATOM     21  C   UNL     1       7.664   2.962   0.750  0.00  0.00    +0.044 C 
ATOM     22  C   UNL     1       6.224   2.522   0.816  0.00  0.00    -0.050 A 
ATOM     23  C   UNL     1       5.495   2.368  -0.350  0.00  0.00    +0.005 A 
ATOM     24  C   UNL     1       4.177   1.960  -0.293  0.00  0.00    +0.024 A 
ATOM     25  C   UNL     1       3.580   1.715   0.937  0.00  0.00    +0.036 A 
ATOM     26  C   UNL     1       4.315   1.869   2.105  0.00  0.00    -0.029 A 
ATOM     27  C   UNL     1       5.635   2.272   2.041  0.00  0.00    +0.008 A 
ATOM     28  C   UNL     1       3.673   1.599   3.442  0.00  0.00    +0.045 C 
ENDBRANCH  17  25
ENDBRANCH   1  18
BRANCH   5  29
ATOM     29  O   UNL     1      -1.440   5.913   3.354  0.00  0.00    -0.495 OA
ATOM     30  C   UNL     1      -1.597   7.325   3.203  0.00  0.00    +0.277 C 
ENDBRANCH   5  29
BRANCH  11  31
ATOM     31  C   UNL     1      -2.956   1.063  -2.371  0.00  0.00    +0.138 C 
BRANCH  31  32
ATOM     32  C   UNL     1      -2.815  -0.344  -2.956  0.00  0.00    +0.178 C 
BRANCH  32  33
ATOM     33  O   UNL     1      -3.394  -1.293  -2.059  0.00  0.00    -0.381 OA
ATOM     34  C   UNL     1      -3.315  -2.646  -2.514  0.00  0.00    +0.194 C 
ENDBRANCH  32  33
ENDBRANCH  31  32
ENDBRANCH  11  31
TORSDOF 6
