REMARK  Name = ZINC21222917
REMARK  11 active torsions:
REMARK  status: ('A' for Active; 'I' for Inactive)
REMARK    1  A    between atoms: C_1  and  C_2
REMARK    2  A    between atoms: C_2  and  O_3
REMARK    3  A    between atoms: O_3  and  C_4
REMARK    4  A    between atoms: C_5  and  C_12
REMARK    5  A    between atoms: C_9  and  O_10
REMARK    6  A    between atoms: O_10  and  C_11
REMARK    7  A    between atoms: C_17  and  C_22
REMARK    8  A    between atoms: C_25  and  O_28
REMARK    9  A    between atoms: O_28  and  C_29
REMARK   10  A    between atoms: C_29  and  C_30
REMARK   11  A    between atoms: C_29  and  C_31
REMARK                            x       y       z     vdW  Elec       q    Type
REMARK                         _______ _______ _______ _____ _____    ______ ____
ROOT
ATOM      1  C   UNL     1       2.463  -1.543  -1.899  0.00  0.00    +0.140 C 
ATOM      2  C   UNL     1       2.427  -0.037  -2.006  0.00  0.00    +0.037 C 
ATOM      3  C   UNL     1       1.497   0.769  -1.468  0.00  0.00    +0.017 C 
ATOM      4  C   UNL     1       1.570   2.273  -1.676  0.00  0.00    +0.059 C 
ATOM      5  C   UNL     1       3.029   2.716  -1.764  0.00  0.00    +0.032 C 
ATOM      6  C   UNL     1       3.667   1.985  -2.952  0.00  0.00    +0.088 C 
ATOM      7  C   UNL     1       3.499   0.509  -2.751  0.00  0.00    +0.163 C 
ATOM      8  O   UNL     1       4.313  -0.246  -3.245  0.00  0.00    -0.292 OA
ATOM      9  N   UNL     1       0.443   0.351  -0.723  0.00  0.00    -0.316 N 
ATOM     10  C   UNL     1      -0.396  -0.705  -1.059  0.00  0.00    +0.052 A 
ATOM     11  C   UNL     1      -1.750  -0.529  -1.285  0.00  0.00    +0.025 A 
ATOM     12  C   UNL     1      -2.550  -1.637  -1.508  0.00  0.00    +0.002 A 
ATOM     13  C   UNL     1      -2.001  -2.906  -1.506  0.00  0.00    +0.002 A 
ATOM     14  C   UNL     1      -0.643  -3.082  -1.301  0.00  0.00    +0.025 A 
ATOM     15  C   UNL     1       0.164  -1.974  -1.095  0.00  0.00    +0.049 A 
ATOM     16  N   UNL     1       1.542  -2.097  -0.929  0.00  0.00    -0.331 N 
ATOM     17  H   UNL     1       0.202   0.858   0.223  0.00  0.00    +0.152 HD
ATOM     18  H   UNL     1       1.926  -2.626  -0.045  0.00  0.00    +0.147 HD
ENDROOT
BRANCH   1  20
ATOM     19  C   UNL     1       2.538  -3.416  -3.562  0.00  0.00    +0.167 A 
ATOM     20  C   UNL     1       2.139  -2.126  -3.250  0.00  0.00    +0.023 A 
ATOM     21  C   UNL     1       1.438  -1.376  -4.176  0.00  0.00    +0.009 A 
ATOM     22  C   UNL     1       1.143  -1.906  -5.418  0.00  0.00    +0.004 A 
ATOM     23  C   UNL     1       1.538  -3.192  -5.736  0.00  0.00    +0.049 A 
ATOM     24  C   UNL     1       2.236  -3.951  -4.810  0.00  0.00    +0.162 A 
BRANCH  24  25
ATOM     25  O   UNL     1       2.624  -5.217  -5.120  0.00  0.00    -0.491 OA
ATOM     26  C   UNL     1       2.280  -5.701  -6.420  0.00  0.00    +0.277 C 
ENDBRANCH  24  25
BRANCH  19  27
ATOM     27  O   UNL     1       3.222  -4.157  -2.649  0.00  0.00    -0.488 OA
BRANCH  27  29
ATOM     28  C   UNL     1       3.388  -5.758  -0.846  0.00  0.00    +0.048 C 
ATOM     29  C   UNL     1       2.458  -5.043  -1.829  0.00  0.00    +0.226 C 
ENDBRANCH  27  29
ENDBRANCH  19  27
ENDBRANCH   1  20
BRANCH   5  30
ATOM     30  C   UNL     1       3.099   4.205  -1.984  0.00  0.00    -0.043 A 
ATOM     31  C   UNL     1       2.521   4.765  -3.108  0.00  0.00    +0.007 A 
ATOM     32  C   UNL     1       2.579   6.131  -3.309  0.00  0.00    +0.046 A 
ATOM     33  C   UNL     1       3.227   6.939  -2.387  0.00  0.00    +0.121 A 
ATOM     34  C   UNL     1       3.811   6.375  -1.262  0.00  0.00    +0.046 A 
ATOM     35  C   UNL     1       3.746   5.009  -1.063  0.00  0.00    +0.007 A 
BRANCH  33  36
ATOM     36  O   UNL     1       3.290   8.282  -2.584  0.00  0.00    -0.489 OA
BRANCH  36  37
ATOM     37  C   UNL     1       3.875   9.065  -1.542  0.00  0.00    +0.167 C 
ATOM     38  C   UNL     1       5.395   9.082  -1.709  0.00  0.00    +0.051 C 
ATOM     39  C   UNL     1       3.337  10.496  -1.615  0.00  0.00    +0.051 C 
ENDBRANCH  36  37
ENDBRANCH  33  36
ENDBRANCH   5  30
TORSDOF 7
