REMARK  Name = ZINC66856330
REMARK  8 active torsions:
REMARK  status: ('A' for Active; 'I' for Inactive)
REMARK    1  A    between atoms: C_1  and  C_2
REMARK    2  A    between atoms: C_7  and  C_8
REMARK    3  A    between atoms: N_10  and  C_11
REMARK    4  A    between atoms: C_16  and  S_17
REMARK    5  A    between atoms: S_17  and  C_18
REMARK    6  A    between atoms: C_18  and  C_20
REMARK    7  A    between atoms: C_18  and  C_21
REMARK    8  A    between atoms: C_21  and  C_22
REMARK                            x       y       z     vdW  Elec       q    Type
REMARK                         _______ _______ _______ _____ _____    ______ ____
ROOT
ATOM      1  C   UNL     1       0.777  -0.640   2.585  0.00  0.00    +0.265 C 
ATOM      2  O   UNL     1       0.892   0.554   2.789  0.00  0.00    -0.268 OA
ATOM      3  N   UNL     1       0.471  -1.471   3.601  0.00  0.00    -0.279 N 
ATOM      4  H   UNL     1       0.303  -2.410   3.426  0.00  0.00    +0.155 HD
ENDROOT
BRANCH   1  11
ATOM      5  C   UNL     1       1.488   1.047   0.052  0.00  0.00    +0.047 C 
ATOM      6  C   UNL     1       1.281  -0.444   0.119  0.00  0.00    -0.010 A 
ATOM      7  C   UNL     1       1.376  -1.351  -0.943  0.00  0.00    +0.042 A 
ATOM      8  C   UNL     1       1.108  -2.624  -0.439  0.00  0.00    +0.027 A 
ATOM      9  N   UNL     1       0.864  -2.505   0.866  0.00  0.00    -0.354 N 
ATOM     10  H   UNL     1       0.651  -3.236   1.466  0.00  0.00    +0.166 HD
ATOM     11  C   UNL     1       0.970  -1.176   1.232  0.00  0.00    +0.106 A 
ATOM     12  C   UNL     1       1.113  -3.862  -1.299  0.00  0.00    +0.054 C 
ATOM     13  C   UNL     1       0.937  -3.459  -2.766  0.00  0.00    +0.014 C 
ATOM     14  C   UNL     1       1.970  -2.399  -3.163  0.00  0.00    +0.080 C 
ATOM     15  C   UNL     1       1.693  -1.135  -2.363  0.00  0.00    +0.165 C 
ATOM     16  O   UNL     1       1.730  -0.029  -2.861  0.00  0.00    -0.292 OA
ENDBRANCH   1  11
BRANCH   3  17
ATOM     17  C   UNL     1       0.397  -0.978   4.910  0.00  0.00    +0.047 A 
ATOM     18  C   UNL     1       1.006   0.224   5.236  0.00  0.00    +0.024 A 
ATOM     19  C   UNL     1       0.931   0.709   6.529  0.00  0.00    +0.002 A 
ATOM     20  C   UNL     1       0.250  -0.002   7.500  0.00  0.00    +0.001 A 
ATOM     21  C   UNL     1      -0.360  -1.202   7.185  0.00  0.00    +0.016 A 
ATOM     22  C   UNL     1      -0.295  -1.693   5.889  0.00  0.00    +0.029 A 
BRANCH  22  23
ATOM     23  S   UNL     1      -1.078  -3.218   5.481  0.00  0.00    -0.119 S 
BRANCH  23  24
ATOM     24  C   UNL     1      -1.667  -3.849   7.077  0.00  0.00    +0.062 C 
ATOM     25  C   UNL     1      -0.469  -4.244   7.942  0.00  0.00    +0.020 C 
BRANCH  24  26
ATOM     26  C   UNL     1      -2.555  -5.073   6.845  0.00  0.00    +0.132 C 
BRANCH  26  27
ATOM     27  C   UNL     1      -3.767  -4.669   6.115  0.00  0.00    +0.064 C 
ATOM     28  N   UNL     1      -4.703  -4.357   5.551  0.00  0.00    -0.197 NA
ENDBRANCH  26  27
ENDBRANCH  24  26
ENDBRANCH  23  24
ENDBRANCH  22  23
ENDBRANCH   3  17
TORSDOF 6
