REMARK  Name = ZINC06733515
REMARK  8 active torsions:
REMARK  status: ('A' for Active; 'I' for Inactive)
REMARK    1  A    between atoms: C_1  and  C_2
REMARK    2  A    between atoms: C_2  and  O_3
REMARK    3  A    between atoms: O_3  and  C_4
REMARK    4  A    between atoms: C_7  and  C_10
REMARK    5  A    between atoms: C_17  and  N_30
REMARK    6  A    between atoms: C_18  and  C_28
REMARK    7  A    between atoms: C_19  and  C_21
REMARK    8  A    between atoms: C_24  and  O_27
REMARK                            x       y       z     vdW  Elec       q    Type
REMARK                         _______ _______ _______ _____ _____    ______ ____
ROOT
ATOM      1  C   UNL     1       1.142  -6.036   1.762  0.00  0.00    +0.074 A 
ATOM      2  C   UNL     1       0.919  -6.742   2.897  0.00  0.00    +0.054 A 
ATOM      3  C   UNL     1       1.143  -8.104   2.615  0.00  0.00    +0.245 A 
ATOM      4  N   UNL     1       1.485  -8.213   1.363  0.00  0.00    -0.135 NA
ATOM      5  N   UNL     1       1.490  -6.931   0.790  0.00  0.00    -0.273 N 
ATOM      6  H   UNL     1       1.705  -6.719  -0.131  0.00  0.00    +0.189 HD
ATOM      7  O   UNL     1       1.001  -9.068   3.565  0.00  0.00    -0.421 OA
ATOM      8  C   UNL     1       0.905  -8.668   4.848  0.00  0.00    +0.201 C 
ATOM      9  C   UNL     1       0.680  -7.395   5.237  0.00  0.00    +0.098 C 
ATOM     10  C   UNL     1       0.505  -6.258   4.263  0.00  0.00    +0.102 C 
ENDROOT
BRANCH   1  14
ATOM     11  C   UNL     1       0.802  -1.824   1.306  0.00  0.00    +0.121 A 
ATOM     12  C   UNL     1       0.258  -2.670   0.349  0.00  0.00    +0.046 A 
ATOM     13  C   UNL     1       0.366  -4.037   0.493  0.00  0.00    +0.013 A 
ATOM     14  C   UNL     1       1.024  -4.570   1.603  0.00  0.00    +0.000 A 
ATOM     15  C   UNL     1       1.570  -3.716   2.562  0.00  0.00    +0.013 A 
ATOM     16  C   UNL     1       1.462  -2.350   2.408  0.00  0.00    +0.046 A 
BRANCH  11  17
ATOM     17  O   UNL     1       0.693  -0.477   1.160  0.00  0.00    -0.492 OA
BRANCH  17  19
ATOM     18  C   UNL     1      -0.019   1.526   0.010  0.00  0.00    +0.048 C 
ATOM     19  C   UNL     1       0.002  -0.004   0.002  0.00  0.00    +0.225 C 
ENDBRANCH  17  19
ENDBRANCH  11  17
ENDBRANCH   1  14
BRANCH  10  20
ATOM     20  C   UNL     1      -0.941  -5.832   4.234  0.00  0.00    -0.034 A 
ATOM     21  C   UNL     1      -1.923  -6.745   3.899  0.00  0.00    +0.008 A 
ATOM     22  C   UNL     1      -3.248  -6.356   3.871  0.00  0.00    +0.046 A 
ATOM     23  C   UNL     1      -3.593  -5.049   4.181  0.00  0.00    +0.117 A 
ATOM     24  C   UNL     1      -2.606  -4.134   4.517  0.00  0.00    +0.046 A 
ATOM     25  C   UNL     1      -1.282  -4.529   4.548  0.00  0.00    +0.008 A 
BRANCH  23  26
ATOM     26  O   UNL     1      -4.896  -4.664   4.154  0.00  0.00    -0.507 OA
ATOM     27  H   UNL     1      -5.357  -4.776   4.997  0.00  0.00    +0.292 HD
ENDBRANCH  23  26
ENDBRANCH  10  20
BRANCH   8  28
ATOM     28  N   UNL     1       1.045  -9.620   5.826  0.00  0.00    -0.328 N 
ATOM     29  H   UNL     1       1.207 -10.545   5.583  0.00  0.00    +0.145 HD
ATOM     30  H   UNL     1       0.981  -9.368   6.761  0.00  0.00    +0.145 HD
ENDBRANCH   8  28
BRANCH   9  31
ATOM     31  C   UNL     1       0.606  -7.112   6.639  0.00  0.00    +0.101 C 
ATOM     32  N   UNL     1       0.547  -6.888   7.751  0.00  0.00    -0.191 NA
ENDBRANCH   9  31
TORSDOF 7
