REMARK  Name = ZINC12876557
REMARK  6 active torsions:
REMARK  status: ('A' for Active; 'I' for Inactive)
REMARK    1  A    between atoms: C_1  and  C_2
REMARK    2  A    between atoms: C_2  and  C_4
REMARK    3  A    between atoms: C_2  and  N_51
REMARK    4  A    between atoms: N_6  and  C_7
REMARK    5  A    between atoms: C_17  and  C_20
REMARK    6  A    between atoms: N_22  and  C_23
REMARK                            x       y       z     vdW  Elec       q    Type
REMARK                         _______ _______ _______ _____ _____    ______ ____
ROOT
ATOM      1  C   UNL     1       4.634   8.291  -0.353  0.00  0.00    -0.077 C 
ATOM      2  C   UNL     1       3.314   7.518  -0.289  0.00  0.00    -0.006 C 
ATOM      3  C   UNL     1       3.611   6.018  -0.206  0.00  0.00    +0.072 C 
ATOM      4  C   UNL     1       4.486   5.744   1.020  0.00  0.00    -0.006 C 
ATOM      5  C   UNL     1       5.771   6.569   0.918  0.00  0.00    -0.077 C 
ATOM      6  N   UNL     1       5.418   8.004   0.867  0.00  0.00    +0.387 N 
ATOM      7  H   UNL     1       4.850   8.237   1.690  0.00  0.00    -0.081 HD
ENDROOT
BRANCH   3   8
ATOM      8  C   UNL     1       2.317   5.255  -0.083  0.00  0.00    +0.220 C 
ATOM      9  O   UNL     1       1.261   5.851  -0.064  0.00  0.00    -0.275 OA
ATOM     10  N   UNL     1       2.334   3.910   0.008  0.00  0.00    -0.285 N 
ATOM     11  H   UNL     1       3.179   3.439   0.079  0.00  0.00    +0.155 HD
BRANCH  10  12
ATOM     12  C   UNL     1       1.132   3.193   0.000  0.00  0.00    +0.033 A 
ATOM     13  C   UNL     1       0.008   3.727  -0.617  0.00  0.00    +0.023 A 
ATOM     14  C   UNL     1      -1.176   3.016  -0.623  0.00  0.00    +0.002 A 
ATOM     15  C   UNL     1      -1.245   1.778  -0.012  0.00  0.00    +0.000 A 
ATOM     16  C   UNL     1      -0.126   1.242   0.599  0.00  0.00    +0.002 A 
ATOM     17  C   UNL     1       1.061   1.947   0.609  0.00  0.00    +0.023 A 
ENDBRANCH  10  12
ENDBRANCH   3   8
BRANCH   6  19
ATOM     18  C   UNL     1       7.555   8.458  -0.291  0.00  0.00    -0.004 C 
ATOM     19  C   UNL     1       6.645   8.826   0.883  0.00  0.00    +0.016 C 
BRANCH  19  20
ATOM     20  C   UNL     1       7.375   8.587   2.179  0.00  0.00    +0.203 C 
ATOM     21  O   UNL     1       6.930   7.802   2.990  0.00  0.00    -0.277 OA
ATOM     22  N   UNL     1       8.523   9.245   2.438  0.00  0.00    -0.285 N 
ATOM     23  H   UNL     1       8.843   9.921   1.821  0.00  0.00    +0.155 HD
BRANCH  22  24
ATOM     24  C   UNL     1       9.253   8.951   3.597  0.00  0.00    +0.069 A 
ATOM     25  C   UNL     1       8.590   8.608   4.768  0.00  0.00    +0.029 A 
ATOM     26  C   UNL     1       9.311   8.319   5.910  0.00  0.00    +0.040 A 
ATOM     27  C   UNL     1      10.695   8.371   5.889  0.00  0.00    +0.126 A 
ATOM     28  C   UNL     1      11.360   8.713   4.724  0.00  0.00    +0.078 A 
ATOM     29  C   UNL     1      10.642   8.998   3.576  0.00  0.00    +0.147 A 
ATOM     30  F   UNL     1      11.290   9.325   2.437  0.00  0.00    -0.203 F 
ATOM     31  F   UNL     1      11.397   8.088   7.008  0.00  0.00    -0.205 F 
ENDBRANCH  22  24
ENDBRANCH  19  20
ENDBRANCH   6  19
TORSDOF 5
