REMARK  Name = ZINC12929070
REMARK  12 active torsions:
REMARK  status: ('A' for Active; 'I' for Inactive)
REMARK    1  A    between atoms: C_1  and  C_2
REMARK    2  A    between atoms: C_9  and  N_15
REMARK    3  A    between atoms: C_10  and  C_11
REMARK    4  A    between atoms: C_11  and  O_13
REMARK    5  A    between atoms: O_13  and  C_14
REMARK    6  A    between atoms: C_16  and  C_18
REMARK    7  A    between atoms: C_18  and  N_19
REMARK    8  A    between atoms: C_22  and  O_33
REMARK    9  A    between atoms: C_25  and  O_31
REMARK   10  A    between atoms: C_27  and  O_30
REMARK   11  A    between atoms: O_31  and  C_32
REMARK   12  A    between atoms: O_33  and  C_34
REMARK                            x       y       z     vdW  Elec       q    Type
REMARK                         _______ _______ _______ _____ _____    ______ ____
ROOT
ATOM      1  N   UNL     1       1.940  -5.826   1.701  0.00  0.00    -0.278 N 
ATOM      2  C   UNL     1       2.250  -6.085   2.987  0.00  0.00    +0.232 C 
ATOM      3  O   UNL     1       2.229  -5.192   3.808  0.00  0.00    -0.274 OA
ATOM      4  H   UNL     1       1.957  -6.540   1.045  0.00  0.00    +0.155 HD
ENDROOT
BRANCH   1  12
ATOM      5  C   UNL     1      -0.019   1.526   0.010  0.00  0.00    +0.008 C 
ATOM      6  C   UNL     1       0.002  -0.004   0.002  0.00  0.00    -0.009 C 
ATOM      7  C   UNL     1       0.724  -0.500  -1.254  0.00  0.00    +0.008 C 
ATOM      8  C   UNL     1       0.537  -2.012  -1.399  0.00  0.00    +0.037 C 
ATOM      9  C   UNL     1       0.935  -2.680  -0.091  0.00  0.00    -0.021 A 
ATOM     10  C   UNL     1       1.020  -1.977   1.059  0.00  0.00    -0.004 A 
ATOM     11  S   UNL     1       1.507  -3.164   2.276  0.00  0.00    -0.077 S 
ATOM     12  C   UNL     1       1.598  -4.539   1.316  0.00  0.00    +0.086 A 
ATOM     13  C   UNL     1       1.254  -4.091   0.050  0.00  0.00    +0.091 A 
ATOM     14  C   UNL     1       0.750  -0.515   1.242  0.00  0.00    +0.046 C 
BRANCH  13  15
ATOM     15  C   UNL     1       1.213  -5.001  -1.097  0.00  0.00    +0.342 C 
ATOM     16  O   UNL     1       2.208  -5.170  -1.774  0.00  0.00    -0.245 OA
BRANCH  15  17
ATOM     17  O   UNL     1       0.071  -5.651  -1.401  0.00  0.00    -0.464 OA
ATOM     18  C   UNL     1       0.103  -6.523  -2.533  0.00  0.00    +0.280 C 
ENDBRANCH  15  17
ENDBRANCH  13  15
ENDBRANCH   1  12
BRANCH   2  19
ATOM     19  C   UNL     1       2.621  -7.484   3.406  0.00  0.00    +0.181 C 
BRANCH  19  20
ATOM     20  N   UNL     1       2.912  -7.504   4.845  0.00  0.00    -0.287 NA
ATOM     21  C   UNL     1       1.703  -7.237   5.630  0.00  0.00    +0.124 C 
ATOM     22  C   UNL     1       1.992  -7.356   7.103  0.00  0.00    +0.017 A 
ATOM     23  C   UNL     1       1.095  -6.787   8.002  0.00  0.00    +0.125 A 
ATOM     24  C   UNL     1       1.320  -6.876   9.366  0.00  0.00    +0.049 A 
ATOM     25  C   UNL     1       2.439  -7.534   9.838  0.00  0.00    +0.049 A 
ATOM     26  C   UNL     1       3.333  -8.099   8.944  0.00  0.00    +0.126 A 
ATOM     27  C   UNL     1       3.110  -8.008   7.574  0.00  0.00    +0.032 A 
ATOM     28  C   UNL     1       4.116  -8.629   6.639  0.00  0.00    +0.162 C 
ATOM     29  C   UNL     1       3.505  -8.790   5.246  0.00  0.00    +0.121 C 
BRANCH  28  30
ATOM     30  O   UNL     1       4.498  -9.913   7.138  0.00  0.00    -0.386 OA
ATOM     31  H   UNL     1       5.145 -10.373   6.585  0.00  0.00    +0.210 HD
ENDBRANCH  28  30
BRANCH  26  32
ATOM     32  O   UNL     1       4.435  -8.747   9.408  0.00  0.00    -0.495 OA
ATOM     33  C   UNL     1       4.605  -8.805  10.826  0.00  0.00    +0.277 C 
ENDBRANCH  26  32
BRANCH  23  34
ATOM     34  O   UNL     1      -0.007  -6.139   7.540  0.00  0.00    -0.495 OA
ATOM     35  C   UNL     1      -0.887  -5.577   8.515  0.00  0.00    +0.277 C 
ENDBRANCH  23  34
ENDBRANCH  19  20
ENDBRANCH   2  19
TORSDOF 8
