REMARK  Name = ZINC36065695
REMARK  10 active torsions:
REMARK  status: ('A' for Active; 'I' for Inactive)
REMARK    1  A    between atoms: C_7  and  C_11
REMARK    2  A    between atoms: C_11  and  C_12
REMARK    3  A    between atoms: C_12  and  N_13
REMARK    4  A    between atoms: N_13  and  C_14
REMARK    5  A    between atoms: N_13  and  C_22
REMARK    6  A    between atoms: C_14  and  C_15
REMARK    7  A    between atoms: C_22  and  C_23
REMARK    8  A    between atoms: C_25  and  C_28
REMARK    9  A    between atoms: N_30  and  C_31
REMARK   10  A    between atoms: C_31  and  C_32
REMARK                            x       y       z     vdW  Elec       q    Type
REMARK                         _______ _______ _______ _____ _____    ______ ____
ROOT
ATOM      1  N   UNL     1      -0.370  -4.905  -1.250  0.00  0.00    +0.388 N 
ATOM      2  H   UNL     1      -0.116  -5.725  -0.720  0.00  0.00    -0.081 HD
ENDROOT
BRANCH   1   3
ATOM      3  C   UNL     1       0.578  -3.821  -0.959  0.00  0.00    -0.073 C 
BRANCH   3   4
ATOM      4  C   UNL     1       0.629  -3.580   0.551  0.00  0.00    +0.019 C 
BRANCH   4  11
ATOM      5  C   UNL     1       0.236   1.091   0.617  0.00  0.00    +0.001 A 
ATOM      6  C   UNL     1       1.421   1.728   0.956  0.00  0.00    +0.002 A 
ATOM      7  C   UNL     1       2.557   1.000   1.231  0.00  0.00    +0.026 A 
ATOM      8  C   UNL     1       2.519  -0.390   1.170  0.00  0.00    +0.047 A 
ATOM      9  C   UNL     1       1.315  -1.031   0.827  0.00  0.00    +0.003 A 
ATOM     10  C   UNL     1       0.175  -0.273   0.551  0.00  0.00    +0.010 A 
ATOM     11  C   UNL     1       1.601  -2.468   0.850  0.00  0.00    -0.024 A 
ATOM     12  C   UNL     1       2.892  -2.606   1.188  0.00  0.00    +0.087 A 
ATOM     13  N   UNL     1       3.457  -1.375   1.383  0.00  0.00    -0.360 N 
ATOM     14  H   UNL     1       4.381  -1.219   1.635  0.00  0.00    +0.165 HD
ENDBRANCH   4  11
ENDBRANCH   3   4
ENDBRANCH   1   3
BRANCH   1  15
ATOM     15  C   UNL     1      -1.727  -4.483  -0.878  0.00  0.00    -0.042 C 
BRANCH  15  16
ATOM     16  C   UNL     1      -2.678  -5.639  -1.050  0.00  0.00    -0.061 A 
ATOM     17  C   UNL     1      -3.409  -5.765  -2.216  0.00  0.00    +0.002 A 
ATOM     18  C   UNL     1      -4.282  -6.825  -2.376  0.00  0.00    +0.003 A 
ATOM     19  C   UNL     1      -4.424  -7.761  -1.369  0.00  0.00    +0.038 A 
ATOM     20  C   UNL     1      -3.692  -7.636  -0.200  0.00  0.00    +0.124 A 
ATOM     21  C   UNL     1      -2.814  -6.577  -0.044  0.00  0.00    +0.040 A 
ATOM     22  F   UNL     1      -3.830  -8.550   0.785  0.00  0.00    -0.205 F 
ENDBRANCH  15  16
ENDBRANCH   1  15
BRANCH   1  23
ATOM     23  C   UNL     1      -0.331  -5.218  -2.685  0.00  0.00    +0.019 C 
BRANCH  23  24
ATOM     24  C   UNL     1       1.026  -5.768  -3.042  0.00  0.00    +0.179 A 
ATOM     25  N   UNL     1       1.394  -7.007  -2.913  0.00  0.00    -0.210 NA
ATOM     26  C   UNL     1       2.681  -7.122  -3.337  0.00  0.00    +0.163 A 
ATOM     27  C   UNL     1       3.083  -5.884  -3.735  0.00  0.00    +0.230 A 
ATOM     28  O   UNL     1       2.043  -5.056  -3.550  0.00  0.00    -0.449 OA
BRANCH  26  29
ATOM     29  C   UNL     1       3.489  -8.355  -3.361  0.00  0.00    +0.266 C 
ATOM     30  O   UNL     1       4.662  -8.308  -3.678  0.00  0.00    -0.268 OA
ATOM     31  N   UNL     1       2.927  -9.535  -3.033  0.00  0.00    -0.306 N 
ATOM     32  H   UNL     1       1.974  -9.586  -2.857  0.00  0.00    +0.149 HD
BRANCH  31  33
ATOM     33  C   UNL     1       3.754 -10.741  -2.942  0.00  0.00    +0.140 C 
BRANCH  33  34
ATOM     34  C   UNL     1       2.890 -11.916  -2.562  0.00  0.00    -0.030 A 
ATOM     35  C   UNL     1       2.692 -12.225  -1.230  0.00  0.00    +0.008 A 
ATOM     36  C   UNL     1       1.899 -13.302  -0.880  0.00  0.00    +0.038 A 
ATOM     37  C   UNL     1       1.304 -14.071  -1.865  0.00  0.00    +0.123 A 
ATOM     38  C   UNL     1       1.504 -13.761  -3.200  0.00  0.00    +0.038 A 
ATOM     39  C   UNL     1       2.292 -12.680  -3.547  0.00  0.00    +0.008 A 
ATOM     40  F   UNL     1       0.530 -15.124  -1.525  0.00  0.00    -0.205 F 
ENDBRANCH  33  34
ENDBRANCH  31  33
ENDBRANCH  26  29
ENDBRANCH  23  24
ENDBRANCH   1  23
TORSDOF 10
