REMARK  Name = ZINC63375956
REMARK  7 active torsions:
REMARK  status: ('A' for Active; 'I' for Inactive)
REMARK    1  A    between atoms: C_1  and  C_2
REMARK    2  A    between atoms: C_2  and  C_3
REMARK    3  A    between atoms: C_3  and  C_5
REMARK    4  A    between atoms: C_3  and  N_6
REMARK    5  A    between atoms: C_7  and  C_9
REMARK    6  A    between atoms: C_14  and  N_15
REMARK    7  A    between atoms: C_31  and  C_36
REMARK                            x       y       z     vdW  Elec       q    Type
REMARK                         _______ _______ _______ _____ _____    ______ ____
ROOT
ATOM      1  N   UNL     1       4.363   0.373  -4.726  0.00  0.00    -0.192 N 
ATOM      2  C   UNL     1       3.729   1.317  -5.452  0.00  0.00    +0.248 C 
ATOM      3  O   UNL     1       3.562   2.481  -5.154  0.00  0.00    -0.273 OA
ATOM      4  C   UNL     1       3.271   0.623  -6.716  0.00  0.00    +0.169 C 
ATOM      5  C   UNL     1       1.740   0.717  -6.839  0.00  0.00    +0.065 C 
ATOM      6  C   UNL     1       1.307  -0.444  -7.702  0.00  0.00    -0.034 C 
ATOM      7  C   UNL     1       0.095  -0.896  -8.002  0.00  0.00    -0.001 A 
ATOM      8  C   UNL     1      -1.247  -0.383  -7.682  0.00  0.00    +0.010 A 
ATOM      9  C   UNL     1      -2.295  -1.117  -8.143  0.00  0.00    +0.001 A 
ATOM     10  C   UNL     1      -2.143  -2.295  -8.880  0.00  0.00    +0.002 A 
ATOM     11  C   UNL     1      -0.947  -2.836  -9.225  0.00  0.00    +0.026 A 
ATOM     12  C   UNL     1       0.229  -2.151  -8.802  0.00  0.00    +0.043 A 
ATOM     13  N   UNL     1       1.483  -2.429  -9.004  0.00  0.00    -0.375 N 
ATOM     14  C   UNL     1       2.295  -1.366  -8.408  0.00  0.00    +0.131 C 
ATOM     15  C   UNL     1       3.243  -1.917  -7.335  0.00  0.00    +0.135 C 
ATOM     16  N   UNL     1       3.646  -0.787  -6.481  0.00  0.00    -0.264 N 
ATOM     17  C   UNL     1       4.340  -0.819  -5.337  0.00  0.00    +0.317 C 
ATOM     18  O   UNL     1       4.884  -1.815  -4.901  0.00  0.00    -0.252 OA
ATOM     19  H   UNL     1       1.823  -3.209  -9.470  0.00  0.00    +0.160 HD
ENDROOT
BRANCH  15  20
ATOM     20  C   UNL     1       2.541  -2.974  -6.523  0.00  0.00    -0.025 A 
ATOM     21  C   UNL     1       1.670  -2.605  -5.514  0.00  0.00    +0.008 A 
ATOM     22  C   UNL     1       1.025  -3.573  -4.769  0.00  0.00    +0.038 A 
ATOM     23  C   UNL     1       1.251  -4.914  -5.032  0.00  0.00    +0.123 A 
ATOM     24  C   UNL     1       2.123  -5.282  -6.043  0.00  0.00    +0.038 A 
ATOM     25  C   UNL     1       2.763  -4.312  -6.790  0.00  0.00    +0.008 A 
ATOM     26  F   UNL     1       0.621  -5.861  -4.304  0.00  0.00    -0.205 F 
ENDBRANCH  15  20
BRANCH   1  32
ATOM     27  C   UNL     1       4.241   0.461  -2.305  0.00  0.00    +0.059 A 
ATOM     28  C   UNL     1       4.863   0.696  -1.077  0.00  0.00    +0.015 A 
ATOM     29  C   UNL     1       6.187   1.078  -1.039  0.00  0.00    +0.001 A 
ATOM     30  C   UNL     1       6.905   1.230  -2.214  0.00  0.00    +0.002 A 
ATOM     31  C   UNL     1       6.303   1.001  -3.435  0.00  0.00    +0.025 A 
ATOM     32  C   UNL     1       4.972   0.611  -3.492  0.00  0.00    +0.058 A 
BRANCH  27  34
ATOM     33  N   UNL     1       2.125  -0.091  -1.209  0.00  0.00    -0.309 N 
ATOM     34  C   UNL     1       2.824   0.051  -2.353  0.00  0.00    +0.246 C 
ATOM     35  O   UNL     1       2.287  -0.157  -3.424  0.00  0.00    -0.270 OA
ATOM     36  H   UNL     1       2.553   0.075  -0.355  0.00  0.00    +0.149 HD
BRANCH  33  37
ATOM     37  C   UNL     1       0.718  -0.497  -1.257  0.00  0.00    +0.070 C 
ATOM     38  C   UNL     1       0.630  -2.023  -1.329  0.00  0.00    +0.028 C 
BRANCH  37  40
ATOM     39  C   UNL     1      -0.019   1.526   0.010  0.00  0.00    +0.005 C 
ATOM     40  C   UNL     1       0.002  -0.004   0.002  0.00  0.00    +0.018 C 
ENDBRANCH  37  40
ENDBRANCH  33  37
ENDBRANCH  27  34
ENDBRANCH   1  32
TORSDOF 5
