REMARK  Name = ZINC20813008
REMARK  9 active torsions:
REMARK  status: ('A' for Active; 'I' for Inactive)
REMARK    1  A    between atoms: C_1  and  C_2
REMARK    2  A    between atoms: C_2  and  C_3
REMARK    3  A    between atoms: C_8  and  N_9
REMARK    4  A    between atoms: C_10  and  C_12
REMARK    5  A    between atoms: C_12  and  N_13
REMARK    6  A    between atoms: N_16  and  C_19
REMARK    7  A    between atoms: C_19  and  C_21
REMARK    8  A    between atoms: C_19  and  C_22
REMARK    9  A    between atoms: N_27  and  C_28
REMARK                            x       y       z     vdW  Elec       q    Type
REMARK                         _______ _______ _______ _____ _____    ______ ____
ROOT
ATOM      1  N   UNL     1       2.674   0.531   1.214  0.00  0.00    +0.387 N 
ATOM      2  C   UNL     1       3.898   1.216   1.651  0.00  0.00    -0.063 C 
ATOM      3  C   UNL     1       5.017   0.188   1.835  0.00  0.00    +0.066 C 
ATOM      4  N   UNL     1       5.239  -0.522   0.568  0.00  0.00    -0.295 NA
ATOM      5  C   UNL     1       4.015  -1.208   0.130  0.00  0.00    +0.066 C 
ATOM      6  C   UNL     1       2.896  -0.180  -0.053  0.00  0.00    -0.063 C 
ATOM      7  H   UNL     1       2.409  -0.214   1.979  0.00  0.00    -0.081 HD
ENDROOT
BRANCH   4   8
ATOM      8  C   UNL     1       6.358  -1.466   0.682  0.00  0.00    +0.140 C 
ATOM      9  C   UNL     1       7.632  -0.704   1.053  0.00  0.00    +0.034 C 
BRANCH   8  10
ATOM     10  C   UNL     1       6.051  -2.482   1.753  0.00  0.00    +0.237 C 
ATOM     11  O   UNL     1       5.005  -2.422   2.363  0.00  0.00    -0.274 OA
ATOM     12  N   UNL     1       6.939  -3.457   2.032  0.00  0.00    -0.239 N 
ATOM     13  C   UNL     1       6.665  -4.365   2.989  0.00  0.00    +0.306 C 
ATOM     14  O   UNL     1       5.616  -4.305   3.600  0.00  0.00    -0.252 OA
ATOM     15  N   UNL     1       7.553  -5.340   3.268  0.00  0.00    -0.294 N 
ATOM     16  H   UNL     1       7.888  -3.511   1.478  0.00  0.00    +0.159 HD
ATOM     17  H   UNL     1       8.502  -5.394   2.714  0.00  0.00    +0.151 HD
BRANCH  15  18
ATOM     18  C   UNL     1       7.254  -6.327   4.308  0.00  0.00    +0.037 C 
ATOM     19  C   UNL     1       7.056  -5.613   5.647  0.00  0.00    +0.029 C 
ATOM     20  C   UNL     1       6.744  -6.644   6.733  0.00  0.00    -0.008 C 
ATOM     21  C   UNL     1       7.907  -7.631   6.848  0.00  0.00    +0.007 C 
ATOM     22  C   UNL     1       8.105  -8.345   5.510  0.00  0.00    -0.008 C 
ATOM     23  C   UNL     1       8.417  -7.314   4.423  0.00  0.00    +0.029 C 
ATOM     24  C   UNL     1       6.828  -9.103   5.142  0.00  0.00    +0.007 C 
ATOM     25  C   UNL     1       5.665  -8.116   5.027  0.00  0.00    -0.008 C 
ATOM     26  C   UNL     1       5.467  -7.402   6.365  0.00  0.00    +0.007 C 
ATOM     27  C   UNL     1       5.977  -7.085   3.940  0.00  0.00    +0.029 C 
ENDBRANCH  15  18
ENDBRANCH   8  10
ENDBRANCH   4   8
BRANCH   1  28
ATOM     28  C   UNL     1       1.554   1.475   1.099  0.00  0.00    +0.019 C 
BRANCH  28  30
ATOM     29  N   UNL     1       0.189   2.883   2.606  0.00  0.00    -0.287 N 
ATOM     30  C   UNL     1       1.198   2.001   2.466  0.00  0.00    +0.201 C 
ATOM     31  O   UNL     1       1.816   1.625   3.439  0.00  0.00    -0.278 OA
ATOM     32  H   UNL     1      -0.320   3.283   1.717  0.00  0.00    +0.155 HD
BRANCH  29  38
ATOM     33  C   UNL     1      -0.682   4.581   4.086  0.00  0.00    -0.026 A 
ATOM     34  C   UNL     1      -1.076   4.981   5.348  0.00  0.00    +0.005 A 
ATOM     35  C   UNL     1      -1.002   4.097   6.409  0.00  0.00    +0.000 A 
ATOM     36  C   UNL     1      -0.532   2.811   6.211  0.00  0.00    +0.002 A 
ATOM     37  C   UNL     1      -0.141   2.405   4.951  0.00  0.00    +0.023 A 
ATOM     38  C   UNL     1      -0.210   3.291   3.884  0.00  0.00    +0.036 A 
BRANCH  33  40
ATOM     39  C   UNL     1      -2.085   5.336   2.186  0.00  0.00    +0.009 C 
ATOM     40  C   UNL     1      -0.764   5.544   2.930  0.00  0.00    +0.033 C 
ENDBRANCH  33  40
ENDBRANCH  29  38
ENDBRANCH  28  30
ENDBRANCH   1  28
TORSDOF 7
