REMARK  Name = ZINC35149504
REMARK  6 active torsions:
REMARK  status: ('A' for Active; 'I' for Inactive)
REMARK    1  A    between atoms: C_1  and  C_2
REMARK    2  A    between atoms: C_3  and  S_9
REMARK    3  A    between atoms: C_4  and  C_8
REMARK    4  A    between atoms: S_9  and  N_12
REMARK    5  A    between atoms: C_15  and  C_18
REMARK    6  A    between atoms: N_20  and  C_21
REMARK                            x       y       z     vdW  Elec       q    Type
REMARK                         _______ _______ _______ _____ _____    ______ ____
ROOT
ATOM      1  S   UNL     1      -0.008  -0.247  -2.770  0.00  0.00    +0.064 S 
ATOM      2  O   UNL     1      -0.548  -1.312  -3.541  0.00  0.00    -0.153 OA
ATOM      3  O   UNL     1      -0.578   1.055  -2.765  0.00  0.00    -0.153 OA
ENDROOT
BRANCH   1   6
ATOM      4  C   UNL     1      -0.018   1.503   0.010  0.00  0.00    +0.067 C 
ATOM      5  C   UNL     1       0.002  -0.004   0.002  0.00  0.00    +0.060 A 
ATOM      6  C   UNL     1       0.008  -0.796  -1.095  0.00  0.00    +0.148 A 
ATOM      7  C   UNL     1       0.028  -2.127  -0.666  0.00  0.00    +0.086 A 
ATOM      8  N   UNL     1       0.035  -2.134   0.643  0.00  0.00    -0.177 NA
ATOM      9  N   UNL     1       0.024  -0.805   1.088  0.00  0.00    -0.280 N 
ATOM     10  H   UNL     1       0.029  -0.513   2.013  0.00  0.00    +0.189 HD
ATOM     11  C   UNL     1       0.040  -3.343  -1.556  0.00  0.00    +0.069 C 
ENDBRANCH   1   6
BRANCH   1  12
ATOM     12  N   UNL     1       1.569  -0.072  -3.243  0.00  0.00    -0.176 NA
ATOM     13  C   UNL     1       2.269   1.206  -3.057  0.00  0.00    +0.110 C 
ATOM     14  C   UNL     1       2.859   1.645  -4.401  0.00  0.00    +0.030 C 
ATOM     15  C   UNL     1       3.737   0.523  -4.959  0.00  0.00    +0.077 C 
ATOM     16  C   UNL     1       2.885  -0.727  -5.191  0.00  0.00    +0.030 C 
ATOM     17  C   UNL     1       2.297  -1.194  -3.850  0.00  0.00    +0.110 C 
BRANCH  15  18
ATOM     18  C   UNL     1       4.346   0.964  -6.265  0.00  0.00    +0.216 C 
ATOM     19  O   UNL     1       4.102   2.067  -6.706  0.00  0.00    -0.276 OA
ATOM     20  N   UNL     1       5.163   0.133  -6.942  0.00  0.00    -0.318 N 
ATOM     21  C   UNL     1       5.755   0.562  -8.212  0.00  0.00    +0.128 C 
ATOM     22  H   UNL     1       5.358  -0.749  -6.590  0.00  0.00    +0.148 HD
ENDBRANCH  15  18
ENDBRANCH   1  12
TORSDOF 3
