REMARK  Name = ZINC39668944
REMARK  4 active torsions:
REMARK  status: ('A' for Active; 'I' for Inactive)
REMARK    1  A    between atoms: C_10  and  C_12
REMARK    2  A    between atoms: C_12  and  N_13
REMARK    3  A    between atoms: C_14  and  C_16
REMARK    4  A    between atoms: C_27  and  C_29
REMARK                            x       y       z     vdW  Elec       q    Type
REMARK                         _______ _______ _______ _____ _____    ______ ____
ROOT
ATOM      1  C   UNL     1       7.968  -0.961   2.034  0.00  0.00    +0.100 C 
ATOM      2  C   UNL     1       8.171  -2.474   2.272  0.00  0.00    +0.121 C 
ATOM      3  N   UNL     1       9.503  -2.577   2.912  0.00  0.00    -0.296 N 
ATOM      4  C   UNL     1       9.558  -1.421   3.838  0.00  0.00    +0.115 C 
ATOM      5  C   UNL     1       8.880  -0.273   3.064  0.00  0.00    -0.004 C 
ATOM      6  C   UNL     1       9.929   0.578   2.356  0.00  0.00    -0.010 C 
ATOM      7  C   UNL     1      10.787   1.296   3.401  0.00  0.00    -0.082 C 
ATOM      8  N   UNL     1       9.931   2.140   4.244  0.00  0.00    +0.379 N 
ATOM      9  C   UNL     1       8.985   1.304   4.992  0.00  0.00    -0.082 C 
ATOM     10  C   UNL     1       8.050   0.586   4.014  0.00  0.00    -0.010 C 
ATOM     11  C   UNL     1      10.451  -3.511   2.700  0.00  0.00    +0.247 C 
ATOM     12  O   UNL     1      10.311  -4.328   1.811  0.00  0.00    -0.270 OA
ATOM     13  H   UNL     1      10.505   2.658   4.892  0.00  0.00    -0.086 HD
ATOM     14  H   UNL     1       9.419   2.785   3.661  0.00  0.00    -0.086 HD
ENDROOT
BRANCH  11  15
ATOM     15  C   UNL     1      11.662  -3.541   3.548  0.00  0.00    +0.040 A 
ATOM     16  C   UNL     1      11.655  -2.928   4.801  0.00  0.00    +0.033 A 
ATOM     17  C   UNL     1      12.788  -2.960   5.589  0.00  0.00    +0.043 A 
ATOM     18  C   UNL     1      13.931  -3.598   5.138  0.00  0.00    +0.040 A 
ATOM     19  C   UNL     1      13.944  -4.208   3.895  0.00  0.00    +0.043 A 
ATOM     20  C   UNL     1      12.815  -4.189   3.101  0.00  0.00    +0.033 A 
ATOM     21 CL   UNL     1      15.382  -5.005   3.337  0.00  0.00    -0.083 Cl
ATOM     22 CL   UNL     1      12.781  -2.197   7.149  0.00  0.00    -0.083 Cl
ENDBRANCH  11  15
BRANCH   1  24
ATOM     23  N   UNL     1       5.982   0.446   1.589  0.00  0.00    -0.312 N 
ATOM     24  C   UNL     1       6.529  -0.581   2.270  0.00  0.00    +0.218 C 
ATOM     25  O   UNL     1       5.862  -1.198   3.073  0.00  0.00    -0.275 OA
ATOM     26  H   UNL     1       6.516   0.940   0.946  0.00  0.00    +0.149 HD
BRANCH  23  27
ATOM     27  C   UNL     1       4.584   0.816   1.818  0.00  0.00    +0.140 C 
BRANCH  27  37
ATOM     28  C   UNL     1       0.268   3.302   1.924  0.00  0.00    +0.000 A 
ATOM     29  C   UNL     1       1.172   2.978   2.919  0.00  0.00    +0.000 A 
ATOM     30  C   UNL     1       2.443   2.558   2.583  0.00  0.00    +0.006 A 
ATOM     31  C   UNL     1       2.818   2.459   1.252  0.00  0.00    -0.014 A 
ATOM     32  C   UNL     1       1.915   2.779   0.260  0.00  0.00    -0.040 A 
ATOM     33  C   UNL     1       0.640   3.203   0.598  0.00  0.00    +0.004 A 
ATOM     34  C   UNL     1       2.281   2.671  -1.198  0.00  0.00    +0.063 C 
ATOM     35  C   UNL     1       3.802   2.602  -1.346  0.00  0.00    +0.165 C 
ATOM     36  O   UNL     1       4.302   1.609  -0.443  0.00  0.00    -0.370 OA
ATOM     37  C   UNL     1       4.217   2.003   0.926  0.00  0.00    +0.165 C 
ENDBRANCH  27  37
ENDBRANCH  23  27
ENDBRANCH   1  24
TORSDOF 4
