REMARK  Name = ZINC39699256
REMARK  13 active torsions:
REMARK  status: ('A' for Active; 'I' for Inactive)
REMARK    1  A    between atoms: C_1  and  C_2
REMARK    2  A    between atoms: C_7  and  C_14
REMARK    3  A    between atoms: C_14  and  C_16
REMARK    4  A    between atoms: C_14  and  N_25
REMARK    5  A    between atoms: N_20  and  C_21
REMARK    6  A    between atoms: C_21  and  C_22
REMARK    7  A    between atoms: C_22  and  O_23
REMARK    8  A    between atoms: O_23  and  C_24
REMARK    9  A    between atoms: N_25  and  C_26
REMARK   10  A    between atoms: N_25  and  C_34
REMARK   11  A    between atoms: C_26  and  C_27
REMARK   12  A    between atoms: C_27  and  C_28
REMARK   13  A    between atoms: C_34  and  C_35
REMARK                            x       y       z     vdW  Elec       q    Type
REMARK                         _______ _______ _______ _____ _____    ______ ____
ROOT
ATOM      1  C   UNL     1      -1.511  -5.452   1.594  0.00  0.00    +0.142 C 
ENDROOT
BRANCH   1   8
ATOM      2  C   UNL     1      -2.055   2.021   1.853  0.00  0.00    +0.044 C 
ATOM      3  C   UNL     1      -1.706   0.591   1.531  0.00  0.00    -0.049 A 
ATOM      4  C   UNL     1      -1.601   0.212   0.193  0.00  0.00    +0.004 A 
ATOM      5  C   UNL     1      -1.289  -1.062  -0.160  0.00  0.00    +0.010 A 
ATOM      6  C   UNL     1      -1.059  -2.050   0.895  0.00  0.00    -0.007 A 
ATOM      7  C   UNL     1      -0.743  -3.340   0.589  0.00  0.00    -0.003 C 
ATOM      8  C   UNL     1      -0.522  -4.295   1.745  0.00  0.00    +0.123 C 
ATOM      9  C   UNL     1      -0.670  -3.739   3.143  0.00  0.00    +0.226 C 
ATOM     10  O   UNL     1      -0.504  -4.461   4.108  0.00  0.00    -0.275 OA
ATOM     11  N   UNL     1      -0.981  -2.465   3.314  0.00  0.00    -0.284 N 
ATOM     12  C   UNL     1      -1.176  -1.622   2.300  0.00  0.00    +0.041 A 
ATOM     13  C   UNL     1      -1.500  -0.277   2.557  0.00  0.00    +0.027 A 
ATOM     14  H   UNL     1      -1.071  -2.128   4.219  0.00  0.00    +0.155 HD
ENDBRANCH   1   8
BRANCH   1  15
ATOM     15  C   UNL     1      -2.920  -4.916   1.621  0.00  0.00    +0.170 A 
ATOM     16  N   UNL     1      -3.575  -4.492   2.673  0.00  0.00    -0.112 NA
ATOM     17  N   UNL     1      -4.745  -4.115   2.288  0.00  0.00    -0.023 NA
ATOM     18  N   UNL     1      -4.853  -4.287   1.017  0.00  0.00    -0.044 NA
ATOM     19  N   UNL     1      -3.746  -4.775   0.568  0.00  0.00    -0.225 N 
BRANCH  19  20
ATOM     20  C   UNL     1      -3.446  -5.114  -0.826  0.00  0.00    +0.175 C 
BRANCH  20  21
ATOM     21  C   UNL     1      -3.846  -6.566  -1.095  0.00  0.00    +0.183 C 
BRANCH  21  22
ATOM     22  O   UNL     1      -3.553  -6.896  -2.454  0.00  0.00    -0.381 OA
ATOM     23  C   UNL     1      -3.890  -8.238  -2.811  0.00  0.00    +0.194 C 
ENDBRANCH  21  22
ENDBRANCH  20  21
ENDBRANCH  19  20
ENDBRANCH   1  15
BRANCH   1  24
ATOM     24  N   UNL     1      -1.327  -6.402   2.699  0.00  0.00    -0.287 NA
BRANCH  24  25
ATOM     25  C   UNL     1      -2.263  -7.529   2.587  0.00  0.00    +0.090 C 
BRANCH  25  26
ATOM     26  C   UNL     1      -2.296  -8.298   3.909  0.00  0.00    +0.050 C 
BRANCH  26  27
ATOM     27  C   UNL     1      -3.346  -9.376   3.836  0.00  0.00    -0.046 A 
ATOM     28  C   UNL     1      -4.645  -9.103   4.223  0.00  0.00    +0.003 A 
ATOM     29  C   UNL     1      -5.609 -10.092   4.157  0.00  0.00    +0.000 A 
ATOM     30  C   UNL     1      -5.274 -11.354   3.703  0.00  0.00    +0.000 A 
ATOM     31  C   UNL     1      -3.975 -11.627   3.316  0.00  0.00    +0.000 A 
ATOM     32  C   UNL     1      -3.013 -10.637   3.378  0.00  0.00    +0.003 A 
ENDBRANCH  26  27
ENDBRANCH  25  26
ENDBRANCH  24  25
BRANCH  24  33
ATOM     33  C   UNL     1       0.062  -6.875   2.761  0.00  0.00    +0.127 C 
BRANCH  33  34
ATOM     34  C   UNL     1       0.394  -7.627   1.498  0.00  0.00    +0.004 A 
ATOM     35  C   UNL     1       0.882  -7.153   0.326  0.00  0.00    +0.012 A 
ATOM     36  C   UNL     1       1.114  -8.038  -0.710  0.00  0.00    +0.008 A 
ATOM     37  C   UNL     1       0.846  -9.353  -0.524  0.00  0.00    +0.045 A 
ATOM     38  S   UNL     1       0.252  -9.374   1.160  0.00  0.00    -0.100 S 
ENDBRANCH  33  34
ENDBRANCH  24  33
ENDBRANCH   1  24
TORSDOF 11
