REMARK  Name = ZINC06199024
REMARK  8 active torsions:
REMARK  status: ('A' for Active; 'I' for Inactive)
REMARK    1  A    between atoms: C_1  and  C_2
REMARK    2  A    between atoms: C_5  and  S_8
REMARK    3  A    between atoms: S_8  and  N_11
REMARK    4  A    between atoms: N_11  and  C_12
REMARK    5  A    between atoms: C_24  and  S_26
REMARK    6  A    between atoms: S_26  and  C_27
REMARK    7  A    between atoms: C_30  and  C_33
REMARK    8  A    between atoms: N_31  and  N_32
REMARK                            x       y       z     vdW  Elec       q    Type
REMARK                         _______ _______ _______ _____ _____    ______ ____
ROOT
ATOM      1  C   UNL     1      -2.383   1.329   0.238  0.00  0.00    +0.125 C 
ATOM      2  C   UNL     1      -1.026   1.983   0.326  0.00  0.00    -0.019 A 
ATOM      3  C   UNL     1       0.236   1.538   0.579  0.00  0.00    +0.006 A 
ATOM      4  C   UNL     1       1.311   2.429   0.582  0.00  0.00    +0.001 A 
ATOM      5  C   UNL     1       1.154   3.764   0.342  0.00  0.00    +0.008 A 
ATOM      6  C   UNL     1      -0.135   4.258   0.082  0.00  0.00    -0.017 A 
ATOM      7  C   UNL     1      -1.202   3.341   0.084  0.00  0.00    -0.009 A 
ATOM      8  C   UNL     1      -2.518   3.720  -0.161  0.00  0.00    -0.024 A 
ATOM      9  C   UNL     1      -2.768   5.034  -0.412  0.00  0.00    +0.005 A 
ATOM     10  C   UNL     1      -1.724   5.962  -0.419  0.00  0.00    +0.001 A 
ATOM     11  C   UNL     1      -0.429   5.606  -0.180  0.00  0.00    +0.008 A 
ATOM     12  C   UNL     1      -3.369   2.476  -0.075  0.00  0.00    +0.108 C 
ENDROOT
BRANCH   1  13
ATOM     13  N   UNL     1      -2.732   0.711   1.519  0.00  0.00    -0.181 NA
ATOM     14  H   UNL     1      -2.716   1.239   2.333  0.00  0.00    +0.149 HD
BRANCH  13  15
ATOM     15  S   UNL     1      -3.155  -0.889   1.579  0.00  0.00    +0.059 S 
ATOM     16  O   UNL     1      -3.356  -1.205   2.950  0.00  0.00    -0.153 OA
ATOM     17  O   UNL     1      -4.165  -1.079   0.598  0.00  0.00    -0.153 OA
BRANCH  15  22
ATOM     18  C   UNL     1       1.638  -4.070  -0.241  0.00  0.00    +0.044 C 
ATOM     19  C   UNL     1       0.441  -3.276   0.214  0.00  0.00    -0.050 A 
ATOM     20  C   UNL     1       0.231  -3.052   1.562  0.00  0.00    +0.005 A 
ATOM     21  C   UNL     1      -0.867  -2.323   1.979  0.00  0.00    +0.029 A 
ATOM     22  C   UNL     1      -1.756  -1.818   1.048  0.00  0.00    +0.105 A 
ATOM     23  C   UNL     1      -1.548  -2.046  -0.300  0.00  0.00    +0.029 A 
ATOM     24  C   UNL     1      -0.448  -2.771  -0.717  0.00  0.00    +0.005 A 
ENDBRANCH  15  22
ENDBRANCH  13  15
ENDBRANCH   1  13
BRANCH  12  25
ATOM     25  S   UNL     1      -4.593   2.643   1.247  0.00  0.00    -0.076 S 
BRANCH  25  26
ATOM     26  C   UNL     1      -5.709   3.776   0.488  0.00  0.00    +0.187 A 
ATOM     27  N   UNL     1      -5.635   4.217  -0.746  0.00  0.00    -0.228 NA
ATOM     28  C   UNL     1      -6.654   5.062  -0.978  0.00  0.00    +0.145 A 
ATOM     29  C   UNL     1      -7.385   5.162   0.145  0.00  0.00    +0.161 A 
ATOM     30  N   UNL     1      -6.792   4.348   1.084  0.00  0.00    -0.239 N 
BRANCH  29  31
ATOM     31  C   UNL     1      -8.618   6.005   0.341  0.00  0.00    +0.436 C 
ATOM     32  F   UNL     1      -8.248   7.274   0.800  0.00  0.00    -0.164 F 
ATOM     33  F   UNL     1      -9.296   6.129  -0.877  0.00  0.00    -0.164 F 
ATOM     34  F   UNL     1      -9.456   5.395   1.281  0.00  0.00    -0.164 F 
ENDBRANCH  29  31
BRANCH  30  35
ATOM     35  N   UNL     1      -7.210   4.151   2.369  0.00  0.00    -0.296 N 
ATOM     36  H   UNL     1      -6.783   4.818   2.994  0.00  0.00    +0.163 HD
ATOM     37  H   UNL     1      -8.216   4.188   2.432  0.00  0.00    +0.163 HD
ENDBRANCH  30  35
ENDBRANCH  25  26
ENDBRANCH  12  25
TORSDOF 7
