REMARK  Name = ZINC15619336
REMARK  6 active torsions:
REMARK  status: ('A' for Active; 'I' for Inactive)
REMARK    1  A    between atoms: C_1  and  C_2
REMARK    2  A    between atoms: C_7  and  N_8
REMARK    3  A    between atoms: C_9  and  C_11
REMARK    4  A    between atoms: C_11  and  N_12
REMARK    5  A    between atoms: C_13  and  C_15
REMARK    6  A    between atoms: C_15  and  C_16
REMARK                            x       y       z     vdW  Elec       q    Type
REMARK                         _______ _______ _______ _____ _____    ______ ____
ROOT
ATOM      1  N   UNL     1      -6.212   3.721   0.063  0.00  0.00    -0.306 N 
ATOM      2  C   UNL     1      -4.934   4.149   0.043  0.00  0.00    +0.219 C 
ATOM      3  O   UNL     1      -4.693   5.338   0.040  0.00  0.00    -0.275 OA
ATOM      4  H   UNL     1      -6.404   2.770   0.066  0.00  0.00    +0.149 HD
ENDROOT
BRANCH   1   5
ATOM      5  C   UNL     1      -7.309   4.691   0.079  0.00  0.00    +0.200 C 
BRANCH   5   7
ATOM      6  N   UNL     1      -9.782   4.652   0.117  0.00  0.00    -0.284 N 
ATOM      7  C   UNL     1      -8.626   3.959   0.099  0.00  0.00    +0.234 C 
ATOM      8  O   UNL     1      -8.646   2.746   0.100  0.00  0.00    -0.274 OA
ATOM      9  H   UNL     1      -9.767   5.618   0.198  0.00  0.00    +0.155 HD
BRANCH   6  16
ATOM     10  C   UNL     1     -12.096   5.896   1.209  0.00  0.00    +0.046 C 
ATOM     11  C   UNL     1     -12.158   4.548   0.538  0.00  0.00    -0.028 A 
ATOM     12  C   UNL     1     -13.364   3.882   0.436  0.00  0.00    +0.020 A 
ATOM     13  C   UNL     1     -13.421   2.641  -0.174  0.00  0.00    +0.018 A 
ATOM     14  C   UNL     1     -12.271   2.067  -0.688  0.00  0.00    +0.017 A 
ATOM     15  C   UNL     1     -11.064   2.731  -0.593  0.00  0.00    +0.024 A 
ATOM     16  C   UNL     1     -11.004   3.976   0.019  0.00  0.00    +0.036 A 
ATOM     17 BR   UNL     1     -15.072   1.729  -0.306  0.00  0.00    -0.050 Br
ENDBRANCH   6  16
ENDBRANCH   5   7
ENDBRANCH   1   5
BRANCH   2  18
ATOM     18  C   UNL     1      -3.805   3.151   0.026  0.00  0.00    +0.153 C 
BRANCH  18  19
ATOM     19  C   UNL     1      -2.488   3.884   0.006  0.00  0.00    +0.078 A 
ATOM     20  C   UNL     1      -1.233   3.131  -0.013  0.00  0.00    +0.011 A 
ATOM     21  C   UNL     1      -1.211   1.736  -0.019  0.00  0.00    +0.010 A 
ATOM     22  C   UNL     1      -0.012   1.078  -0.032  0.00  0.00    +0.001 A 
ATOM     23  C   UNL     1       1.186   1.780  -0.050  0.00  0.00    +0.001 A 
ATOM     24  C   UNL     1       1.195   3.157  -0.050  0.00  0.00    +0.014 A 
ATOM     25  C   UNL     1      -0.015   3.849  -0.032  0.00  0.00    +0.050 A 
ATOM     26  C   UNL     1      -0.073   5.316  -0.031  0.00  0.00    +0.272 A 
ATOM     27  O   UNL     1       0.950   5.978  -0.047  0.00  0.00    -0.266 OA
ATOM     28  N   UNL     1      -1.281   5.918  -0.013  0.00  0.00    -0.242 N 
ATOM     29  H   UNL     1      -1.325   6.887  -0.013  0.00  0.00    +0.192 HD
ATOM     30  N   UNL     1      -2.467   5.183   0.006  0.00  0.00    -0.175 NA
ENDBRANCH  18  19
ENDBRANCH   2  18
TORSDOF 5
