REMARK  Name = ZINC12416870
REMARK  1 active torsions:
REMARK  status: ('A' for Active; 'I' for Inactive)
REMARK    1  A    between atoms: C_10  and  C_14
REMARK                            x       y       z     vdW  Elec       q    Type
REMARK                         _______ _______ _______ _____ _____    ______ ____
ROOT
ATOM      1  C   UNL     1      -0.019   1.527   0.010  0.00  0.00    +0.007 C 
ATOM      2  C   UNL     1       1.425   2.037  -0.001  0.00  0.00    -0.009 C 
ATOM      3  C   UNL     1       2.127   1.551  -1.267  0.00  0.00    +0.014 C 
ATOM      4  C   UNL     1       2.143   0.019  -1.301  0.00  0.00    +0.057 C 
ATOM      5  C   UNL     1       0.698  -0.497  -1.266  0.00  0.00    +0.014 C 
ATOM      6  C   UNL     1       0.002  -0.004   0.002  0.00  0.00    -0.009 C 
ATOM      7  C   UNL     1       0.722  -0.510   1.251  0.00  0.00    +0.027 C 
ATOM      8  C   UNL     1       2.167   0.005   1.264  0.00  0.00    +0.105 C 
ATOM      9  C   UNL     1       2.156   1.521   1.237  0.00  0.00    +0.027 C 
ATOM     10  C   UNL     1       2.821  -0.459  -0.027  0.00  0.00    +0.151 C 
ATOM     11  O   UNL     1       3.808  -1.155  -0.041  0.00  0.00    -0.296 OA
ENDROOT
BRANCH   8  12
ATOM     12  C   UNL     1       2.908  -0.509   2.472  0.00  0.00    +0.224 C 
ATOM     13  O   UNL     1       2.343  -1.229   3.268  0.00  0.00    -0.275 OA
ATOM     14  N   UNL     1       4.197  -0.169   2.667  0.00  0.00    -0.329 N 
ATOM     15  H   UNL     1       4.648   0.407   2.031  0.00  0.00    +0.145 HD
ATOM     16  H   UNL     1       4.673  -0.499   3.445  0.00  0.00    +0.145 HD
ENDBRANCH   8  12
TORSDOF 1
