REMARK  Name = ZINC20134355
REMARK  8 active torsions:
REMARK  status: ('A' for Active; 'I' for Inactive)
REMARK    1  A    between atoms: C_1  and  C_2
REMARK    2  A    between atoms: C_2  and  C_3
REMARK    3  A    between atoms: C_3  and  C_4
REMARK    4  A    between atoms: C_4  and  S_5
REMARK    5  A    between atoms: S_5  and  C_6
REMARK    6  A    between atoms: C_17  and  C_19
REMARK    7  A    between atoms: C_29  and  C_31
REMARK    8  A    between atoms: C_29  and  C_32
REMARK                            x       y       z     vdW  Elec       q    Type
REMARK                         _______ _______ _______ _____ _____    ______ ____
ROOT
ATOM      1  C   UNL     1      -6.953   1.905  -2.280  0.00  0.00    +0.171 A 
ATOM      2  N   UNL     1      -6.357   2.124  -3.486  0.00  0.00    -0.302 N 
ATOM      3  H   UNL     1      -6.968   2.176  -4.399  0.00  0.00    +0.171 HD
ATOM      4  C   UNL     1      -5.019   2.277  -3.562  0.00  0.00    +0.258 A 
ATOM      5  O   UNL     1      -4.476   2.476  -4.637  0.00  0.00    -0.267 OA
ATOM      6  C   UNL     1      -4.264   2.203  -2.385  0.00  0.00    +0.069 A 
ATOM      7  C   UNL     1      -4.917   1.975  -1.187  0.00  0.00    +0.135 A 
ATOM      8  N   UNL     1      -6.247   1.833  -1.170  0.00  0.00    -0.208 NA
ATOM      9  N   UNL     1      -4.189   1.890  -0.017  0.00  0.00    -0.302 N 
ATOM     10  C   UNL     1      -2.845   1.635  -0.050  0.00  0.00    +0.017 C 
ATOM     11  C   UNL     1      -2.126   1.847  -1.172  0.00  0.00    +0.024 C 
ATOM     12  C   UNL     1      -2.774   2.371  -2.428  0.00  0.00    +0.092 C 
ATOM     13  C   UNL     1      -0.744   1.586  -1.207  0.00  0.00    +0.162 C 
ATOM     14  O   UNL     1      -0.130   1.769  -2.239  0.00  0.00    -0.292 OA
ATOM     15  C   UNL     1      -0.013   1.086   0.008  0.00  0.00    +0.086 C 
ATOM     16  C   UNL     1      -0.735   1.582   1.265  0.00  0.00    -0.023 C 
ATOM     17  C   UNL     1      -2.190   1.107   1.204  0.00  0.00    +0.058 C 
ATOM     18  C   UNL     1      -0.054   1.009   2.510  0.00  0.00    +0.011 C 
ATOM     19  C   UNL     1      -0.694   3.111   1.313  0.00  0.00    +0.011 C 
ATOM     20  H   UNL     1      -4.689   2.027   0.954  0.00  0.00    +0.153 HD
ENDROOT
BRANCH  12  21
ATOM     21  C   UNL     1      -2.447   3.835  -2.578  0.00  0.00    -0.035 A 
ATOM     22  C   UNL     1      -2.834   4.733  -1.601  0.00  0.00    +0.005 A 
ATOM     23  C   UNL     1      -2.530   6.074  -1.736  0.00  0.00    +0.015 A 
ATOM     24  C   UNL     1      -1.848   6.520  -2.854  0.00  0.00    +0.018 A 
ATOM     25  C   UNL     1      -1.465   5.621  -3.833  0.00  0.00    +0.015 A 
ATOM     26  C   UNL     1      -1.765   4.279  -3.695  0.00  0.00    +0.005 A 
ATOM     27 BR   UNL     1      -1.438   8.356  -3.042  0.00  0.00    -0.050 Br
ENDBRANCH  12  21
BRANCH   1  28
ATOM     28  S   UNL     1      -8.702   1.712  -2.204  0.00  0.00    -0.088 S 
BRANCH  28  29
ATOM     29  C   UNL     1      -8.914   1.458  -0.424  0.00  0.00    +0.077 C 
BRANCH  29  30
ATOM     30  C   UNL     1     -10.398   1.261  -0.110  0.00  0.00    +0.011 C 
BRANCH  30  32
ATOM     31  C   UNL     1     -12.061   0.850   1.709  0.00  0.00    +0.004 C 
ATOM     32  C   UNL     1     -10.576   1.046   1.394  0.00  0.00    -0.003 C 
ENDBRANCH  30  32
ENDBRANCH  29  30
ENDBRANCH  28  29
ENDBRANCH   1  28
TORSDOF 5
