REMARK  Name = ZINC08835155
REMARK  6 active torsions:
REMARK  status: ('A' for Active; 'I' for Inactive)
REMARK    1  A    between atoms: C_6  and  C_7
REMARK    2  A    between atoms: N_9  and  C_10
REMARK    3  A    between atoms: C_10  and  N_12
REMARK    4  A    between atoms: N_12  and  C_13
REMARK    5  A    between atoms: C_16  and  C_20
REMARK    6  A    between atoms: C_17  and  O_19
REMARK                            x       y       z     vdW  Elec       q    Type
REMARK                         _______ _______ _______ _____ _____    ______ ____
ROOT
ATOM      1  N   UNL     1       4.895  -4.051  -0.082  0.00  0.00    -0.296 N 
ATOM      2  H   UNL     1       4.094  -4.528   0.186  0.00  0.00    +0.154 HD
ENDROOT
BRANCH   1   3
ATOM      3  C   UNL     1       6.105  -4.735  -0.207  0.00  0.00    +0.036 A 
ATOM      4  C   UNL     1       6.467  -5.683   0.746  0.00  0.00    +0.024 A 
ATOM      5  C   UNL     1       7.660  -6.361   0.630  0.00  0.00    +0.018 A 
ATOM      6  C   UNL     1       8.510  -6.098  -0.448  0.00  0.00    +0.078 A 
ATOM      7  C   UNL     1       8.144  -5.143  -1.407  0.00  0.00    +0.131 A 
ATOM      8  C   UNL     1       6.941  -4.471  -1.283  0.00  0.00    +0.069 A 
BRANCH   6   9
ATOM      9  C   UNL     1       9.788  -6.824  -0.575  0.00  0.00    +0.232 A 
ATOM     10  N   UNL     1      10.223  -7.732   0.262  0.00  0.00    -0.209 NA
ATOM     11  C   UNL     1      11.429  -8.183  -0.171  0.00  0.00    +0.111 A 
ATOM     12  C   UNL     1      12.335  -9.130   0.313  0.00  0.00    +0.051 A 
ATOM     13  C   UNL     1      13.506  -9.368  -0.373  0.00  0.00    +0.043 A 
ATOM     14  C   UNL     1      13.789  -8.674  -1.541  0.00  0.00    +0.024 A 
ATOM     15  C   UNL     1      12.903  -7.737  -2.030  0.00  0.00    +0.050 A 
ATOM     16  C   UNL     1      11.721  -7.483  -1.353  0.00  0.00    +0.156 A 
ATOM     17  O   UNL     1      10.677  -6.653  -1.573  0.00  0.00    -0.435 OA
ATOM     18 CL   UNL     1      14.633 -10.545   0.227  0.00  0.00    -0.083 Cl
ENDBRANCH   6   9
BRANCH   7  19
ATOM     19  O   UNL     1       8.966  -4.883  -2.456  0.00  0.00    -0.506 OA
ATOM     20  H   UNL     1       8.800  -5.436  -3.232  0.00  0.00    +0.292 HD
ENDBRANCH   7  19
ENDBRANCH   1   3
BRANCH   1  21
ATOM     21  C   UNL     1       4.838  -2.729  -0.335  0.00  0.00    +0.141 C 
ATOM     22  S   UNL     1       6.275  -1.859  -0.670  0.00  0.00    -0.018 S 
BRANCH  21  25
ATOM     23  C   UNL     1       3.596  -0.767  -0.577  0.00  0.00    +0.250 C 
ATOM     24  O   UNL     1       4.615  -0.150  -0.814  0.00  0.00    -0.270 OA
ATOM     25  N   UNL     1       3.652  -2.090  -0.324  0.00  0.00    -0.264 N 
ATOM     26  H   UNL     1       2.838  -2.583  -0.134  0.00  0.00    +0.157 HD
BRANCH  23  32
ATOM     27  C   UNL     1       1.123  -0.776  -0.291  0.00  0.00    +0.017 A 
ATOM     28  C   UNL     1      -0.089  -0.121  -0.282  0.00  0.00    +0.050 A 
ATOM     29  C   UNL     1      -0.150   1.243  -0.543  0.00  0.00    +0.162 A 
ATOM     30  C   UNL     1       1.017   1.955  -0.814  0.00  0.00    +0.163 A 
ATOM     31  C   UNL     1       2.236   1.303  -0.826  0.00  0.00    +0.062 A 
ATOM     32  C   UNL     1       2.296  -0.069  -0.565  0.00  0.00    +0.041 A 
ATOM     33  O   UNL     1       0.974   3.292  -1.063  0.00  0.00    -0.485 OA
ATOM     34  C   UNL     1      -0.301   3.842  -1.410  0.00  0.00    +0.270 C 
ATOM     35  C   UNL     1      -1.344   3.295  -0.426  0.00  0.00    +0.270 C 
ATOM     36  O   UNL     1      -1.358   1.867  -0.537  0.00  0.00    -0.485 OA
ENDBRANCH  23  32
ENDBRANCH  21  25
ENDBRANCH   1  21
TORSDOF 6
