REMARK  Name = ZINC03011767
REMARK  6 active torsions:
REMARK  status: ('A' for Active; 'I' for Inactive)
REMARK    1  A    between atoms: C_1  and  C_2
REMARK    2  A    between atoms: C_5  and  C_8
REMARK    3  A    between atoms: C_11  and  C_33
REMARK    4  A    between atoms: C_16  and  C_18
REMARK    5  A    between atoms: N_20  and  C_21
REMARK    6  A    between atoms: C_25  and  C_27
REMARK                            x       y       z     vdW  Elec       q    Type
REMARK                         _______ _______ _______ _____ _____    ______ ____
ROOT
ATOM      1  C   UNL     1       0.066  -4.247  -0.019  0.00  0.00    +0.104 C 
ATOM      2  C   UNL     1      -1.349  -4.776   0.242  0.00  0.00    +0.063 C 
ATOM      3  C   UNL     1      -1.875  -4.222   1.571  0.00  0.00    +0.215 C 
ATOM      4  N   UNL     1      -0.866  -4.445   2.611  0.00  0.00    -0.238 N 
ATOM      5  C   UNL     1       0.452  -4.691   2.347  0.00  0.00    +0.119 A 
ATOM      6  C   UNL     1       1.092  -4.850   3.522  0.00  0.00    +0.078 A 
ATOM      7  C   UNL     1       0.138  -4.695   4.553  0.00  0.00    +0.149 A 
ATOM      8  N   UNL     1      -1.035  -4.451   3.994  0.00  0.00    -0.164 NA
ATOM      9  N   UNL     1       0.962  -4.747   1.042  0.00  0.00    -0.322 N 
ATOM     10  H   UNL     1       1.846  -5.094   0.847  0.00  0.00    +0.148 HD
ENDROOT
BRANCH   1  15
ATOM     11  C   UNL     1       0.019   1.531   0.039  0.00  0.00    +0.044 C 
ATOM     12  C   UNL     1       0.031   0.024   0.024  0.00  0.00    -0.050 A 
ATOM     13  C   UNL     1       0.032  -0.655  -1.181  0.00  0.00    +0.004 A 
ATOM     14  C   UNL     1       0.043  -2.038  -1.194  0.00  0.00    +0.006 A 
ATOM     15  C   UNL     1       0.054  -2.741  -0.004  0.00  0.00    -0.027 A 
ATOM     16  C   UNL     1       0.055  -2.061   1.200  0.00  0.00    +0.006 A 
ATOM     17  C   UNL     1       0.048  -0.679   1.214  0.00  0.00    +0.004 A 
ENDBRANCH   1  15
BRANCH   7  18
ATOM     18  C   UNL     1       0.405  -4.788   6.002  0.00  0.00    +0.268 C 
ATOM     19  O   UNL     1       1.531  -5.017   6.399  0.00  0.00    -0.268 OA
ATOM     20  N   UNL     1      -0.599  -4.619   6.885  0.00  0.00    -0.280 N 
ATOM     21  H   UNL     1      -1.483  -4.369   6.572  0.00  0.00    +0.155 HD
BRANCH  20  22
ATOM     22  C   UNL     1      -0.367  -4.802   8.252  0.00  0.00    +0.034 A 
ATOM     23  C   UNL     1       0.854  -4.438   8.806  0.00  0.00    +0.025 A 
ATOM     24  C   UNL     1       1.080  -4.621  10.156  0.00  0.00    +0.022 A 
ATOM     25  C   UNL     1       0.092  -5.167  10.957  0.00  0.00    +0.053 A 
ATOM     26  C   UNL     1      -1.125  -5.530  10.408  0.00  0.00    +0.075 A 
ATOM     27  C   UNL     1      -1.359  -5.344   9.059  0.00  0.00    +0.037 A 
ATOM     28 CL   UNL     1       0.380  -5.396  12.653  0.00  0.00    -0.083 Cl
BRANCH  26  29
ATOM     29  C   UNL     1      -2.199  -6.124  11.283  0.00  0.00    +0.419 C 
ATOM     30  F   UNL     1      -3.328  -6.408  10.508  0.00  0.00    -0.166 F 
ATOM     31  F   UNL     1      -1.725  -7.304  11.867  0.00  0.00    -0.166 F 
ATOM     32  F   UNL     1      -2.539  -5.211  12.287  0.00  0.00    -0.166 F 
ENDBRANCH  26  29
ENDBRANCH  20  22
ENDBRANCH   7  18
BRANCH   3  33
ATOM     33  C   UNL     1      -3.171  -4.943   1.949  0.00  0.00    +0.412 C 
ATOM     34  F   UNL     1      -2.921  -6.313   2.082  0.00  0.00    -0.168 F 
ATOM     35  F   UNL     1      -3.649  -4.436   3.163  0.00  0.00    -0.168 F 
ATOM     36  F   UNL     1      -4.127  -4.738   0.949  0.00  0.00    -0.168 F 
ENDBRANCH   3  33
TORSDOF 5
