REMARK  Name = ZINC39664709
REMARK  9 active torsions:
REMARK  status: ('A' for Active; 'I' for Inactive)
REMARK    1  A    between atoms: C_1  and  C_2
REMARK    2  A    between atoms: C_5  and  C_9
REMARK    3  A    between atoms: C_13  and  C_22
REMARK    4  A    between atoms: N_24  and  C_25
REMARK    5  A    between atoms: C_25  and  C_27
REMARK    6  A    between atoms: C_25  and  C_31
REMARK    7  A    between atoms: C_27  and  N_28
REMARK    8  A    between atoms: N_28  and  C_29
REMARK    9  A    between atoms: N_28  and  C_30
REMARK                            x       y       z     vdW  Elec       q    Type
REMARK                         _______ _______ _______ _____ _____    ______ ____
ROOT
ATOM      1  C   UNL     1      -1.002  -3.808   0.429  0.00  0.00    +0.247 C 
ATOM      2  O   UNL     1      -0.805  -4.089  -0.737  0.00  0.00    -0.270 OA
ATOM      3  N   UNL     1      -0.430  -4.542   1.405  0.00  0.00    -0.296 N 
ATOM      4  C   UNL     1      -0.641  -4.430   2.867  0.00  0.00    +0.121 C 
ATOM      5  C   UNL     1      -0.659  -5.890   3.372  0.00  0.00    +0.100 C 
ATOM      6  C   UNL     1       0.127  -6.681   2.313  0.00  0.00    -0.004 C 
ATOM      7  C   UNL     1       0.546  -5.647   1.257  0.00  0.00    +0.115 C 
ATOM      8  C   UNL     1       1.358  -7.326   2.940  0.00  0.00    -0.010 C 
ATOM      9  C   UNL     1       2.091  -8.154   1.881  0.00  0.00    -0.082 C 
ATOM     10  N   UNL     1       1.189  -9.185   1.353  0.00  0.00    +0.379 N 
ATOM     11  C   UNL     1       0.053  -8.554   0.669  0.00  0.00    -0.082 C 
ATOM     12  C   UNL     1      -0.765  -7.743   1.678  0.00  0.00    -0.010 C 
ATOM     13  H   UNL     1       1.692  -9.767   0.700  0.00  0.00    -0.086 HD
ATOM     14  H   UNL     1       0.848  -9.754   2.114  0.00  0.00    -0.086 HD
ENDROOT
BRANCH   1  19
ATOM     15  C   UNL     1      -4.369   0.659   1.789  0.00  0.00    +0.047 C 
ATOM     16  C   UNL     1      -3.488  -0.511   1.433  0.00  0.00    -0.015 A 
ATOM     17  C   UNL     1      -2.567  -0.984   2.350  0.00  0.00    +0.007 A 
ATOM     18  C   UNL     1      -1.757  -2.054   2.030  0.00  0.00    +0.013 A 
ATOM     19  C   UNL     1      -1.867  -2.661   0.778  0.00  0.00    +0.040 A 
ATOM     20  C   UNL     1      -2.798  -2.181  -0.144  0.00  0.00    +0.051 A 
ATOM     21  C   UNL     1      -3.607  -1.111   0.190  0.00  0.00    +0.127 A 
ATOM     22  F   UNL     1      -4.513  -0.647  -0.699  0.00  0.00    -0.205 F 
ENDBRANCH   1  19
BRANCH   5  23
ATOM     23  C   UNL     1       0.020  -5.989   4.714  0.00  0.00    +0.219 C 
ATOM     24  O   UNL     1      -0.489  -6.637   5.604  0.00  0.00    -0.275 OA
ATOM     25  N   UNL     1       1.192  -5.358   4.925  0.00  0.00    -0.310 N 
ATOM     26  H   UNL     1       1.626  -4.886   4.198  0.00  0.00    +0.149 HD
BRANCH  25  27
ATOM     27  C   UNL     1       1.808  -5.383   6.254  0.00  0.00    +0.087 C 
BRANCH  27  28
ATOM     28  C   UNL     1       3.300  -5.542   6.112  0.00  0.00    -0.029 A 
ATOM     29  C   UNL     1       3.976  -4.862   5.116  0.00  0.00    +0.005 A 
ATOM     30  C   UNL     1       5.344  -5.007   4.985  0.00  0.00    +0.000 A 
ATOM     31  C   UNL     1       6.037  -5.832   5.852  0.00  0.00    +0.000 A 
ATOM     32  C   UNL     1       5.362  -6.511   6.848  0.00  0.00    +0.000 A 
ATOM     33  C   UNL     1       3.994  -6.362   6.981  0.00  0.00    +0.005 A 
ENDBRANCH  27  28
BRANCH  27  34
ATOM     34  C   UNL     1       1.502  -4.074   6.984  0.00  0.00    -0.052 C 
BRANCH  34  35
ATOM     35  N   UNL     1       0.047  -3.897   7.081  0.00  0.00    +0.377 N 
ATOM     36  C   UNL     1      -0.507  -4.897   8.005  0.00  0.00    -0.097 C 
ATOM     37  C   UNL     1      -0.250  -2.549   7.584  0.00  0.00    -0.097 C 
ATOM     38  H   UNL     1      -0.368  -4.015   6.169  0.00  0.00    -0.083 HD
ENDBRANCH  34  35
ENDBRANCH  27  34
ENDBRANCH  25  27
ENDBRANCH   5  23
TORSDOF 6
