REMARK  Name = ZINC54511977
REMARK  6 active torsions:
REMARK  status: ('A' for Active; 'I' for Inactive)
REMARK    1  A    between atoms: C_6  and  C_7
REMARK    2  A    between atoms: C_7  and  C_9
REMARK    3  A    between atoms: C_7  and  O_27
REMARK    4  A    between atoms: C_9  and  N_10
REMARK    5  A    between atoms: N_13  and  C_14
REMARK    6  A    between atoms: C_16  and  N_21
REMARK                            x       y       z     vdW  Elec       q    Type
REMARK                         _______ _______ _______ _____ _____    ______ ____
ROOT
ATOM      1  N   UNL     1      -2.904  -1.915   1.455  0.00  0.00    -0.296 N 
ATOM      2  C   UNL     1      -3.426  -2.341   2.622  0.00  0.00    +0.304 C 
ATOM      3  O   UNL     1      -2.851  -2.108   3.667  0.00  0.00    -0.253 OA
ATOM      4  N   UNL     1      -4.587  -3.027   2.630  0.00  0.00    -0.267 N 
ATOM      5  H   UNL     1      -3.363  -2.101   0.621  0.00  0.00    +0.150 HD
ATOM      6  H   UNL     1      -5.088  -3.143   1.807  0.00  0.00    +0.156 HD
ENDROOT
BRANCH   4   7
ATOM      7  C   UNL     1      -5.070  -3.572   3.826  0.00  0.00    +0.072 A 
ATOM      8  C   UNL     1      -4.191  -3.874   4.856  0.00  0.00    +0.049 A 
ATOM      9  C   UNL     1      -4.673  -4.414   6.040  0.00  0.00    +0.041 A 
ATOM     10  C   UNL     1      -6.033  -4.651   6.191  0.00  0.00    +0.026 A 
ATOM     11  C   UNL     1      -6.907  -4.350   5.164  0.00  0.00    +0.042 A 
ATOM     12  C   UNL     1      -6.431  -3.807   3.985  0.00  0.00    +0.145 A 
ATOM     13  F   UNL     1      -7.289  -3.508   2.985  0.00  0.00    -0.204 F 
BRANCH   9  14
ATOM     14  N   UNL     1      -3.788  -4.720   7.082  0.00  0.00    -0.234 N 
ATOM     15  C   UNL     1      -4.151  -5.301   8.389  0.00  0.00    +0.158 C 
ATOM     16  C   UNL     1      -2.777  -5.757   8.937  0.00  0.00    +0.253 C 
ATOM     17  O   UNL     1      -1.869  -4.894   8.225  0.00  0.00    -0.448 OA
ATOM     18  C   UNL     1      -2.453  -4.543   7.067  0.00  0.00    +0.407 C 
ATOM     19  O   UNL     1      -1.843  -4.109   6.111  0.00  0.00    -0.226 OA
ENDBRANCH   9  14
ENDBRANCH   4   7
BRANCH   1  20
ATOM     20  C   UNL     1      -1.643  -1.169   1.446  0.00  0.00    +0.141 C 
BRANCH  20  21
ATOM     21  C   UNL     1      -1.275  -0.806   0.006  0.00  0.00    +0.162 C 
BRANCH  21  27
ATOM     22  C   UNL     1       0.008   1.343  -0.007  0.00  0.00    +0.009 A 
ATOM     23  C   UNL     1       1.197   2.048  -0.016  0.00  0.00    +0.041 A 
ATOM     24  C   UNL     1       2.403   1.370  -0.020  0.00  0.00    +0.158 A 
ATOM     25  C   UNL     1       2.418  -0.017  -0.016  0.00  0.00    +0.159 A 
ATOM     26  C   UNL     1       1.226  -0.720  -0.008  0.00  0.00    +0.047 A 
ATOM     27  C   UNL     1       0.022  -0.040  -0.003  0.00  0.00    -0.015 A 
ATOM     28  F   UNL     1       3.594  -0.680  -0.021  0.00  0.00    -0.202 F 
ATOM     29  F   UNL     1       3.565   2.059  -0.029  0.00  0.00    -0.202 F 
ENDBRANCH  21  27
BRANCH  21  30
ATOM     30  O   UNL     1      -1.128  -2.001  -0.764  0.00  0.00    -0.386 OA
ATOM     31  H   UNL     1      -0.442  -2.598  -0.437  0.00  0.00    +0.210 HD
ENDBRANCH  21  30
ENDBRANCH  20  21
ENDBRANCH   1  20
TORSDOF 6
