REMARK  Name = ZINC13362649
REMARK  6 active torsions:
REMARK  status: ('A' for Active; 'I' for Inactive)
REMARK    1  A    between atoms: C_3  and  O_20
REMARK    2  A    between atoms: C_6  and  N_7
REMARK    3  A    between atoms: N_7  and  S_8
REMARK    4  A    between atoms: S_8  and  C_11
REMARK    5  A    between atoms: C_15  and  C_17
REMARK    6  A    between atoms: O_20  and  C_21
REMARK                            x       y       z     vdW  Elec       q    Type
REMARK                         _______ _______ _______ _____ _____    ______ ____
ROOT
ATOM      1  N   UNL     1      -0.069  -0.034   0.017  0.00  0.00    -0.216 N 
ATOM      2  H   UNL     1       0.243  -0.219  -0.882  0.00  0.00    +0.174 HD
ENDROOT
BRANCH   1   8
ATOM      3  C   UNL     1       1.808  -0.188   1.528  0.00  0.00    +0.028 A 
ATOM      4  C   UNL     1       2.425  -0.777   2.614  0.00  0.00    +0.048 A 
ATOM      5  C   UNL     1       1.804  -1.822   3.283  0.00  0.00    +0.129 A 
ATOM      6  C   UNL     1       0.560  -2.272   2.865  0.00  0.00    +0.048 A 
ATOM      7  C   UNL     1      -0.061  -1.680   1.784  0.00  0.00    +0.028 A 
ATOM      8  C   UNL     1       0.560  -0.634   1.113  0.00  0.00    +0.048 A 
BRANCH   5   9
ATOM      9  O   UNL     1       2.416  -2.405   4.348  0.00  0.00    -0.456 OA
BRANCH   9  10
ATOM     10  C   UNL     1       2.496  -1.696   5.505  0.00  0.00    +0.129 A 
ATOM     11  C   UNL     1       1.893  -0.450   5.599  0.00  0.00    +0.047 A 
ATOM     12  C   UNL     1       1.971   0.267   6.777  0.00  0.00    +0.019 A 
ATOM     13  C   UNL     1       2.660  -0.251   7.859  0.00  0.00    +0.018 A 
ATOM     14  C   UNL     1       3.267  -1.491   7.766  0.00  0.00    +0.019 A 
ATOM     15  C   UNL     1       3.186  -2.214   6.591  0.00  0.00    +0.047 A 
ATOM     16 BR   UNL     1       2.772   0.736   9.468  0.00  0.00    -0.050 Br
ENDBRANCH   9  10
ENDBRANCH   5   9
ENDBRANCH   1   8
BRANCH   1  17
ATOM     17  S   UNL     1      -1.347   0.992   0.255  0.00  0.00    +0.072 S 
ATOM     18  O   UNL     1      -1.758   1.434  -1.032  0.00  0.00    -0.150 OA
ATOM     19  O   UNL     1      -2.232   0.337   1.153  0.00  0.00    -0.150 OA
BRANCH  17  20
ATOM     20  C   UNL     1      -0.728   2.408   1.101  0.00  0.00    +0.109 A 
ATOM     21  C   UNL     1      -0.632   2.399   2.482  0.00  0.00    +0.031 A 
ATOM     22  C   UNL     1      -0.142   3.503   3.155  0.00  0.00    +0.041 A 
ATOM     23  C   UNL     1       0.244   4.629   2.452  0.00  0.00    +0.138 A 
ATOM     24  C   UNL     1       0.143   4.646   1.057  0.00  0.00    +0.100 A 
ATOM     25  C   UNL     1      -0.347   3.523   0.386  0.00  0.00    +0.046 A 
ATOM     26  F   UNL     1       0.718   5.710   3.110  0.00  0.00    -0.205 F 
BRANCH  24  27
ATOM     27  C   UNL     1       0.554   5.843   0.298  0.00  0.00    +0.389 C 
ATOM     28  O   UNL     1       0.980   6.818   0.884  0.00  0.00    -0.240 OA
ATOM     29  O   UNL     1       0.456   5.855  -1.046  0.00  0.00    -0.240 OA
ENDBRANCH  24  27
ENDBRANCH  17  20
ENDBRANCH   1  17
TORSDOF 6
