REMARK  Name = ZINC40323097
REMARK  12 active torsions:
REMARK  status: ('A' for Active; 'I' for Inactive)
REMARK    1  A    between atoms: C_1  and  N_2
REMARK    2  A    between atoms: N_2  and  C_3
REMARK    3  A    between atoms: N_2  and  C_4
REMARK    4  A    between atoms: C_7  and  C_10
REMARK    5  A    between atoms: C_10  and  C_12
REMARK    6  A    between atoms: C_10  and  N_31
REMARK    7  A    between atoms: C_12  and  N_13
REMARK    8  A    between atoms: C_14  and  C_16
REMARK    9  A    between atoms: C_19  and  S_21
REMARK   10  A    between atoms: S_21  and  C_24
REMARK   11  A    between atoms: N_31  and  C_32
REMARK   12  A    between atoms: N_31  and  C_33
REMARK                            x       y       z     vdW  Elec       q    Type
REMARK                         _______ _______ _______ _____ _____    ______ ____
ROOT
ATOM      1  N   UNL     1      -1.784  -4.071  -4.201  0.00  0.00    -0.310 N 
ATOM      2  C   UNL     1      -3.063  -4.473  -4.338  0.00  0.00    +0.279 C 
ATOM      3  O   UNL     1      -3.752  -4.019  -5.232  0.00  0.00    -0.267 OA
ATOM      4  H   UNL     1      -1.235  -4.432  -3.488  0.00  0.00    +0.149 HD
ENDROOT
BRANCH   2   5
ATOM      5  C   UNL     1      -3.625  -5.458  -3.408  0.00  0.00    +0.192 A 
ATOM      6  C   UNL     1      -4.897  -5.954  -3.436  0.00  0.00    +0.056 A 
ATOM      7  C   UNL     1      -4.999  -6.863  -2.371  0.00  0.00    +0.070 A 
ATOM      8  C   UNL     1      -3.801  -6.882  -1.747  0.00  0.00    +0.246 A 
ATOM      9  O   UNL     1      -2.974  -6.038  -2.378  0.00  0.00    -0.433 OA
BRANCH   8  10
ATOM     10  S   UNL     1      -3.392  -7.860  -0.340  0.00  0.00    +0.058 S 
ATOM     11  O   UNL     1      -2.311  -7.204   0.310  0.00  0.00    -0.161 OA
ATOM     12  O   UNL     1      -4.615  -8.151   0.322  0.00  0.00    -0.161 OA
BRANCH  10  13
ATOM     13  C   UNL     1      -2.764  -9.394  -0.936  0.00  0.00    +0.097 A 
ATOM     14  C   UNL     1      -3.625 -10.449  -1.170  0.00  0.00    +0.028 A 
ATOM     15  C   UNL     1      -3.133 -11.653  -1.639  0.00  0.00    +0.017 A 
ATOM     16  C   UNL     1      -1.778 -11.802  -1.873  0.00  0.00    +0.018 A 
ATOM     17  C   UNL     1      -0.916 -10.745  -1.639  0.00  0.00    +0.017 A 
ATOM     18  C   UNL     1      -1.410  -9.540  -1.176  0.00  0.00    +0.028 A 
ATOM     19 BR   UNL     1      -1.105 -13.448  -2.514  0.00  0.00    -0.050 Br
ENDBRANCH  10  13
ENDBRANCH   8  10
ENDBRANCH   2   5
BRANCH   1  20
ATOM     20  C   UNL     1      -1.223  -3.087  -5.130  0.00  0.00    +0.094 C 
BRANCH  20  21
ATOM     21  C   UNL     1       0.260  -2.877  -4.817  0.00  0.00    -0.021 C 
BRANCH  21  25
ATOM     22  C   UNL     1       0.665  -1.167  -0.921  0.00  0.00    +0.029 A 
ATOM     23  C   UNL     1       0.860  -2.530  -1.107  0.00  0.00    +0.023 A 
ATOM     24  C   UNL     1       0.728  -3.079  -2.367  0.00  0.00    +0.004 A 
ATOM     25  C   UNL     1       0.402  -2.274  -3.443  0.00  0.00    -0.059 A 
ATOM     26  C   UNL     1       0.207  -0.917  -3.261  0.00  0.00    +0.004 A 
ATOM     27  C   UNL     1       0.332  -0.362  -2.003  0.00  0.00    +0.023 A 
BRANCH  22  29
ATOM     28  C   UNL     1       0.585   0.828   0.548  0.00  0.00    +0.129 C 
ATOM     29  N   UNL     1       0.797  -0.608   0.353  0.00  0.00    -0.336 N 
ATOM     30  C   UNL     1       1.149  -1.459   1.493  0.00  0.00    +0.129 C 
ENDBRANCH  22  29
ENDBRANCH  21  25
BRANCH  21  31
ATOM     31  N   UNL     1       0.847  -1.970  -5.812  0.00  0.00    +0.382 N 
ATOM     32  C   UNL     1       2.260  -1.733  -5.486  0.00  0.00    -0.096 C 
ATOM     33  C   UNL     1       0.749  -2.578  -7.146  0.00  0.00    -0.096 C 
ATOM     34  H   UNL     1       0.348  -1.093  -5.805  0.00  0.00    -0.082 HD
ENDBRANCH  21  31
ENDBRANCH  20  21
ENDBRANCH   1  20
TORSDOF 8
