REMARK  Name = ZINC13115901
REMARK  10 active torsions:
REMARK  status: ('A' for Active; 'I' for Inactive)
REMARK    1  A    between atoms: C_1  and  C_2
REMARK    2  A    between atoms: C_2  and  C_3
REMARK    3  A    between atoms: C_3  and  C_25
REMARK    4  A    between atoms: N_6  and  C_10
REMARK    5  A    between atoms: C_10  and  C_11
REMARK    6  A    between atoms: N_13  and  C_14
REMARK    7  A    between atoms: C_19  and  C_24
REMARK    8  A    between atoms: C_21  and  C_23
REMARK    9  A    between atoms: C_28  and  O_31
REMARK   10  A    between atoms: O_31  and  C_32
REMARK                            x       y       z     vdW  Elec       q    Type
REMARK                         _______ _______ _______ _____ _____    ______ ____
ROOT
ATOM      1  C   UNL     1      -1.235   2.107   0.018  0.00  0.00    +0.138 C 
ATOM      2  C   UNL     1      -0.014   1.208   0.009  0.00  0.00    +0.251 C 
ATOM      3  O   UNL     1       0.002  -0.004   0.002  0.00  0.00    -0.272 OA
ATOM      4  N   UNL     1       1.048   2.037   0.003  0.00  0.00    -0.215 N 
ATOM      5  C   UNL     1       0.673   3.321   0.013  0.00  0.00    +0.310 C 
ATOM      6  O   UNL     1       1.453   4.253   0.010  0.00  0.00    -0.252 OA
ATOM      7  N   UNL     1      -0.664   3.465   0.026  0.00  0.00    -0.281 N 
ATOM      8  H   UNL     1      -1.157   4.301   0.034  0.00  0.00    +0.152 HD
ENDROOT
BRANCH   1   9
ATOM      9  C   UNL     1      -2.067   1.885  -1.218  0.00  0.00    -0.015 A 
ATOM     10  C   UNL     1      -3.075   0.940  -1.211  0.00  0.00    +0.010 A 
ATOM     11  C   UNL     1      -3.843   0.739  -2.342  0.00  0.00    +0.046 A 
ATOM     12  C   UNL     1      -3.594   1.478  -3.489  0.00  0.00    +0.120 A 
ATOM     13  C   UNL     1      -2.577   2.422  -3.495  0.00  0.00    +0.046 A 
ATOM     14  C   UNL     1      -1.816   2.624  -2.360  0.00  0.00    +0.010 A 
BRANCH  12  15
ATOM     15  O   UNL     1      -4.344   1.278  -4.604  0.00  0.00    -0.495 OA
ATOM     16  C   UNL     1      -5.373   0.290  -4.525  0.00  0.00    +0.277 C 
ENDBRANCH  12  15
ENDBRANCH   1   9
BRANCH   1  18
ATOM     17  C   UNL     1      -1.256   2.274   2.511  0.00  0.00    +0.007 C 
ATOM     18  C   UNL     1      -2.068   1.870   1.279  0.00  0.00    +0.037 C 
ENDBRANCH   1  18
BRANCH   4  19
ATOM     19  C   UNL     1       2.443   1.587  -0.011  0.00  0.00    +0.213 C 
BRANCH  19  20
ATOM     20  C   UNL     1       2.908   1.439  -1.437  0.00  0.00    +0.231 C 
ATOM     21  O   UNL     1       2.150   1.685  -2.351  0.00  0.00    -0.274 OA
ATOM     22  N   UNL     1       4.167   1.033  -1.696  0.00  0.00    -0.311 N 
ATOM     23  H   UNL     1       4.773   0.836  -0.965  0.00  0.00    +0.149 HD
BRANCH  22  24
ATOM     24  C   UNL     1       4.620   0.889  -3.082  0.00  0.00    +0.076 C 
ATOM     25  C   UNL     1       4.223  -0.492  -3.607  0.00  0.00    +0.022 C 
ATOM     26  C   UNL     1       4.875  -1.573  -2.743  0.00  0.00    +0.002 C 
ATOM     27  C   UNL     1       6.396  -1.424  -2.801  0.00  0.00    +0.003 C 
ATOM     28  C   UNL     1       6.793  -0.043  -2.275  0.00  0.00    -0.009 C 
ATOM     29  C   UNL     1       6.141   1.039  -3.140  0.00  0.00    +0.009 C 
ATOM     30  C   UNL     1       6.538   2.420  -2.614  0.00  0.00    +0.009 C 
ATOM     31  C   UNL     1       8.315   0.107  -2.333  0.00  0.00    +0.008 C 
ENDBRANCH  22  24
ENDBRANCH  19  20
ENDBRANCH   4  19
TORSDOF 6
