REMARK  Name = ZINC03455094
REMARK  8 active torsions:
REMARK  status: ('A' for Active; 'I' for Inactive)
REMARK    1  A    between atoms: C_7  and  C_25
REMARK    2  A    between atoms: C_8  and  C_10
REMARK    3  A    between atoms: N_12  and  N_13
REMARK    4  A    between atoms: C_14  and  C_16
REMARK    5  A    between atoms: C_16  and  O_17
REMARK    6  A    between atoms: O_17  and  C_18
REMARK    7  A    between atoms: C_25  and  S_26
REMARK    8  A    between atoms: S_26  and  C_27
REMARK                            x       y       z     vdW  Elec       q    Type
REMARK                         _______ _______ _______ _____ _____    ______ ____
ROOT
ATOM      1  C   UNL     1       3.769  14.685   0.044  0.00  0.00    +0.001 A 
ATOM      2  C   UNL     1       2.408  14.413   0.055  0.00  0.00    +0.004 A 
ATOM      3  C   UNL     1       1.949  13.114   0.052  0.00  0.00    +0.047 A 
ATOM      4  C   UNL     1       2.856  12.060   0.039  0.00  0.00    +0.136 A 
ATOM      5  C   UNL     1       4.235  12.342   0.027  0.00  0.00    +0.025 A 
ATOM      6  C   UNL     1       4.679  13.666   0.030  0.00  0.00    +0.012 A 
ATOM      7  C   UNL     1       4.905  11.042   0.015  0.00  0.00    +0.021 A 
ATOM      8  C   UNL     1       3.917  10.110   0.019  0.00  0.00    +0.196 A 
ATOM      9  O   UNL     1       2.714  10.720   0.028  0.00  0.00    -0.450 OA
ENDROOT
BRANCH   8  10
ATOM     10  C   UNL     1       4.127   8.655   0.009  0.00  0.00    +0.296 C 
ATOM     11  O   UNL     1       5.257   8.203  -0.004  0.00  0.00    -0.265 OA
ATOM     12  N   UNL     1       3.068   7.821   0.015  0.00  0.00    -0.228 N 
ATOM     13  H   UNL     1       2.168   8.181   0.025  0.00  0.00    +0.173 HD
BRANCH  12  14
ATOM     14  N   UNL     1       3.268   6.434   0.005  0.00  0.00    -0.231 N 
ATOM     15  C   UNL     1       2.209   5.601   0.011  0.00  0.00    +0.267 C 
ATOM     16  O   UNL     1       1.083   6.051   0.024  0.00  0.00    -0.271 OA
ATOM     17  H   UNL     1       4.169   6.074  -0.005  0.00  0.00    +0.173 HD
BRANCH  15  18
ATOM     18  C   UNL     1       2.425   4.109   0.001  0.00  0.00    +0.326 C 
BRANCH  18  19
ATOM     19  O   UNL     1       1.159   3.445   0.009  0.00  0.00    -0.483 OA
BRANCH  19  20
ATOM     20  C   UNL     1       1.176   2.086   0.002  0.00  0.00    +0.121 A 
ATOM     21  C   UNL     1      -0.017   1.377   0.010  0.00  0.00    +0.047 A 
ATOM     22  C   UNL     1       0.002  -0.004   0.002  0.00  0.00    +0.019 A 
ATOM     23  C   UNL     1       1.209  -0.680  -0.013  0.00  0.00    +0.018 A 
ATOM     24  C   UNL     1       2.399   0.025  -0.020  0.00  0.00    +0.019 A 
ATOM     25  C   UNL     1       2.385   1.406  -0.013  0.00  0.00    +0.047 A 
ATOM     26 BR   UNL     1       1.232  -2.571  -0.022  0.00  0.00    -0.050 Br
ENDBRANCH  19  20
ENDBRANCH  18  19
ENDBRANCH  15  18
ENDBRANCH  12  14
ENDBRANCH   8  10
BRANCH   7  27
ATOM     27  C   UNL     1       6.390  10.788  -0.000  0.00  0.00    +0.109 C 
BRANCH  27  28
ATOM     28  S   UNL     1       6.971  10.695  -1.716  0.00  0.00    -0.153 S 
BRANCH  28  29
ATOM     29  C   UNL     1       8.752  10.390  -1.561  0.00  0.00    +0.047 C 
ATOM     30  C   UNL     1       9.421  11.600  -0.905  0.00  0.00    +0.014 C 
ATOM     31  C   UNL     1      10.924  11.343  -0.774  0.00  0.00    +0.001 C 
ATOM     32  C   UNL     1      11.526  11.118  -2.162  0.00  0.00    +0.000 C 
ATOM     33  C   UNL     1      10.857   9.908  -2.818  0.00  0.00    +0.001 C 
ATOM     34  C   UNL     1       9.354  10.165  -2.949  0.00  0.00    +0.014 C 
ENDBRANCH  28  29
ENDBRANCH  27  28
ENDBRANCH   7  27
TORSDOF 8
