REMARK  Name = ZINC44874199
REMARK  10 active torsions:
REMARK  status: ('A' for Active; 'I' for Inactive)
REMARK    1  A    between atoms: C_1  and  C_2
REMARK    2  A    between atoms: C_5  and  N_8
REMARK    3  A    between atoms: N_8  and  C_9
REMARK    4  A    between atoms: N_8  and  S_27
REMARK    5  A    between atoms: C_9  and  C_10
REMARK    6  A    between atoms: N_12  and  C_13
REMARK    7  A    between atoms: C_13  and  C_14
REMARK    8  A    between atoms: C_17  and  C_20
REMARK    9  A    between atoms: C_20  and  N_21
REMARK   10  A    between atoms: S_27  and  C_30
REMARK                            x       y       z     vdW  Elec       q    Type
REMARK                         _______ _______ _______ _____ _____    ______ ____
ROOT
ATOM      1  C   UNL     1       0.484  -4.888  -1.223  0.00  0.00    +0.227 C 
ENDROOT
BRANCH   1   2
ATOM      2  C   UNL     1       1.985  -5.024  -1.222  0.00  0.00    +0.232 C 
ATOM      3  O   UNL     1       2.635  -4.564  -0.307  0.00  0.00    -0.274 OA
ATOM      4  N   UNL     1       2.605  -5.656  -2.238  0.00  0.00    -0.310 N 
ATOM      5  H   UNL     1       2.086  -6.023  -2.970  0.00  0.00    +0.149 HD
BRANCH   4   6
ATOM      6  C   UNL     1       4.064  -5.788  -2.237  0.00  0.00    +0.139 C 
BRANCH   6   7
ATOM      7  C   UNL     1       4.503  -6.529  -3.474  0.00  0.00    -0.030 A 
ATOM      8  C   UNL     1       4.604  -7.907  -3.454  0.00  0.00    +0.005 A 
ATOM      9  C   UNL     1       5.006  -8.587  -4.589  0.00  0.00    +0.002 A 
ATOM     10  C   UNL     1       5.306  -7.888  -5.743  0.00  0.00    -0.064 A 
ATOM     11  C   UNL     1       5.205  -6.510  -5.763  0.00  0.00    +0.002 A 
ATOM     12  C   UNL     1       4.798  -5.830  -4.629  0.00  0.00    +0.005 A 
BRANCH  10  13
ATOM     13  C   UNL     1       5.746  -8.629  -6.979  0.00  0.00    -0.043 C 
BRANCH  13  14
ATOM     14  N   UNL     1       4.569  -8.974  -7.788  0.00  0.00    +0.382 N 
ATOM     15  C   UNL     1       3.723  -9.913  -7.042  0.00  0.00    -0.078 C 
ATOM     16  C   UNL     1       2.455 -10.213  -7.846  0.00  0.00    -0.019 C 
ATOM     17  C   UNL     1       2.845 -10.832  -9.191  0.00  0.00    -0.004 C 
ATOM     18  C   UNL     1       3.787  -9.875  -9.928  0.00  0.00    -0.019 C 
ATOM     19  C   UNL     1       5.005  -9.588  -9.048  0.00  0.00    -0.078 C 
ATOM     20  H   UNL     1       4.042  -8.136  -7.988  0.00  0.00    -0.081 HD
ENDBRANCH  13  14
ENDBRANCH  10  13
ENDBRANCH   6   7
ENDBRANCH   4   6
ENDBRANCH   1   2
BRANCH   1  21
ATOM     21  N   UNL     1       0.058  -4.167  -0.021  0.00  0.00    -0.194 N 
BRANCH  21  26
ATOM     22  C   UNL     1       0.026   1.503   0.027  0.00  0.00    +0.044 C 
ATOM     23  C   UNL     1       0.035  -0.004   0.014  0.00  0.00    -0.050 A 
ATOM     24  C   UNL     1      -0.737  -0.690  -0.905  0.00  0.00    +0.005 A 
ATOM     25  C   UNL     1      -0.732  -2.071  -0.919  0.00  0.00    +0.025 A 
ATOM     26  C   UNL     1       0.051  -2.771  -0.009  0.00  0.00    +0.052 A 
ATOM     27  C   UNL     1       0.825  -2.078   0.912  0.00  0.00    +0.025 A 
ATOM     28  C   UNL     1       0.820  -0.697   0.918  0.00  0.00    +0.005 A 
ENDBRANCH  21  26
BRANCH  21  29
ATOM     29  S   UNL     1      -0.415  -5.009   1.325  0.00  0.00    +0.075 S 
ATOM     30  O   UNL     1       0.303  -6.236   1.309  0.00  0.00    -0.150 OA
ATOM     31  O   UNL     1      -0.348  -4.101   2.416  0.00  0.00    -0.150 OA
BRANCH  29  32
ATOM     32  C   UNL     1      -2.115  -5.418   1.112  0.00  0.00    +0.109 A 
ATOM     33  C   UNL     1      -3.095  -4.550   1.556  0.00  0.00    +0.030 A 
ATOM     34  C   UNL     1      -4.430  -4.870   1.390  0.00  0.00    +0.022 A 
ATOM     35  C   UNL     1      -4.784  -6.060   0.779  0.00  0.00    +0.041 A 
ATOM     36  C   UNL     1      -3.803  -6.928   0.336  0.00  0.00    +0.022 A 
ATOM     37  C   UNL     1      -2.469  -6.604   0.497  0.00  0.00    +0.030 A 
ATOM     38 CL   UNL     1      -6.460  -6.463   0.571  0.00  0.00    -0.084 Cl
ENDBRANCH  29  32
ENDBRANCH  21  29
ENDBRANCH   1  21
TORSDOF 9
