REMARK  Name = ZINC32763482
REMARK  7 active torsions:
REMARK  status: ('A' for Active; 'I' for Inactive)
REMARK    1  A    between atoms: C_1  and  C_2
REMARK    2  A    between atoms: N_6  and  C_27
REMARK    3  A    between atoms: C_8  and  C_10
REMARK    4  A    between atoms: N_12  and  C_13
REMARK    5  A    between atoms: C_13  and  C_14
REMARK    6  A    between atoms: C_14  and  C_16
REMARK    7  A    between atoms: C_14  and  N_21
REMARK                            x       y       z     vdW  Elec       q    Type
REMARK                         _______ _______ _______ _____ _____    ______ ____
ROOT
ATOM      1  C   UNL     1       0.687   2.522   0.065  0.00  0.00    +0.278 C 
ATOM      2  O   UNL     1       1.762   1.955   0.099  0.00  0.00    -0.267 OA
ATOM      3  N   UNL     1      -0.429   1.875   0.455  0.00  0.00    -0.307 N 
ATOM      4  H   UNL     1      -1.402   2.388   0.424  0.00  0.00    +0.149 HD
ENDROOT
BRANCH   1  11
ATOM      5  C   UNL     1       2.107   6.379   0.840  0.00  0.00    +0.038 C 
ATOM      6  C   UNL     1       1.808   6.053  -0.624  0.00  0.00    +0.157 C 
ATOM      7  C   UNL     1       0.462   6.621  -1.009  0.00  0.00    +0.259 C 
ATOM      8  O   UNL     1       0.372   7.760  -1.417  0.00  0.00    -0.271 OA
ATOM      9  N   UNL     1      -0.639   5.852  -0.893  0.00  0.00    -0.157 N 
ATOM     10  N   UNL     1      -0.546   4.531  -0.442  0.00  0.00    -0.152 NA
ATOM     11  C   UNL     1       0.604   3.917  -0.403  0.00  0.00    +0.200 C 
ATOM     12  N   UNL     1       1.759   4.597  -0.804  0.00  0.00    -0.313 N 
ATOM     13  H   UNL     1       2.616   4.068  -1.245  0.00  0.00    +0.148 HD
BRANCH   9  14
ATOM     14  C   UNL     1      -1.890   6.380  -1.230  0.00  0.00    +0.060 A 
ATOM     15  C   UNL     1      -2.746   5.669  -2.061  0.00  0.00    +0.025 A 
ATOM     16  C   UNL     1      -3.983   6.191  -2.386  0.00  0.00    +0.002 A 
ATOM     17  C   UNL     1      -4.364   7.426  -1.895  0.00  0.00    +0.000 A 
ATOM     18  C   UNL     1      -3.512   8.140  -1.071  0.00  0.00    +0.002 A 
ATOM     19  C   UNL     1      -2.277   7.621  -0.738  0.00  0.00    +0.025 A 
ENDBRANCH   9  14
ENDBRANCH   1  11
BRANCH   3  20
ATOM     20  C   UNL     1      -0.347   0.488   0.921  0.00  0.00    +0.128 C 
BRANCH  20  21
ATOM     21  C   UNL     1      -1.730   0.021   1.379  0.00  0.00    +0.111 C 
BRANCH  21  22
ATOM     22  N   UNL     1      -2.248   0.947   2.395  0.00  0.00    -0.289 NA
ATOM     23  C   UNL     1      -1.336   1.031   3.545  0.00  0.00    +0.113 C 
ATOM     24  C   UNL     1      -1.883   2.049   4.550  0.00  0.00    +0.175 C 
ATOM     25  O   UNL     1      -3.206   1.668   4.934  0.00  0.00    -0.377 OA
ATOM     26  C   UNL     1      -4.121   1.577   3.839  0.00  0.00    +0.175 C 
ATOM     27  C   UNL     1      -3.597   0.554   2.827  0.00  0.00    +0.113 C 
ENDBRANCH  21  22
BRANCH  21  28
ATOM     28  C   UNL     1      -2.667  -0.006   0.200  0.00  0.00    +0.008 A 
ATOM     29  C   UNL     1      -3.060  -1.062  -0.554  0.00  0.00    +0.013 A 
ATOM     30  C   UNL     1      -3.941  -0.850  -1.598  0.00  0.00    +0.008 A 
ATOM     31  C   UNL     1      -4.378   0.410  -1.843  0.00  0.00    +0.045 A 
ATOM     32  S   UNL     1      -3.542   1.345  -0.573  0.00  0.00    -0.100 S 
ENDBRANCH  21  28
ENDBRANCH  20  21
ENDBRANCH   3  20
TORSDOF 6
