REMARK  Name = ZINC28710365
REMARK  12 active torsions:
REMARK  status: ('A' for Active; 'I' for Inactive)
REMARK    1  A    between atoms: C_1  and  C_2
REMARK    2  A    between atoms: N_10  and  C_11
REMARK    3  A    between atoms: C_11  and  C_12
REMARK    4  A    between atoms: C_16  and  C_18
REMARK    5  A    between atoms: N_20  and  C_21
REMARK    6  A    between atoms: N_24  and  C_27
REMARK    7  A    between atoms: C_27  and  C_28
REMARK    8  A    between atoms: C_28  and  C_30
REMARK    9  A    between atoms: C_28  and  O_34
REMARK   10  A    between atoms: C_30  and  N_31
REMARK   11  A    between atoms: N_31  and  C_32
REMARK   12  A    between atoms: N_31  and  C_33
REMARK                            x       y       z     vdW  Elec       q    Type
REMARK                         _______ _______ _______ _____ _____    ______ ____
ROOT
ATOM      1  C   UNL     1       0.288   2.236  -0.090  0.00  0.00    +0.046 C 
ATOM      2  C   UNL     1       0.280   0.735  -0.225  0.00  0.00    -0.025 A 
ATOM      3  C   UNL     1       0.317   0.153  -1.473  0.00  0.00    +0.005 A 
ATOM      4  C   UNL     1       0.310  -1.227  -1.606  0.00  0.00    +0.002 A 
ATOM      5  C   UNL     1       0.266  -2.037  -0.489  0.00  0.00    +0.028 A 
ATOM      6  C   UNL     1       0.229  -1.468   0.774  0.00  0.00    +0.069 A 
ATOM      7  C   UNL     1       0.241  -0.071   0.915  0.00  0.00    +0.068 A 
ATOM      8  N   UNL     1       0.205   0.197   2.247  0.00  0.00    -0.327 N 
ATOM      9  C   UNL     1       0.177  -0.925   2.921  0.00  0.00    +0.175 A 
ATOM     10  N   UNL     1       0.181  -1.985   2.059  0.00  0.00    -0.307 N 
ATOM     11  N   UNL     1       0.138  -1.023   4.296  0.00  0.00    -0.314 N 
ATOM     12  H   UNL     1       0.120  -1.895   4.720  0.00  0.00    +0.149 HD
ATOM     13  H   UNL     1       0.201   1.085   2.639  0.00  0.00    +0.169 HD
ENDROOT
BRANCH  11  14
ATOM     14  C   UNL     1       0.124   0.191   5.117  0.00  0.00    +0.070 C 
ATOM     15  C   UNL     1       1.560   0.669   5.348  0.00  0.00    +0.003 C 
ATOM     16  C   UNL     1       1.543   1.890   6.271  0.00  0.00    -0.077 C 
ATOM     17  N   UNL     1       0.933   1.528   7.556  0.00  0.00    +0.381 N 
ATOM     18  C   UNL     1      -0.467   1.136   7.350  0.00  0.00    -0.077 C 
ATOM     19  C   UNL     1      -0.527  -0.113   6.469  0.00  0.00    +0.003 C 
ATOM     20  H   UNL     1       1.441   0.756   7.962  0.00  0.00    -0.082 HD
BRANCH  17  21
ATOM     21  C   UNL     1       0.989   2.680   8.465  0.00  0.00    -0.046 C 
BRANCH  21  22
ATOM     22  C   UNL     1       2.448   2.990   8.806  0.00  0.00    +0.112 C 
BRANCH  22  23
ATOM     23  O   UNL     1       3.039   1.856   9.444  0.00  0.00    -0.392 OA
ATOM     24  H   UNL     1       2.602   1.596  10.267  0.00  0.00    +0.210 HD
ENDBRANCH  22  23
BRANCH  22  25
ATOM     25  C   UNL     1       2.507   4.194   9.748  0.00  0.00    +0.113 C 
BRANCH  25  26
ATOM     26  N   UNL     1       3.909   4.566   9.981  0.00  0.00    -0.306 NA
ATOM     27  C   UNL     1       4.535   5.057   8.746  0.00  0.00    +0.104 C 
ATOM     28  C   UNL     1       4.019   5.558  11.058  0.00  0.00    +0.104 C 
ENDBRANCH  25  26
ENDBRANCH  22  25
ENDBRANCH  21  22
ENDBRANCH  17  21
ENDBRANCH  11  14
BRANCH  10  29
ATOM     29  C   UNL     1       0.156  -3.403   2.426  0.00  0.00    +0.182 C 
BRANCH  29  30
ATOM     30  C   UNL     1       1.568  -3.902   2.599  0.00  0.00    +0.083 A 
ATOM     31  C   UNL     1       2.319  -4.236   1.482  0.00  0.00    +0.200 A 
ATOM     32  C   UNL     1       3.621  -4.695   1.657  0.00  0.00    +0.054 A 
ATOM     33  C   UNL     1       4.115  -4.800   2.947  0.00  0.00    +0.024 A 
ATOM     34  C   UNL     1       3.305  -4.448   4.010  0.00  0.00    +0.013 A 
ATOM     35  N   UNL     1       2.077  -4.011   3.810  0.00  0.00    -0.358 N 
ATOM     36  C   UNL     1       3.834  -4.559   5.417  0.00  0.00    +0.063 C 
ATOM     37  O   UNL     1       1.792  -4.117   0.235  0.00  0.00    -0.286 OA
ATOM     38  H   UNL     1       1.532  -3.768   4.575  0.00  0.00    +0.165 HD
ENDBRANCH  29  30
ENDBRANCH  10  29
TORSDOF 8
