REMARK  Name = ZINC63234629
REMARK  12 active torsions:
REMARK  status: ('A' for Active; 'I' for Inactive)
REMARK    1  A    between atoms: C_1  and  O_2
REMARK    2  A    between atoms: O_2  and  C_3
REMARK    3  A    between atoms: C_6  and  C_9
REMARK    4  A    between atoms: C_9  and  C_11
REMARK    5  A    between atoms: C_9  and  C_26
REMARK    6  A    between atoms: C_11  and  N_12
REMARK    7  A    between atoms: N_12  and  C_13
REMARK    8  A    between atoms: C_13  and  C_14
REMARK    9  A    between atoms: C_14  and  C_16
REMARK   10  A    between atoms: C_14  and  O_25
REMARK   11  A    between atoms: C_16  and  O_17
REMARK   12  A    between atoms: O_17  and  C_18
REMARK                            x       y       z     vdW  Elec       q    Type
REMARK                         _______ _______ _______ _____ _____    ______ ____
ROOT
ATOM      1  C   UNL     1       2.505  -2.503  -4.381  0.00  0.00    +0.030 C 
ENDROOT
BRANCH   1   2
ATOM      2  C   UNL     1       3.645  -3.357  -3.889  0.00  0.00    -0.036 C 
ATOM      3  C   UNL     1       4.952  -3.232  -4.212  0.00  0.00    -0.001 A 
ATOM      4  C   UNL     1       5.677  -2.300  -5.084  0.00  0.00    +0.010 A 
ATOM      5  C   UNL     1       7.017  -2.426  -5.210  0.00  0.00    +0.001 A 
ATOM      6  C   UNL     1       7.731  -3.423  -4.531  0.00  0.00    +0.002 A 
ATOM      7  C   UNL     1       7.135  -4.316  -3.712  0.00  0.00    +0.026 A 
ATOM      8  C   UNL     1       5.729  -4.275  -3.505  0.00  0.00    +0.043 A 
ATOM      9  N   UNL     1       4.932  -5.017  -2.774  0.00  0.00    -0.380 N 
ATOM     10  C   UNL     1       3.560  -4.523  -2.930  0.00  0.00    +0.145 C 
ATOM     11  H   UNL     1       5.205  -5.764  -2.220  0.00  0.00    +0.160 HD
ENDBRANCH   1   2
BRANCH   1  15
ATOM     12  C   UNL     1       0.606  -0.607  -1.056  0.00  0.00    +0.120 A 
ATOM     13  C   UNL     1       1.173   0.161  -2.062  0.00  0.00    +0.046 A 
ATOM     14  C   UNL     1       1.786  -0.455  -3.136  0.00  0.00    +0.008 A 
ATOM     15  C   UNL     1       1.835  -1.835  -3.209  0.00  0.00    -0.042 A 
ATOM     16  C   UNL     1       1.270  -2.602  -2.207  0.00  0.00    +0.008 A 
ATOM     17  C   UNL     1       0.661  -1.992  -1.128  0.00  0.00    +0.046 A 
BRANCH  12  19
ATOM     18  C   UNL     1      -0.017   1.425   0.010  0.00  0.00    +0.277 C 
ATOM     19  O   UNL     1       0.002  -0.004   0.002  0.00  0.00    -0.495 OA
ENDBRANCH  12  19
ENDBRANCH   1  15
BRANCH   1  20
ATOM     20  C   UNL     1       1.490  -3.382  -5.115  0.00  0.00    -0.070 C 
BRANCH  20  21
ATOM     21  N   UNL     1       2.108  -3.939  -6.325  0.00  0.00    +0.381 N 
ATOM     22  H   UNL     1       2.401  -3.186  -6.930  0.00  0.00    -0.086 HD
ATOM     23  H   UNL     1       2.910  -4.495  -6.068  0.00  0.00    -0.086 HD
BRANCH  21  24
ATOM     24  C   UNL     1       1.134  -4.783  -7.030  0.00  0.00    -0.047 C 
BRANCH  24  25
ATOM     25  C   UNL     1       1.778  -5.363  -8.290  0.00  0.00    +0.135 C 
BRANCH  25  26
ATOM     26  O   UNL     1       2.193  -4.297  -9.147  0.00  0.00    -0.390 OA
ATOM     27  H   UNL     1       1.472  -3.720  -9.435  0.00  0.00    +0.210 HD
ENDBRANCH  25  26
BRANCH  25  28
ATOM     28  C   UNL     1       0.763  -6.241  -9.024  0.00  0.00    +0.258 C 
BRANCH  28  29
ATOM     29  O   UNL     1       1.398  -6.875 -10.136  0.00  0.00    -0.489 OA
BRANCH  29  30
ATOM     30  C   UNL     1       0.630  -7.697 -10.899  0.00  0.00    +0.121 A 
ATOM     31  C   UNL     1      -0.709  -7.884 -10.587  0.00  0.00    +0.047 A 
ATOM     32  C   UNL     1      -1.488  -8.719 -11.364  0.00  0.00    +0.019 A 
ATOM     33  C   UNL     1      -0.934  -9.369 -12.453  0.00  0.00    +0.018 A 
ATOM     34  C   UNL     1       0.401  -9.184 -12.765  0.00  0.00    +0.019 A 
ATOM     35  C   UNL     1       1.182  -8.345 -11.995  0.00  0.00    +0.047 A 
ATOM     36 BR   UNL     1      -2.003 -10.512 -13.514  0.00  0.00    -0.050 Br
ENDBRANCH  29  30
ENDBRANCH  28  29
ENDBRANCH  25  28
ENDBRANCH  24  25
ENDBRANCH  21  24
ENDBRANCH  20  21
ENDBRANCH   1  20
TORSDOF 11
