REMARK  Name = ZINC05116365
REMARK  8 active torsions:
REMARK  status: ('A' for Active; 'I' for Inactive)
REMARK    1  A    between atoms: C_1  and  C_2
REMARK    2  A    between atoms: C_2  and  C_4
REMARK    3  A    between atoms: C_2  and  O_16
REMARK    4  A    between atoms: O_16  and  C_17
REMARK    5  A    between atoms: C_17  and  C_19
REMARK    6  A    between atoms: C_19  and  C_21
REMARK    7  A    between atoms: C_19  and  N_22
REMARK    8  A    between atoms: C_23  and  C_25
REMARK                            x       y       z     vdW  Elec       q    Type
REMARK                         _______ _______ _______ _____ _____    ______ ____
ROOT
ATOM      1  O   UNL     1       3.579   1.354  -0.729  0.00  0.00    -0.452 OA
ENDROOT
BRANCH   1   3
ATOM      2  C   UNL     1       5.246  -0.352  -0.242  0.00  0.00    +0.060 C 
ATOM      3  C   UNL     1       4.573   0.484  -1.332  0.00  0.00    +0.239 C 
BRANCH   3   4
ATOM      4  C   UNL     1       5.610   1.319  -2.037  0.00  0.00    +0.151 A 
ATOM      5  N   UNL     1       5.280   1.887  -3.227  0.00  0.00    -0.307 N 
ATOM      6  H   UNL     1       4.369   1.739  -3.611  0.00  0.00    +0.170 HD
ATOM      7  C   UNL     1       6.175   2.650  -3.897  0.00  0.00    +0.259 A 
ATOM      8  O   UNL     1       5.891   3.168  -4.962  0.00  0.00    -0.267 OA
ATOM      9  C   UNL     1       7.504   2.824  -3.292  0.00  0.00    +0.065 A 
ATOM     10  C   UNL     1       8.498   3.585  -3.904  0.00  0.00    +0.015 A 
ATOM     11  C   UNL     1       9.726   3.715  -3.293  0.00  0.00    +0.001 A 
ATOM     12  C   UNL     1       9.979   3.094  -2.077  0.00  0.00    +0.002 A 
ATOM     13  C   UNL     1       9.010   2.337  -1.456  0.00  0.00    +0.028 A 
ATOM     14  C   UNL     1       7.758   2.191  -2.056  0.00  0.00    +0.078 A 
ATOM     15  N   UNL     1       6.775   1.455  -1.479  0.00  0.00    -0.230 NA
ENDBRANCH   3   4
ENDBRANCH   1   3
BRANCH   1  16
ATOM     16  C   UNL     1       2.332   0.870  -0.616  0.00  0.00    +0.328 C 
ATOM     17  O   UNL     1       2.080  -0.245  -1.008  0.00  0.00    -0.249 OA
BRANCH  16  18
ATOM     18  C   UNL     1       1.248   1.716  -0.001  0.00  0.00    +0.179 C 
ATOM     19  C   UNL     1       1.635   2.077   1.435  0.00  0.00    +0.040 C 
BRANCH  18  20
ATOM     20  N   UNL     1      -0.011   0.966   0.007  0.00  0.00    -0.299 N 
ATOM     21  C   UNL     1      -1.187   1.624   0.017  0.00  0.00    +0.245 C 
ATOM     22  O   UNL     1      -1.204   2.839   0.023  0.00  0.00    -0.270 OA
ATOM     23  H   UNL     1       0.002  -0.004   0.002  0.00  0.00    +0.150 HD
BRANCH  21  24
ATOM     24  C   UNL     1      -2.458   0.867   0.018  0.00  0.00    +0.037 A 
ATOM     25  C   UNL     1      -2.442  -0.528   0.005  0.00  0.00    +0.013 A 
ATOM     26  C   UNL     1      -3.631  -1.228   0.012  0.00  0.00    +0.001 A 
ATOM     27  C   UNL     1      -4.837  -0.550   0.021  0.00  0.00    +0.000 A 
ATOM     28  C   UNL     1      -4.859   0.834   0.029  0.00  0.00    +0.001 A 
ATOM     29  C   UNL     1      -3.677   1.546   0.028  0.00  0.00    +0.013 A 
ENDBRANCH  21  24
ENDBRANCH  18  20
ENDBRANCH  16  18
ENDBRANCH   1  16
TORSDOF 6
