REMARK  Name = ZINC15910444
REMARK  8 active torsions:
REMARK  status: ('A' for Active; 'I' for Inactive)
REMARK    1  A    between atoms: C_1  and  C_2
REMARK    2  A    between atoms: C_5  and  S_25
REMARK    3  A    between atoms: C_7  and  N_8
REMARK    4  A    between atoms: C_9  and  C_11
REMARK    5  A    between atoms: C_11  and  S_12
REMARK    6  A    between atoms: S_12  and  C_13
REMARK    7  A    between atoms: N_18  and  C_19
REMARK    8  A    between atoms: S_25  and  N_28
REMARK                            x       y       z     vdW  Elec       q    Type
REMARK                         _______ _______ _______ _____ _____    ______ ____
ROOT
ATOM      1  N   UNL     1       2.356   3.889  -0.001  0.00  0.00    -0.285 N 
ATOM      2  C   UNL     1       2.336   5.233  -0.095  0.00  0.00    +0.227 C 
ATOM      3  O   UNL     1       1.279   5.827  -0.082  0.00  0.00    -0.275 OA
ATOM      4  H   UNL     1       3.202   3.420   0.070  0.00  0.00    +0.155 HD
ENDROOT
BRANCH   1  11
ATOM      5  C   UNL     1       2.322   1.325   1.234  0.00  0.00    +0.045 C 
ATOM      6  C   UNL     1       1.095   1.915   0.588  0.00  0.00    -0.029 A 
ATOM      7  C   UNL     1      -0.092   1.207   0.583  0.00  0.00    +0.007 A 
ATOM      8  C   UNL     1      -1.217   1.745  -0.015  0.00  0.00    +0.029 A 
ATOM      9  C   UNL     1      -1.161   2.997  -0.600  0.00  0.00    +0.107 A 
ATOM     10  C   UNL     1       0.022   3.709  -0.598  0.00  0.00    +0.052 A 
ATOM     11  C   UNL     1       1.155   3.170  -0.003  0.00  0.00    +0.038 A 
BRANCH   9  12
ATOM     12  S   UNL     1      -2.599   3.681  -1.354  0.00  0.00    +0.061 S 
ATOM     13  O   UNL     1      -3.716   3.051  -0.743  0.00  0.00    -0.153 OA
ATOM     14  O   UNL     1      -2.425   5.091  -1.355  0.00  0.00    -0.153 OA
BRANCH  12  15
ATOM     15  N   UNL     1      -2.594   3.203  -2.939  0.00  0.00    -0.172 NA
ATOM     16  C   UNL     1      -1.944   4.021  -3.975  0.00  0.00    +0.137 C 
ATOM     17  C   UNL     1      -1.007   3.110  -4.787  0.00  0.00    +0.177 C 
ATOM     18  O   UNL     1      -1.741   1.972  -5.245  0.00  0.00    -0.377 OA
ATOM     19  C   UNL     1      -2.251   1.144  -4.197  0.00  0.00    +0.177 C 
ATOM     20  C   UNL     1      -3.246   1.950  -3.355  0.00  0.00    +0.137 C 
ENDBRANCH  12  15
ENDBRANCH   9  12
ENDBRANCH   1  11
BRANCH   2  21
ATOM     21  C   UNL     1       3.628   5.998  -0.217  0.00  0.00    +0.172 C 
BRANCH  21  22
ATOM     22  S   UNL     1       3.272   7.774  -0.325  0.00  0.00    -0.088 S 
BRANCH  22  23
ATOM     23  C   UNL     1       4.862   8.521  -0.462  0.00  0.00    +0.160 A 
ATOM     24  N   UNL     1       6.053   7.954  -0.478  0.00  0.00    -0.133 NA
ATOM     25  N   UNL     1       7.180   8.733  -0.599  0.00  0.00    -0.125 NA
ATOM     26  C   UNL     1       7.065  10.044  -0.686  0.00  0.00    +0.183 A 
ATOM     27  S   UNL     1       5.292  10.248  -0.608  0.00  0.00    -0.025 S 
ATOM     28  N   UNL     1       8.058  11.009  -0.806  0.00  0.00    -0.319 N 
ATOM     29  H   UNL     1       7.819  11.948  -0.860  0.00  0.00    +0.148 HD
BRANCH  28  30
ATOM     30  C   UNL     1       9.467  10.609  -0.852  0.00  0.00    +0.072 C 
ATOM     31  C   UNL     1       9.998  10.451   0.574  0.00  0.00    +0.022 C 
ATOM     32  C   UNL     1      11.469  10.033   0.527  0.00  0.00    +0.002 C 
ATOM     33  C   UNL     1      12.281  11.105  -0.204  0.00  0.00    +0.000 C 
ATOM     34  C   UNL     1      11.749  11.263  -1.630  0.00  0.00    +0.002 C 
ATOM     35  C   UNL     1      10.278  11.681  -1.582  0.00  0.00    +0.022 C 
ENDBRANCH  28  30
ENDBRANCH  22  23
ENDBRANCH  21  22
ENDBRANCH   2  21
TORSDOF 7
