REMARK  Name = ZINC39708880
REMARK  5 active torsions:
REMARK  status: ('A' for Active; 'I' for Inactive)
REMARK    1  A    between atoms: C_7  and  N_23
REMARK    2  A    between atoms: C_9  and  C_12
REMARK    3  A    between atoms: N_14  and  C_15
REMARK    4  A    between atoms: C_24  and  C_26
REMARK    5  A    between atoms: C_26  and  C_27
REMARK                            x       y       z     vdW  Elec       q    Type
REMARK                         _______ _______ _______ _____ _____    ______ ____
ROOT
ATOM      1  C   UNL     1      -0.024   1.362   0.034  0.00  0.00    +0.001 A 
ATOM      2  C   UNL     1       1.164   2.070   0.021  0.00  0.00    +0.004 A 
ATOM      3  C   UNL     1       2.372   1.405   0.002  0.00  0.00    +0.046 A 
ATOM      4  C   UNL     1       2.406   0.012  -0.006  0.00  0.00    +0.127 A 
ATOM      5  C   UNL     1       1.206  -0.688  -0.000  0.00  0.00    +0.018 A 
ATOM      6  C   UNL     1       0.001  -0.021   0.024  0.00  0.00    +0.009 A 
ATOM      7  C   UNL     1       1.553  -2.164  -0.036  0.00  0.00    +0.156 C 
ATOM      8  C   UNL     1       3.041  -2.133  -0.459  0.00  0.00    +0.283 C 
ATOM      9  O   UNL     1       3.471  -0.835  -0.013  0.00  0.00    -0.477 OA
ENDROOT
BRANCH   8  10
ATOM     10  C   UNL     1       3.174  -2.259  -1.954  0.00  0.00    +0.260 C 
ATOM     11  O   UNL     1       3.626  -1.339  -2.603  0.00  0.00    -0.271 OA
ATOM     12  N   UNL     1       2.791  -3.394  -2.571  0.00  0.00    -0.282 N 
ATOM     13  H   UNL     1       2.493  -4.154  -2.047  0.00  0.00    +0.155 HD
BRANCH  12  14
ATOM     14  C   UNL     1       2.823  -3.477  -3.969  0.00  0.00    +0.036 A 
ATOM     15  C   UNL     1       1.851  -4.202  -4.645  0.00  0.00    +0.026 A 
ATOM     16  C   UNL     1       1.883  -4.283  -6.024  0.00  0.00    +0.043 A 
ATOM     17  C   UNL     1       2.885  -3.642  -6.732  0.00  0.00    +0.159 A 
ATOM     18  C   UNL     1       3.857  -2.917  -6.060  0.00  0.00    +0.160 A 
ATOM     19  C   UNL     1       3.824  -2.829  -4.680  0.00  0.00    +0.064 A 
ATOM     20  F   UNL     1       4.834  -2.292  -6.754  0.00  0.00    -0.202 F 
ATOM     21  F   UNL     1       2.915  -3.723  -8.081  0.00  0.00    -0.202 F 
ENDBRANCH  12  14
ENDBRANCH   8  10
BRANCH   7  22
ATOM     22  N   UNL     1       1.397  -2.770   1.288  0.00  0.00    -0.304 N 
ATOM     23  C   UNL     1       0.195  -3.240   1.677  0.00  0.00    +0.218 C 
ATOM     24  O   UNL     1      -0.757  -3.161   0.930  0.00  0.00    -0.275 OA
ATOM     25  H   UNL     1       2.159  -2.834   1.886  0.00  0.00    +0.149 HD
BRANCH  23  26
ATOM     26  C   UNL     1       0.034  -3.864   3.039  0.00  0.00    +0.133 C 
BRANCH  26  27
ATOM     27  C   UNL     1      -1.395  -4.305   3.224  0.00  0.00    -0.014 A 
ATOM     28  C   UNL     1      -1.979  -5.575   2.788  0.00  0.00    +0.003 A 
ATOM     29  C   UNL     1      -1.478  -6.696   2.124  0.00  0.00    +0.010 A 
ATOM     30  C   UNL     1      -2.304  -7.751   1.855  0.00  0.00    +0.001 A 
ATOM     31  C   UNL     1      -3.638  -7.717   2.237  0.00  0.00    +0.002 A 
ATOM     32  C   UNL     1      -4.153  -6.621   2.893  0.00  0.00    +0.026 A 
ATOM     33  C   UNL     1      -3.330  -5.536   3.177  0.00  0.00    +0.047 A 
ATOM     34  N   UNL     1      -3.538  -4.327   3.802  0.00  0.00    -0.360 N 
ATOM     35  C   UNL     1      -2.373  -3.609   3.826  0.00  0.00    +0.087 A 
ATOM     36  H   UNL     1      -4.383  -4.029   4.174  0.00  0.00    +0.165 HD
ENDBRANCH  26  27
ENDBRANCH  23  26
ENDBRANCH   7  22
TORSDOF 5
