REMARK  Name = ZINC13009914
REMARK  12 active torsions:
REMARK  status: ('A' for Active; 'I' for Inactive)
REMARK    1  A    between atoms: C_1  and  C_2
REMARK    2  A    between atoms: C_2  and  C_3
REMARK    3  A    between atoms: C_2  and  C_4
REMARK    4  A    between atoms: C_4  and  N_5
REMARK    5  A    between atoms: C_6  and  N_33
REMARK    6  A    between atoms: C_7  and  N_14
REMARK    7  A    between atoms: N_14  and  C_15
REMARK    8  A    between atoms: C_15  and  C_16
REMARK    9  A    between atoms: C_16  and  C_17
REMARK   10  A    between atoms: C_16  and  C_18
REMARK   11  A    between atoms: C_19  and  C_21
REMARK   12  A    between atoms: C_21  and  C_22
REMARK                            x       y       z     vdW  Elec       q    Type
REMARK                         _______ _______ _______ _____ _____    ______ ____
ROOT
ATOM      1  N   UNL     1      -5.282   4.914   2.284  0.00  0.00    -0.264 N 
ATOM      2  C   UNL     1      -4.221   4.886   1.450  0.00  0.00    +0.224 C 
ATOM      3  O   UNL     1      -4.015   5.817   0.700  0.00  0.00    -0.275 OA
ENDROOT
BRANCH   1   6
ATOM      4  N   UNL     1      -7.319   7.837   3.181  0.00  0.00    -0.280 N 
ATOM      5  C   UNL     1      -6.407   6.813   3.285  0.00  0.00    +0.127 A 
ATOM      6  C   UNL     1      -6.211   5.973   2.208  0.00  0.00    +0.140 A 
ATOM      7  C   UNL     1      -6.950   6.194   1.031  0.00  0.00    +0.277 A 
ATOM      8  O   UNL     1      -6.794   5.470   0.062  0.00  0.00    -0.266 OA
ATOM      9  N   UNL     1      -7.836   7.209   0.983  0.00  0.00    -0.273 N 
ATOM     10  H   UNL     1      -8.368   7.362   0.150  0.00  0.00    +0.173 HD
ATOM     11  C   UNL     1      -8.013   8.018   2.043  0.00  0.00    +0.331 A 
ATOM     12  O   UNL     1      -8.816   8.928   1.971  0.00  0.00    -0.246 OA
BRANCH   5  13
ATOM     13  N   UNL     1      -5.698   6.629   4.448  0.00  0.00    -0.343 N 
ATOM     14  H   UNL     1      -4.987   5.970   4.484  0.00  0.00    +0.144 HD
ATOM     15  H   UNL     1      -5.909   7.159   5.233  0.00  0.00    +0.144 HD
ENDBRANCH   5  13
BRANCH   4  16
ATOM     16  C   UNL     1      -7.537   8.737   4.317  0.00  0.00    +0.131 C 
BRANCH  16  18
ATOM     17  C   UNL     1      -6.888  10.924   5.334  0.00  0.00    +0.009 C 
ATOM     18  C   UNL     1      -6.577   9.924   4.219  0.00  0.00    +0.003 C 
ATOM     19  C   UNL     1      -5.137   9.428   4.366  0.00  0.00    +0.009 C 
ENDBRANCH  16  18
ENDBRANCH   4  16
ENDBRANCH   1   6
BRANCH   1  20
ATOM     20  C   UNL     1      -5.470   3.844   3.267  0.00  0.00    +0.117 C 
BRANCH  20  21
ATOM     21  C   UNL     1      -6.190   2.666   2.608  0.00  0.00    +0.001 C 
ATOM     22  C   UNL     1      -6.244   1.490   3.585  0.00  0.00    +0.009 C 
ATOM     23  C   UNL     1      -7.613   3.083   2.233  0.00  0.00    +0.009 C 
ENDBRANCH  20  21
ENDBRANCH   1  20
BRANCH   2  24
ATOM     24  C   UNL     1      -3.293   3.699   1.452  0.00  0.00    +0.145 C 
BRANCH  24  25
ATOM     25  C   UNL     1      -2.250   3.866   0.345  0.00  0.00    +0.216 C 
ATOM     26  C   UNL     1      -1.390   2.631   0.254  0.00  0.00    +0.007 A 
ATOM     27  C   UNL     1      -1.659   1.310  -0.019  0.00  0.00    +0.008 A 
ATOM     28  C   UNL     1      -0.632   0.382  -0.027  0.00  0.00    +0.000 A 
ATOM     29  C   UNL     1       0.669   0.780   0.228  0.00  0.00    +0.001 A 
ATOM     30  C   UNL     1       0.952   2.103   0.497  0.00  0.00    +0.015 A 
ATOM     31  C   UNL     1      -0.080   3.044   0.513  0.00  0.00    +0.066 A 
ATOM     32  C   UNL     1      -0.100   4.497   0.761  0.00  0.00    +0.340 C 
ATOM     33  O   UNL     1       0.877   5.172   1.018  0.00  0.00    -0.245 OA
ATOM     34  O   UNL     1      -1.355   4.967   0.664  0.00  0.00    -0.453 OA
ENDBRANCH  24  25
ENDBRANCH   2  24
TORSDOF 8
