REMARK  Name = ZINC01061925
REMARK  8 active torsions:
REMARK  status: ('A' for Active; 'I' for Inactive)
REMARK    1  A    between atoms: C_1  and  C_2
REMARK    2  A    between atoms: C_4  and  C_28
REMARK    3  A    between atoms: C_6  and  S_8
REMARK    4  A    between atoms: S_8  and  C_9
REMARK    5  A    between atoms: C_9  and  C_10
REMARK    6  A    between atoms: C_13  and  C_15
REMARK    7  A    between atoms: N_17  and  N_18
REMARK    8  A    between atoms: C_19  and  C_21
REMARK                            x       y       z     vdW  Elec       q    Type
REMARK                         _______ _______ _______ _____ _____    ______ ____
ROOT
ATOM      1  C   UNL     1       0.633   3.196   0.012  0.00  0.00    +0.116 A 
ATOM      2  C   UNL     1       1.102   1.929   0.002  0.00  0.00    +0.046 A 
ATOM      3  C   UNL     1      -0.013   1.076   0.008  0.00  0.00    +0.055 A 
ATOM      4  C   UNL     1      -1.119   1.876   0.017  0.00  0.00    +0.191 A 
ATOM      5  O   UNL     1      -0.706   3.160   0.024  0.00  0.00    -0.454 OA
ENDROOT
BRANCH   4   6
ATOM      6  C   UNL     1      -2.513   1.419   0.021  0.00  0.00    +0.295 C 
ATOM      7  O   UNL     1      -2.763   0.228   0.016  0.00  0.00    -0.265 OA
ATOM      8  N   UNL     1      -3.517   2.318   0.030  0.00  0.00    -0.228 N 
ATOM      9  H   UNL     1      -3.317   3.268   0.034  0.00  0.00    +0.173 HD
BRANCH   8  10
ATOM     10  N   UNL     1      -4.848   1.882   0.034  0.00  0.00    -0.230 N 
ATOM     11  C   UNL     1      -5.852   2.781   0.042  0.00  0.00    +0.260 C 
ATOM     12  O   UNL     1      -5.602   3.971   0.047  0.00  0.00    -0.269 OA
ATOM     13  H   UNL     1      -5.047   0.933   0.030  0.00  0.00    +0.173 HD
BRANCH  11  14
ATOM     14  C   UNL     1      -7.256   2.321   0.046  0.00  0.00    +0.038 A 
ATOM     15  C   UNL     1      -7.546   0.956   0.035  0.00  0.00    +0.014 A 
ATOM     16  C   UNL     1      -8.859   0.532   0.044  0.00  0.00    +0.016 A 
ATOM     17  C   UNL     1      -9.888   1.459   0.053  0.00  0.00    +0.018 A 
ATOM     18  C   UNL     1      -9.607   2.814   0.059  0.00  0.00    +0.016 A 
ATOM     19  C   UNL     1      -8.298   3.250   0.056  0.00  0.00    +0.014 A 
ATOM     20 BR   UNL     1     -11.685   0.870   0.059  0.00  0.00    -0.050 Br
ENDBRANCH  11  14
ENDBRANCH   8  10
ENDBRANCH   4   6
BRANCH   1  21
ATOM     21  C   UNL     1       1.478   4.444   0.011  0.00  0.00    +0.151 C 
BRANCH  21  22
ATOM     22  S   UNL     1       1.800   4.953  -1.696  0.00  0.00    -0.078 S 
BRANCH  22  28
ATOM     23  C   UNL     1       4.062   8.237   1.512  0.00  0.00    +0.066 C 
ATOM     24  C   UNL     1       3.768   7.830   0.091  0.00  0.00    +0.043 A 
ATOM     25  C   UNL     1       4.260   8.576  -0.969  0.00  0.00    +0.055 A 
ATOM     26  C   UNL     1       3.967   8.166  -2.260  0.00  0.00    +0.148 A 
ATOM     27  N   UNL     1       3.232   7.082  -2.442  0.00  0.00    -0.218 NA
ATOM     28  C   UNL     1       2.777   6.391  -1.407  0.00  0.00    +0.189 A 
ATOM     29  N   UNL     1       3.034   6.759  -0.160  0.00  0.00    -0.227 NA
BRANCH  26  30
ATOM     30  C   UNL     1       4.481   8.947  -3.443  0.00  0.00    +0.434 C 
ATOM     31  F   UNL     1       3.961   8.403  -4.622  0.00  0.00    -0.164 F 
ATOM     32  F   UNL     1       4.082  10.283  -3.329  0.00  0.00    -0.164 F 
ATOM     33  F   UNL     1       5.878   8.879  -3.475  0.00  0.00    -0.164 F 
ENDBRANCH  26  30
ENDBRANCH  22  28
ENDBRANCH  21  22
ENDBRANCH   1  21
TORSDOF 7
