REMARK  Name = ZINC59886973
REMARK  14 active torsions:
REMARK  status: ('A' for Active; 'I' for Inactive)
REMARK    1  A    between atoms: C_1  and  C_2
REMARK    2  A    between atoms: C_2  and  O_3
REMARK    3  A    between atoms: O_3  and  C_4
REMARK    4  A    between atoms: C_4  and  C_6
REMARK    5  A    between atoms: C_10  and  N_11
REMARK    6  A    between atoms: C_12  and  C_14
REMARK    7  A    between atoms: C_14  and  S_15
REMARK    8  A    between atoms: S_15  and  C_16
REMARK    9  A    between atoms: N_21  and  N_22
REMARK   10  A    between atoms: C_23  and  C_24
REMARK   11  A    between atoms: N_27  and  C_29
REMARK   12  A    between atoms: C_29  and  C_30
REMARK   13  A    between atoms: C_30  and  O_31
REMARK   14  A    between atoms: O_31  and  C_32
REMARK                            x       y       z     vdW  Elec       q    Type
REMARK                         _______ _______ _______ _____ _____    ______ ____
ROOT
ATOM      1  S   UNL     1      -4.566  -3.218   6.129  0.00  0.00    -0.075 S 
ENDROOT
BRANCH   1   2
ATOM      2  C   UNL     1      -3.837  -2.921   7.705  0.00  0.00    +0.211 A 
ATOM      3  N   UNL     1      -4.407  -3.183   8.886  0.00  0.00    -0.186 NA
ATOM      4  C   UNL     1      -3.588  -2.840   9.859  0.00  0.00    +0.232 A 
ATOM      5  N   UNL     1      -2.463  -2.344   9.301  0.00  0.00    -0.245 N 
ATOM      6  N   UNL     1      -2.646  -2.412   7.910  0.00  0.00    -0.144 NA
ATOM      7  N   UNL     1      -3.837  -2.965  11.213  0.00  0.00    -0.205 N 
ATOM      8  H   UNL     1      -3.169  -2.683  11.857  0.00  0.00    +0.177 HD
ATOM      9  H   UNL     1      -1.681  -2.010   9.768  0.00  0.00    +0.192 HD
BRANCH   7  10
ATOM     10  N   UNL     1      -5.054  -3.500  11.655  0.00  0.00    -0.187 NA
ATOM     11  C   UNL     1      -5.288  -3.617  12.926  0.00  0.00    +0.141 C 
BRANCH  11  12
ATOM     12  C   UNL     1      -6.570  -4.181  13.391  0.00  0.00    +0.032 A 
ATOM     13  C   UNL     1      -7.628  -4.638  12.577  0.00  0.00    +0.143 A 
ATOM     14  N   UNL     1      -8.586  -5.063  13.356  0.00  0.00    -0.179 NA
ATOM     15  N   UNL     1      -8.191  -4.900  14.688  0.00  0.00    -0.269 N 
ATOM     16  C   UNL     1      -6.954  -4.364  14.702  0.00  0.00    +0.117 A 
BRANCH  15  17
ATOM     17  C   UNL     1      -8.985  -5.255  15.868  0.00  0.00    +0.171 C 
BRANCH  17  18
ATOM     18  C   UNL     1     -10.346  -4.559  15.795  0.00  0.00    +0.182 C 
BRANCH  18  19
ATOM     19  O   UNL     1     -11.120  -4.906  16.945  0.00  0.00    -0.381 OA
ATOM     20  C   UNL     1     -12.416  -4.306  16.975  0.00  0.00    +0.194 C 
ENDBRANCH  18  19
ENDBRANCH  17  18
ENDBRANCH  15  17
ENDBRANCH  11  12
ENDBRANCH   7  10
ENDBRANCH   1   2
BRANCH   1  21
ATOM     21  C   UNL     1      -3.303  -2.664   4.950  0.00  0.00    +0.173 C 
BRANCH  21  23
ATOM     22  N   UNL     1      -3.031  -2.522   2.496  0.00  0.00    -0.279 N 
ATOM     23  C   UNL     1      -3.805  -2.865   3.544  0.00  0.00    +0.228 C 
ATOM     24  O   UNL     1      -4.907  -3.336   3.355  0.00  0.00    -0.275 OA
ATOM     25  H   UNL     1      -2.150  -2.146   2.647  0.00  0.00    +0.155 HD
BRANCH  22  30
ATOM     26  C   UNL     1      -2.842  -2.416   0.016  0.00  0.00    +0.091 A 
ATOM     27  C   UNL     1      -3.552  -2.715  -1.227  0.00  0.00    -0.021 A 
ATOM     28  C   UNL     1      -4.777  -3.241  -1.047  0.00  0.00    -0.004 A 
ATOM     29  S   UNL     1      -4.970  -3.333   0.715  0.00  0.00    -0.077 S 
ATOM     30  C   UNL     1      -3.493  -2.707   1.202  0.00  0.00    +0.086 A 
ATOM     31  C   UNL     1      -5.463  -3.525  -2.356  0.00  0.00    +0.043 C 
ATOM     32  C   UNL     1      -4.669  -2.707  -3.399  0.00  0.00    +0.010 C 
ATOM     33  C   UNL     1      -3.285  -2.598  -2.726  0.00  0.00    +0.037 C 
BRANCH  26  34
ATOM     34  C   UNL     1      -1.497  -1.838   0.006  0.00  0.00    +0.342 C 
ATOM     35  O   UNL     1      -0.523  -2.566  -0.007  0.00  0.00    -0.245 OA
BRANCH  34  36
ATOM     36  O   UNL     1      -1.339  -0.499   0.012  0.00  0.00    -0.461 OA
BRANCH  36  38
ATOM     37  C   UNL     1      -0.019   1.526   0.010  0.00  0.00    +0.048 C 
ATOM     38  C   UNL     1       0.002  -0.004   0.002  0.00  0.00    +0.229 C 
ENDBRANCH  36  38
ENDBRANCH  34  36
ENDBRANCH  26  34
ENDBRANCH  22  30
ENDBRANCH  21  23
ENDBRANCH   1  21
TORSDOF 12
