REMARK  Name = ZINC66697997
REMARK  10 active torsions:
REMARK  status: ('A' for Active; 'I' for Inactive)
REMARK    1  A    between atoms: C_1  and  C_2
REMARK    2  A    between atoms: C_7  and  N_10
REMARK    3  A    between atoms: N_13  and  C_14
REMARK    4  A    between atoms: N_13  and  C_18
REMARK    5  A    between atoms: C_14  and  C_15
REMARK    6  A    between atoms: C_15  and  O_16
REMARK    7  A    between atoms: O_16  and  C_17
REMARK    8  A    between atoms: C_18  and  C_19
REMARK    9  A    between atoms: C_19  and  O_20
REMARK   10  A    between atoms: O_20  and  C_21
REMARK                            x       y       z     vdW  Elec       q    Type
REMARK                         _______ _______ _______ _____ _____    ______ ____
ROOT
ATOM      1  N   UNL     1      -1.792  -2.450  -4.456  0.00  0.00    -0.296 N 
ATOM      2  C   UNL     1      -1.598  -3.603  -5.126  0.00  0.00    +0.303 C 
ATOM      3  O   UNL     1      -0.575  -4.239  -4.957  0.00  0.00    -0.253 OA
ATOM      4  N   UNL     1      -2.537  -4.052  -5.982  0.00  0.00    -0.280 N 
ATOM      5  H   UNL     1      -2.608  -1.942  -4.591  0.00  0.00    +0.151 HD
ENDROOT
BRANCH   1  12
ATOM      6  C   UNL     1       0.035  -0.763   1.303  0.00  0.00    +0.109 C 
ATOM      7  C   UNL     1       0.002  -0.004   0.002  0.00  0.00    +0.212 C 
ATOM      8  O   UNL     1      -0.114   1.203   0.007  0.00  0.00    -0.276 OA
ATOM      9  N   UNL     1       0.102  -0.666  -1.167  0.00  0.00    -0.302 N 
ATOM     10  C   UNL     1       0.197   0.067  -2.437  0.00  0.00    +0.109 C 
ATOM     11  C   UNL     1      -0.893  -0.444  -3.385  0.00  0.00    +0.041 C 
ATOM     12  C   UNL     1      -0.771  -1.962  -3.525  0.00  0.00    +0.077 C 
ATOM     13  C   UNL     1      -0.972  -2.621  -2.158  0.00  0.00    +0.041 C 
ATOM     14  C   UNL     1       0.123  -2.135  -1.197  0.00  0.00    +0.109 C 
ENDBRANCH   1  12
BRANCH   4  15
ATOM     15  C   UNL     1      -3.768  -3.285  -6.186  0.00  0.00    +0.137 C 
BRANCH  15  16
ATOM     16  C   UNL     1      -3.567  -2.289  -7.330  0.00  0.00    +0.178 C 
BRANCH  16  17
ATOM     17  O   UNL     1      -3.359  -3.002  -8.550  0.00  0.00    -0.381 OA
ATOM     18  C   UNL     1      -3.159  -2.161  -9.688  0.00  0.00    +0.194 C 
ENDBRANCH  16  17
ENDBRANCH  15  16
ENDBRANCH   4  15
BRANCH   4  19
ATOM     19  C   UNL     1      -2.325  -5.306  -6.710  0.00  0.00    +0.150 C 
BRANCH  19  20
ATOM     20  C   UNL     1      -2.883  -6.471  -5.890  0.00  0.00    +0.248 C 
BRANCH  20  21
ATOM     21  O   UNL     1      -4.301  -6.336  -5.773  0.00  0.00    -0.490 OA
BRANCH  21  22
ATOM     22  C   UNL     1      -4.956  -7.297  -5.069  0.00  0.00    +0.121 A 
ATOM     23  C   UNL     1      -4.248  -8.344  -4.499  0.00  0.00    +0.048 A 
ATOM     24  C   UNL     1      -4.915  -9.320  -3.784  0.00  0.00    +0.042 A 
ATOM     25  C   UNL     1      -6.290  -9.253  -3.637  0.00  0.00    +0.124 A 
ATOM     26  C   UNL     1      -6.998  -8.209  -4.206  0.00  0.00    +0.042 A 
ATOM     27  C   UNL     1      -6.333  -7.228  -4.916  0.00  0.00    +0.048 A 
ATOM     28  F   UNL     1      -6.941 -10.208  -2.938  0.00  0.00    -0.205 F 
ENDBRANCH  21  22
ENDBRANCH  20  21
ENDBRANCH  19  20
ENDBRANCH   4  19
TORSDOF 8
