REMARK  Name = ZINC05903074
REMARK  7 active torsions:
REMARK  status: ('A' for Active; 'I' for Inactive)
REMARK    1  A    between atoms: C_1  and  C_2
REMARK    2  A    between atoms: C_2  and  N_48
REMARK    3  A    between atoms: C_3  and  C_4
REMARK    4  A    between atoms: C_3  and  N_48
REMARK    5  A    between atoms: C_17  and  C_18
REMARK    6  A    between atoms: C_17  and  N_48
REMARK    7  A    between atoms: N_20  and  C_21
REMARK                            x       y       z     vdW  Elec       q    Type
REMARK                         _______ _______ _______ _____ _____    ______ ____
ROOT
ATOM      1  N   UNL     1       4.359   1.274  -0.055  0.00  0.00    +0.390 N 
ATOM      2  H   UNL     1       4.085   0.576  -0.757  0.00  0.00    -0.081 HD
ENDROOT
BRANCH   1   4
ATOM      3  C   UNL     1       5.493  -0.648   0.944  0.00  0.00    -0.017 C 
ATOM      4  C   UNL     1       4.632   0.586   1.224  0.00  0.00    -0.081 C 
ENDBRANCH   1   4
BRANCH   1   5
ATOM      5  C   UNL     1       3.255   2.241   0.117  0.00  0.00    -0.003 C 
BRANCH   5   6
ATOM      6  C   UNL     1       1.979   1.482   0.377  0.00  0.00    +0.094 A 
ATOM      7  N   UNL     1       0.832   2.188   0.548  0.00  0.00    -0.312 N 
ATOM      8  H   UNL     1       0.853   3.187   0.498  0.00  0.00    +0.170 HD
ATOM      9  C   UNL     1      -0.340   1.554   0.784  0.00  0.00    +0.259 A 
ATOM     10  O   UNL     1      -1.377   2.174   0.933  0.00  0.00    -0.267 OA
ATOM     11  C   UNL     1      -0.314   0.085   0.847  0.00  0.00    +0.065 A 
ATOM     12  C   UNL     1      -1.465  -0.664   1.085  0.00  0.00    +0.017 A 
ATOM     13  C   UNL     1      -1.386  -2.028   1.133  0.00  0.00    +0.021 A 
ATOM     14  C   UNL     1      -0.170  -2.676   0.949  0.00  0.00    +0.043 A 
ATOM     15  C   UNL     1       0.983  -1.958   0.712  0.00  0.00    +0.048 A 
ATOM     16  C   UNL     1       0.926  -0.564   0.657  0.00  0.00    +0.079 A 
ATOM     17  N   UNL     1       2.034   0.185   0.427  0.00  0.00    -0.236 NA
ATOM     18 CL   UNL     1      -0.103  -4.409   1.017  0.00  0.00    -0.083 Cl
ENDBRANCH   5   6
ENDBRANCH   1   5
BRANCH   1  19
ATOM     19  C   UNL     1       5.574   1.973  -0.522  0.00  0.00    +0.019 C 
BRANCH  19  20
ATOM     20  C   UNL     1       5.430   2.261  -1.994  0.00  0.00    +0.197 C 
ATOM     21  O   UNL     1       4.467   1.844  -2.603  0.00  0.00    -0.278 OA
ATOM     22  N   UNL     1       6.371   2.983  -2.635  0.00  0.00    -0.312 N 
ATOM     23  H   UNL     1       7.141   3.317  -2.149  0.00  0.00    +0.149 HD
BRANCH  22  24
ATOM     24  C   UNL     1       6.231   3.263  -4.066  0.00  0.00    +0.095 C 
ATOM     25  C   UNL     1       6.821   2.102  -4.883  0.00  0.00    +0.046 C 
ATOM     26  C   UNL     1       6.970   2.522  -6.365  0.00  0.00    +0.168 C 
ATOM     27  S   UNL     1       7.198   4.343  -6.248  0.00  0.00    -0.029 S 
ATOM     28  O   UNL     1       6.112   4.987  -6.901  0.00  0.00    -0.174 OA
ATOM     29  O   UNL     1       8.530   4.668  -6.620  0.00  0.00    -0.174 OA
ATOM     30  C   UNL     1       7.014   4.557  -4.428  0.00  0.00    +0.188 C 
ENDBRANCH  22  24
ENDBRANCH  19  20
ENDBRANCH   1  19
TORSDOF 6
