REMARK  Name = ZINC06193112
REMARK  20 active torsions:
REMARK  status: ('A' for Active; 'I' for Inactive)
REMARK    1  A    between atoms: C_1  and  C_2
REMARK    2  A    between atoms: C_2  and  N_77
REMARK    3  A    between atoms: C_3  and  C_4
REMARK    4  A    between atoms: C_3  and  N_77
REMARK    5  A    between atoms: C_5  and  C_6
REMARK    6  A    between atoms: C_5  and  N_77
REMARK    7  A    between atoms: C_6  and  C_7
REMARK    8  A    between atoms: C_7  and  N_8
REMARK    9  A    between atoms: N_8  and  C_9
REMARK   10  A    between atoms: C_9  and  N_11
REMARK   11  A    between atoms: N_11  and  C_12
REMARK   12  A    between atoms: N_11  and  C_21
REMARK   13  A    between atoms: C_12  and  C_13
REMARK   14  A    between atoms: C_13  and  C_14
REMARK   15  A    between atoms: C_19  and  C_20
REMARK   16  A    between atoms: C_21  and  C_22
REMARK   17  A    between atoms: C_26  and  O_36
REMARK   18  A    between atoms: C_27  and  O_34
REMARK   19  A    between atoms: O_34  and  C_35
REMARK   20  A    between atoms: O_36  and  C_37
REMARK                            x       y       z     vdW  Elec       q    Type
REMARK                         _______ _______ _______ _____ _____    ______ ____
ROOT
ATOM      1  N   UNL     1      -5.468   3.938  -1.334  0.00  0.00    -0.308 N 
ENDROOT
BRANCH   1   2
ATOM      2  C   UNL     1      -5.178   5.037  -2.059  0.00  0.00    +0.133 C 
ATOM      3  S   UNL     1      -4.236   6.292  -1.375  0.00  0.00    -0.019 S 
BRANCH   2   4
ATOM      4  N   UNL     1      -5.631   5.147  -3.324  0.00  0.00    -0.326 N 
ATOM      5  H   UNL     1      -6.165   4.436  -3.712  0.00  0.00    +0.148 HD
BRANCH   4   6
ATOM      6  C   UNL     1      -5.317   6.341  -4.113  0.00  0.00    +0.101 C 
BRANCH   6   7
ATOM      7  C   UNL     1      -5.945   6.214  -5.502  0.00  0.00    +0.000 C 
BRANCH   7   8
ATOM      8  C   UNL     1      -5.617   7.461  -6.326  0.00  0.00    -0.077 C 
BRANCH   8   9
ATOM      9  N   UNL     1      -6.109   7.260  -7.706  0.00  0.00    +0.379 N 
ATOM     10  H   UNL     1      -5.892   6.300  -8.000  0.00  0.00    -0.082 HD
BRANCH   9  12
ATOM     11  C   UNL     1      -8.083   7.028  -9.131  0.00  0.00    -0.017 C 
ATOM     12  C   UNL     1      -7.572   7.457  -7.754  0.00  0.00    -0.082 C 
ENDBRANCH   9  12
BRANCH   9  13
ATOM     13  C   UNL     1      -5.440   8.207  -8.623  0.00  0.00    -0.082 C 
ATOM     14  C   UNL     1      -4.026   7.697  -8.909  0.00  0.00    -0.017 C 
ENDBRANCH   9  13
ENDBRANCH   8   9
ENDBRANCH   7   8
ENDBRANCH   6   7
ENDBRANCH   4   6
ENDBRANCH   2   4
ENDBRANCH   1   2
BRANCH   1  15
ATOM     15  C   UNL     1      -6.274   2.865  -1.919  0.00  0.00    +0.112 C 
BRANCH  15  16
ATOM     16  C   UNL     1      -7.755   3.127  -1.639  0.00  0.00    +0.054 C 
BRANCH  16  17
ATOM     17  C   UNL     1      -8.584   2.022  -2.241  0.00  0.00    -0.043 A 
ATOM     18  C   UNL     1      -9.139   2.182  -3.497  0.00  0.00    +0.004 A 
ATOM     19  C   UNL     1      -9.896   1.167  -4.052  0.00  0.00    +0.000 A 
ATOM     20  C   UNL     1     -10.106  -0.004  -3.346  0.00  0.00    +0.000 A 
ATOM     21  C   UNL     1      -9.555  -0.161  -2.088  0.00  0.00    +0.003 A 
ATOM     22  C   UNL     1      -8.794   0.853  -1.536  0.00  0.00    -0.047 A 
ATOM     23  C   UNL     1      -8.193   0.682  -0.164  0.00  0.00    +0.044 C 
ENDBRANCH  16  17
ENDBRANCH  15  16
ENDBRANCH   1  15
BRANCH   1  24
ATOM     24  C   UNL     1      -4.976   3.819   0.041  0.00  0.00    +0.147 C 
BRANCH  24  25
ATOM     25  C   UNL     1      -3.625   3.151   0.035  0.00  0.00    +0.035 A 
ATOM     26  C   UNL     1      -2.497   3.906   0.052  0.00  0.00    +0.020 A 
ATOM     27  C   UNL     1      -1.201   3.228   0.040  0.00  0.00    +0.003 A 
ATOM     28  C   UNL     1      -0.005   3.957   0.039  0.00  0.00    +0.059 A 
ATOM     29  C   UNL     1       1.200   3.290   0.028  0.00  0.00    +0.162 A 
ATOM     30  C   UNL     1       1.231   1.891   0.017  0.00  0.00    +0.163 A 
ATOM     31  C   UNL     1       0.056   1.163   0.018  0.00  0.00    +0.075 A 
ATOM     32  C   UNL     1      -1.167   1.820   0.023  0.00  0.00    +0.053 A 
ATOM     33  N   UNL     1      -2.351   1.111   0.018  0.00  0.00    -0.322 N 
ATOM     34  H   UNL     1      -2.326   0.111   0.011  0.00  0.00    +0.169 HD
ATOM     35  C   UNL     1      -3.537   1.744   0.023  0.00  0.00    +0.254 A 
ATOM     36  O   UNL     1      -4.563   1.085   0.018  0.00  0.00    -0.268 OA
BRANCH  30  37
ATOM     37  O   UNL     1       2.425   1.244   0.006  0.00  0.00    -0.491 OA
ATOM     38  C   UNL     1       2.389  -0.184  -0.005  0.00  0.00    +0.277 C 
ENDBRANCH  30  37
BRANCH  29  39
ATOM     39  O   UNL     1       2.364   3.993   0.027  0.00  0.00    -0.491 OA
ATOM     40  C   UNL     1       2.261   5.418   0.038  0.00  0.00    +0.277 C 
ENDBRANCH  29  39
ENDBRANCH  24  25
ENDBRANCH   1  24
TORSDOF 15
