REMARK  Name = ZINC48836158
REMARK  4 active torsions:
REMARK  status: ('A' for Active; 'I' for Inactive)
REMARK    1  A    between atoms: C_4  and  CA_7
REMARK    2  A    between atoms: CA_7  and  C_9
REMARK    3  A    between atoms: CA_7  and  N_12
REMARK    4  A    between atoms: C_18  and  N_21
REMARK                            x       y       z     vdW  Elec       q    Type
REMARK                         _______ _______ _______ _____ _____    ______ ____
ROOT
ATOM      1  N   UNL     1       2.890  -1.926  -2.534  0.00  0.00    -0.286 N 
ATOM      2  C   UNL     1       3.848  -2.583  -3.217  0.00  0.00    +0.303 C 
ATOM      3  O   UNL     1       4.641  -1.964  -3.900  0.00  0.00    -0.253 OA
ATOM      4  N   UNL     1       3.928  -3.927  -3.143  0.00  0.00    -0.286 N 
ATOM      5  C   UNL     1       2.909  -4.698  -2.417  0.00  0.00    +0.108 C 
ATOM      6  C   UNL     1       3.608  -5.595  -1.391  0.00  0.00    +0.003 C 
ATOM      7  C   UNL     1       4.658  -6.453  -2.101  0.00  0.00    -0.072 C 
ATOM      8  C   UNL     1       5.709  -5.546  -2.745  0.00  0.00    +0.003 C 
ATOM      9  C   UNL     1       5.031  -4.649  -3.791  0.00  0.00    +0.108 C 
ATOM     10  H   UNL     1       2.213  -2.423  -2.048  0.00  0.00    +0.151 HD
ENDROOT
BRANCH   7  11
ATOM     11  N   UNL     1       5.307  -7.339  -1.125  0.00  0.00    +0.380 N 
ATOM     12  H   UNL     1       4.614  -7.938  -0.701  0.00  0.00    -0.090 HD
ATOM     13  H   UNL     1       5.999  -7.904  -1.593  0.00  0.00    -0.090 HD
ATOM     14  H   UNL     1       5.753  -6.783  -0.411  0.00  0.00    -0.090 HD
ENDBRANCH   7  11
BRANCH   1  15
ATOM     15  CA  UNL     1       2.871  -0.461  -2.525  0.00  0.00    +0.191 C 
BRANCH  15  19
ATOM     16  C   UNL     1      -0.015   1.526   0.015  0.00  0.00    +0.000 C 
ATOM     17  C   UNL     1       1.421   2.054   0.004  0.00  0.00    +0.000 C 
ATOM     18  C   UNL     1       2.136   1.562  -1.256  0.00  0.00    +0.006 C 
ATOM     19  C   UNL     1       2.156   0.032  -1.265  0.00  0.00    +0.020 C 
ATOM     20  C   UNL     1       0.720  -0.497  -1.254  0.00  0.00    +0.006 C 
ATOM     21  C   UNL     1       0.004  -0.004   0.005  0.00  0.00    +0.000 C 
ENDBRANCH  15  19
BRANCH  15  22
ATOM     22  C   UNL     1       2.142   0.039  -3.745  0.00  0.00    +0.376 C 
ATOM     23  O   UNL     1       2.446   1.112  -4.239  0.00  0.00    -0.244 OA
ATOM     24  OXT UNL     1       1.249  -0.628  -4.238  0.00  0.00    -0.244 OA
ENDBRANCH  15  22
ENDBRANCH   1  15
TORSDOF 4
