REMARK  Name = ZINC02088191
REMARK  6 active torsions:
REMARK  status: ('A' for Active; 'I' for Inactive)
REMARK    1  A    between atoms: C_7  and  C_15
REMARK    2  A    between atoms: N_17  and  C_18
REMARK    3  A    between atoms: C_18  and  C_19
REMARK    4  A    between atoms: C_19  and  C_20
REMARK    5  A    between atoms: C_20  and  N_21
REMARK    6  A    between atoms: C_22  and  C_24
REMARK                            x       y       z     vdW  Elec       q    Type
REMARK                         _______ _______ _______ _____ _____    ______ ____
ROOT
ATOM      1  C   UNL     1      -0.019   1.526   0.010  0.00  0.00    +0.037 C 
ENDROOT
BRANCH   1   2
ATOM      2  C   UNL     1       0.002  -0.004   0.002  0.00  0.00    +0.106 C 
BRANCH   2   5
ATOM      3  C   UNL     1      -1.601  -1.839   0.007  0.00  0.00    +0.225 C 
ATOM      4  O   UNL     1      -0.668  -2.615  -0.006  0.00  0.00    -0.275 OA
ATOM      5  N   UNL     1      -1.372  -0.511   0.012  0.00  0.00    -0.314 N 
ATOM      6  H   UNL     1      -2.118   0.109   0.023  0.00  0.00    +0.149 HD
BRANCH   3  13
ATOM      7  C   UNL     1      -2.711  -5.905  -1.232  0.00  0.00    +0.001 A 
ATOM      8  C   UNL     1      -2.935  -6.634  -0.080  0.00  0.00    +0.004 A 
ATOM      9  C   UNL     1      -3.186  -5.983   1.111  0.00  0.00    +0.046 A 
ATOM     10  C   UNL     1      -3.214  -4.593   1.154  0.00  0.00    +0.133 A 
ATOM     11  C   UNL     1      -2.989  -3.865  -0.003  0.00  0.00    +0.011 A 
ATOM     12  C   UNL     1      -2.738  -4.524  -1.193  0.00  0.00    +0.008 A 
ATOM     13  C   UNL     1      -3.014  -2.361   0.018  0.00  0.00    +0.142 C 
ATOM     14  C   UNL     1      -3.718  -1.863   1.251  0.00  0.00    +0.011 A 
ATOM     15  C   UNL     1      -4.181  -0.559   1.288  0.00  0.00    +0.008 A 
ATOM     16  C   UNL     1      -4.830  -0.083   2.411  0.00  0.00    +0.001 A 
ATOM     17  C   UNL     1      -5.020  -0.910   3.503  0.00  0.00    +0.004 A 
ATOM     18  C   UNL     1      -4.560  -2.211   3.472  0.00  0.00    +0.046 A 
ATOM     19  C   UNL     1      -3.906  -2.693   2.344  0.00  0.00    +0.133 A 
ATOM     20  O   UNL     1      -3.462  -3.973   2.332  0.00  0.00    -0.455 OA
ENDBRANCH   3  13
ENDBRANCH   2   5
ENDBRANCH   1   2
BRANCH   1  21
ATOM     21  C   UNL     1       1.417   2.055  -0.000  0.00  0.00    +0.106 C 
BRANCH  21  22
ATOM     22  N   UNL     1       1.397   3.520   0.008  0.00  0.00    -0.314 N 
ATOM     23  C   UNL     1       2.555   4.210   0.000  0.00  0.00    +0.225 C 
ATOM     24  O   UNL     1       3.613   3.618  -0.013  0.00  0.00    -0.275 OA
ATOM     25  H   UNL     1       0.550   3.994   0.018  0.00  0.00    +0.149 HD
BRANCH  23  26
ATOM     26  C   UNL     1       2.534   5.717   0.009  0.00  0.00    +0.142 C 
ATOM     27  C   UNL     1       1.795   6.210  -1.206  0.00  0.00    +0.011 A 
ATOM     28  C   UNL     1       0.411   6.175  -1.218  0.00  0.00    +0.008 A 
ATOM     29  C   UNL     1      -0.286   6.624  -2.323  0.00  0.00    +0.001 A 
ATOM     30  C   UNL     1       0.398   7.111  -3.422  0.00  0.00    +0.004 A 
ATOM     31  C   UNL     1       1.777   7.148  -3.415  0.00  0.00    +0.046 A 
ATOM     32  C   UNL     1       2.482   6.697  -2.305  0.00  0.00    +0.133 A 
ATOM     33  O   UNL     1       3.836   6.742  -2.317  0.00  0.00    -0.455 OA
ATOM     34  C   UNL     1       4.526   6.718  -1.151  0.00  0.00    +0.133 A 
ATOM     35  C   UNL     1       3.948   6.232   0.010  0.00  0.00    +0.011 A 
ATOM     36  C   UNL     1       4.674   6.220   1.188  0.00  0.00    +0.008 A 
ATOM     37  C   UNL     1       5.973   6.690   1.210  0.00  0.00    +0.001 A 
ATOM     38  C   UNL     1       6.553   7.175   0.052  0.00  0.00    +0.004 A 
ATOM     39  C   UNL     1       5.833   7.190  -1.126  0.00  0.00    +0.046 A 
ENDBRANCH  23  26
ENDBRANCH  21  22
ENDBRANCH   1  21
TORSDOF 6
