REMARK  Name = ZINC20860922
REMARK  7 active torsions:
REMARK  status: ('A' for Active; 'I' for Inactive)
REMARK    1  A    between atoms: C_1  and  C_2
REMARK    2  A    between atoms: C_4  and  S_9
REMARK    3  A    between atoms: S_9  and  C_12
REMARK    4  A    between atoms: C_15  and  S_20
REMARK    5  A    between atoms: S_20  and  C_21
REMARK    6  A    between atoms: C_21  and  C_22
REMARK    7  A    between atoms: N_24  and  C_25
REMARK                            x       y       z     vdW  Elec       q    Type
REMARK                         _______ _______ _______ _____ _____    ______ ____
ROOT
ATOM      1  C   UNL     1       1.676  -0.116  -4.638  0.00  0.00    +0.176 A 
ATOM      2  C   UNL     1       1.946  -0.300  -3.313  0.00  0.00    +0.146 A 
ATOM      3  N   UNL     1       1.165   0.254  -2.389  0.00  0.00    -0.230 NA
ATOM      4  C   UNL     1       0.115   0.979  -2.723  0.00  0.00    +0.169 A 
ATOM      5  N   UNL     1      -0.203   1.196  -4.030  0.00  0.00    -0.300 N 
ATOM      6  H   UNL     1      -1.081   1.807  -4.287  0.00  0.00    +0.171 HD
ATOM      7  C   UNL     1       0.562   0.659  -5.004  0.00  0.00    +0.277 A 
ATOM      8  O   UNL     1       0.292   0.844  -6.179  0.00  0.00    -0.266 OA
ENDROOT
BRANCH   1   9
ATOM      9  S   UNL     1       2.707  -0.839  -5.871  0.00  0.00    +0.032 S 
ATOM     10  O   UNL     1       3.015   0.192  -6.799  0.00  0.00    -0.164 OA
ATOM     11  O   UNL     1       3.712  -1.570  -5.182  0.00  0.00    -0.164 OA
BRANCH   9  15
ATOM     12  C   UNL     1      -0.537  -2.145  -9.756  0.00  0.00    +0.047 C 
ATOM     13  C   UNL     1       0.246  -2.564  -8.538  0.00  0.00    -0.013 A 
ATOM     14  C   UNL     1       1.012  -1.637  -7.856  0.00  0.00    +0.033 A 
ATOM     15  C   UNL     1       1.730  -2.021  -6.739  0.00  0.00    +0.094 A 
ATOM     16  C   UNL     1       1.686  -3.333  -6.305  0.00  0.00    +0.030 A 
ATOM     17  C   UNL     1       0.917  -4.260  -6.982  0.00  0.00    +0.040 A 
ATOM     18  C   UNL     1       0.197  -3.877  -8.102  0.00  0.00    +0.126 A 
ATOM     19  F   UNL     1      -0.552  -4.783  -8.767  0.00  0.00    -0.205 F 
ENDBRANCH   9  15
ENDBRANCH   1   9
BRANCH   4  20
ATOM     20  S   UNL     1      -0.889   1.683  -1.458  0.00  0.00    -0.078 S 
BRANCH  20  21
ATOM     21  C   UNL     1      -0.016   1.080   0.008  0.00  0.00    +0.173 C 
BRANCH  21  22
ATOM     22  C   UNL     1      -0.717   1.573   1.248  0.00  0.00    +0.227 C 
ATOM     23  O   UNL     1      -1.709   2.265   1.150  0.00  0.00    -0.275 OA
ATOM     24  N   UNL     1      -0.242   1.246   2.466  0.00  0.00    -0.285 N 
ATOM     25  H   UNL     1       0.612   0.558   2.557  0.00  0.00    +0.155 HD
BRANCH  24  26
ATOM     26  C   UNL     1      -0.834   1.782   3.616  0.00  0.00    +0.034 A 
ATOM     27  C   UNL     1      -0.053   2.086   4.723  0.00  0.00    +0.026 A 
ATOM     28  C   UNL     1      -0.638   2.620   5.854  0.00  0.00    +0.040 A 
ATOM     29  C   UNL     1      -2.004   2.842   5.889  0.00  0.00    +0.124 A 
ATOM     30  C   UNL     1      -2.786   2.535   4.788  0.00  0.00    +0.040 A 
ATOM     31  C   UNL     1      -2.204   2.006   3.653  0.00  0.00    +0.026 A 
ATOM     32  F   UNL     1      -2.575   3.360   6.998  0.00  0.00    -0.205 F 
ENDBRANCH  24  26
ENDBRANCH  21  22
ENDBRANCH  20  21
ENDBRANCH   4  20
TORSDOF 6
