REMARK  Name = ZINC05274583
REMARK  6 active torsions:
REMARK  status: ('A' for Active; 'I' for Inactive)
REMARK    1  A    between atoms: C_1  and  C_2
REMARK    2  A    between atoms: C_8  and  C_12
REMARK    3  A    between atoms: C_12  and  C_13
REMARK    4  A    between atoms: C_13  and  N_52
REMARK    5  A    between atoms: C_14  and  N_52
REMARK    6  A    between atoms: N_19  and  C_22
REMARK                            x       y       z     vdW  Elec       q    Type
REMARK                         _______ _______ _______ _____ _____    ______ ____
ROOT
ATOM      1  C   UNL     1       0.003  -0.004   0.033  0.00  0.00    +0.026 C 
ATOM      2  C   UNL     1       1.505  -0.345  -0.045  0.00  0.00    +0.090 C 
ATOM      3  C   UNL     1       2.176   1.012  -0.058  0.00  0.00    +0.225 C 
ATOM      4  O   UNL     1       3.372   1.203  -0.112  0.00  0.00    -0.275 OA
ATOM      5  N   UNL     1       1.240   1.966   0.001  0.00  0.00    -0.212 N 
ATOM      6  C   UNL     1      -0.017   1.508   0.055  0.00  0.00    +0.213 C 
ATOM      7  O   UNL     1      -1.014   2.197   0.108  0.00  0.00    -0.277 OA
ENDROOT
BRANCH   5   8
ATOM      8  C   UNL     1       1.550   3.335   0.006  0.00  0.00    +0.048 A 
ATOM      9  C   UNL     1       2.204   3.895   1.094  0.00  0.00    +0.028 A 
ATOM     10  C   UNL     1       2.514   5.241   1.098  0.00  0.00    +0.051 A 
ATOM     11  C   UNL     1       2.163   6.040   0.019  0.00  0.00    +0.162 A 
ATOM     12  C   UNL     1       1.504   5.482  -1.071  0.00  0.00    +0.164 A 
ATOM     13  C   UNL     1       1.198   4.130  -1.075  0.00  0.00    +0.073 A 
ATOM     14  O   UNL     1       1.159   6.248  -2.142  0.00  0.00    -0.485 OA
ATOM     15  C   UNL     1       1.150   7.666  -1.943  0.00  0.00    +0.270 C 
ATOM     16  C   UNL     1       2.440   8.057  -1.209  0.00  0.00    +0.270 C 
ATOM     17  O   UNL     1       2.469   7.366   0.045  0.00  0.00    -0.485 OA
ENDBRANCH   5   8
BRANCH   1  18
ATOM     18  N   UNL     1      -0.702  -0.516  -1.158  0.00  0.00    +0.387 N 
ATOM     19  H   UNL     1      -0.563   0.134  -1.940  0.00  0.00    -0.085 HD
ATOM     20  H   UNL     1      -0.323  -1.437  -1.406  0.00  0.00    -0.085 HD
BRANCH  18  21
ATOM     21  C   UNL     1      -2.146  -0.642  -0.882  0.00  0.00    -0.077 C 
BRANCH  21  22
ATOM     22  C   UNL     1      -2.850  -1.174  -2.132  0.00  0.00    +0.018 C 
BRANCH  22  30
ATOM     23  C   UNL     1      -6.381   3.297  -2.729  0.00  0.00    +0.044 C 
ATOM     24  C   UNL     1      -6.433   1.841  -2.341  0.00  0.00    -0.050 A 
ATOM     25  C   UNL     1      -7.647   1.264  -1.993  0.00  0.00    +0.005 A 
ATOM     26  C   UNL     1      -7.717  -0.066  -1.642  0.00  0.00    +0.026 A 
ATOM     27  C   UNL     1      -6.560  -0.838  -1.624  0.00  0.00    +0.047 A 
ATOM     28  C   UNL     1      -5.332  -0.247  -1.974  0.00  0.00    +0.003 A 
ATOM     29  C   UNL     1      -5.285   1.101  -2.333  0.00  0.00    +0.013 A 
ATOM     30  C   UNL     1      -4.326  -1.306  -1.859  0.00  0.00    -0.024 A 
ATOM     31  C   UNL     1      -4.968  -2.416  -1.460  0.00  0.00    +0.087 A 
ATOM     32  N   UNL     1      -6.303  -2.155  -1.314  0.00  0.00    -0.360 N 
ATOM     33  H   UNL     1      -6.970  -2.801  -1.034  0.00  0.00    +0.165 HD
ENDBRANCH  22  30
ENDBRANCH  21  22
ENDBRANCH  18  21
ENDBRANCH   1  18
TORSDOF 5
