REMARK  Name = ZINC10129256
REMARK  5 active torsions:
REMARK  status: ('A' for Active; 'I' for Inactive)
REMARK    1  A    between atoms: C_3  and  C_7
REMARK    2  A    between atoms: N_9  and  N_10
REMARK    3  A    between atoms: C_11  and  C_12
REMARK    4  A    between atoms: C_15  and  C_17
REMARK    5  A    between atoms: C_22  and  C_23
REMARK                            x       y       z     vdW  Elec       q    Type
REMARK                         _______ _______ _______ _____ _____    ______ ____
ROOT
ATOM      1  C   UNL     1       4.571   8.225   0.003  0.00  0.00    +0.148 A 
ATOM      2  C   UNL     1       4.632   9.603   0.003  0.00  0.00    +0.051 A 
ATOM      3  C   UNL     1       5.988   9.948  -0.001  0.00  0.00    +0.050 A 
ATOM      4  C   UNL     1       6.699   8.781  -0.014  0.00  0.00    +0.137 A 
ATOM      5  O   UNL     1       5.832   7.750  -0.012  0.00  0.00    -0.454 OA
ENDROOT
BRANCH   4   6
ATOM      6  C   UNL     1       8.166   8.670  -0.029  0.00  0.00    +0.031 A 
ATOM      7  C   UNL     1       8.917   9.391  -0.960  0.00  0.00    +0.014 A 
ATOM      8  C   UNL     1      10.291   9.288  -0.966  0.00  0.00    +0.021 A 
ATOM      9  C   UNL     1      10.939   8.461  -0.059  0.00  0.00    +0.042 A 
ATOM     10  C   UNL     1      10.217   7.736   0.867  0.00  0.00    +0.035 A 
ATOM     11  C   UNL     1       8.825   7.830   0.894  0.00  0.00    +0.075 A 
ATOM     12 CL   UNL     1      12.671   8.340  -0.088  0.00  0.00    -0.084 Cl
BRANCH  11  13
ATOM     13  C   UNL     1       8.048   7.059   1.880  0.00  0.00    +0.387 C 
ATOM     14  O   UNL     1       6.836   7.144   1.900  0.00  0.00    -0.241 OA
ATOM     15  O   UNL     1       8.682   6.258   2.759  0.00  0.00    -0.241 OA
ENDBRANCH  11  13
ENDBRANCH   4   6
BRANCH   1  17
ATOM     16  N   UNL     1       3.426   6.120   0.002  0.00  0.00    -0.184 NA
ATOM     17  C   UNL     1       3.349   7.420   0.009  0.00  0.00    +0.176 C 
BRANCH  16  20
ATOM     18  C   UNL     1       2.336   4.003   0.001  0.00  0.00    +0.265 C 
ATOM     19  O   UNL     1       3.424   3.459  -0.011  0.00  0.00    -0.268 OA
ATOM     20  N   UNL     1       2.256   5.348   0.009  0.00  0.00    -0.203 N 
ATOM     21  H   UNL     1       1.389   5.783   0.019  0.00  0.00    +0.178 HD
BRANCH  18  24
ATOM     22  C   UNL     1      -0.013   1.076   0.008  0.00  0.00    +0.020 A 
ATOM     23  C   UNL     1       1.172   1.791   0.001  0.00  0.00    +0.016 A 
ATOM     24  C   UNL     1       1.103   3.190   0.008  0.00  0.00    +0.056 A 
ATOM     25  C   UNL     1      -0.151   3.802   0.023  0.00  0.00    +0.123 A 
ATOM     26  N   UNL     1      -1.251   3.077   0.030  0.00  0.00    -0.263 NA
ATOM     27  C   UNL     1      -1.216   1.758   0.017  0.00  0.00    +0.111 A 
ENDBRANCH  18  24
ENDBRANCH  16  20
ENDBRANCH   1  17
TORSDOF 5
