REMARK  Name = ZINC04914357
REMARK  9 active torsions:
REMARK  status: ('A' for Active; 'I' for Inactive)
REMARK    1  A    between atoms: C_1  and  C_2
REMARK    2  A    between atoms: C_5  and  C_9
REMARK    3  A    between atoms: C_7  and  C_8
REMARK    4  A    between atoms: C_12  and  S_14
REMARK    5  A    between atoms: S_14  and  C_15
REMARK    6  A    between atoms: C_15  and  C_16
REMARK    7  A    between atoms: N_18  and  C_19
REMARK    8  A    between atoms: C_22  and  N_25
REMARK    9  A    between atoms: C_26  and  C_28
REMARK                            x       y       z     vdW  Elec       q    Type
REMARK                         _______ _______ _______ _____ _____    ______ ____
ROOT
ATOM      1  C   UNL     1      -5.797   5.811   0.879  0.00  0.00    +0.175 C 
ENDROOT
BRANCH   1   2
ATOM      2  C   UNL     1      -4.469   5.105   0.779  0.00  0.00    +0.228 C 
ATOM      3  O   UNL     1      -3.441   5.749   0.743  0.00  0.00    -0.275 OA
ATOM      4  N   UNL     1      -4.423   3.759   0.731  0.00  0.00    -0.285 N 
ATOM      5  H   UNL     1      -5.238   3.242   0.827  0.00  0.00    +0.155 HD
BRANCH   4   6
ATOM      6  C   UNL     1      -3.198   3.107   0.541  0.00  0.00    +0.034 A 
ATOM      7  C   UNL     1      -3.144   1.934  -0.201  0.00  0.00    +0.025 A 
ATOM      8  C   UNL     1      -1.937   1.292  -0.389  0.00  0.00    +0.025 A 
ATOM      9  C   UNL     1      -0.777   1.817   0.166  0.00  0.00    +0.033 A 
ATOM     10  C   UNL     1      -0.832   2.986   0.913  0.00  0.00    +0.025 A 
ATOM     11  C   UNL     1      -2.038   3.632   1.096  0.00  0.00    +0.025 A 
BRANCH   9  12
ATOM     12  N   UNL     1       0.448   1.165  -0.025  0.00  0.00    -0.286 N 
ATOM     13  C   UNL     1       0.703   0.535  -1.189  0.00  0.00    +0.214 C 
ATOM     14  O   UNL     1      -0.157   0.466  -2.041  0.00  0.00    -0.276 OA
ATOM     15  C   UNL     1       2.056  -0.082  -1.431  0.00  0.00    +0.109 C 
ATOM     16  H   UNL     1       1.112   1.163   0.683  0.00  0.00    +0.155 HD
ENDBRANCH   9  12
ENDBRANCH   4   6
ENDBRANCH   1   2
BRANCH   1  17
ATOM     17  S   UNL     1      -5.527   7.600   0.924  0.00  0.00    -0.056 S 
BRANCH  17  21
ATOM     18  C   UNL     1      -8.953   9.404   1.179  0.00  0.00    +0.249 A 
ATOM     19  N   UNL     1      -9.314   8.144   1.157  0.00  0.00    -0.106 NA
ATOM     20  N   UNL     1      -8.267   7.401   1.073  0.00  0.00    -0.101 NA
ATOM     21  C   UNL     1      -7.195   8.158   1.038  0.00  0.00    +0.278 A 
ATOM     22  O   UNL     1      -7.604   9.439   1.110  0.00  0.00    -0.411 OA
BRANCH  18  27
ATOM     23  C   UNL     1     -12.466  13.947   1.530  0.00  0.00    +0.044 C 
ATOM     24  C   UNL     1     -11.546  12.757   1.438  0.00  0.00    -0.047 A 
ATOM     25  C   UNL     1     -10.177  12.949   1.368  0.00  0.00    +0.004 A 
ATOM     26  C   UNL     1      -9.329  11.864   1.290  0.00  0.00    +0.013 A 
ATOM     27  C   UNL     1      -9.855  10.570   1.270  0.00  0.00    +0.039 A 
ATOM     28  C   UNL     1     -11.236  10.384   1.341  0.00  0.00    +0.016 A 
ATOM     29  C   UNL     1     -12.073  11.478   1.425  0.00  0.00    -0.047 A 
ATOM     30  C   UNL     1     -13.565  11.280   1.503  0.00  0.00    +0.044 C 
ENDBRANCH  18  27
ENDBRANCH  17  21
ENDBRANCH   1  17
TORSDOF 6
