REMARK  Name = ZINC56163072
REMARK  10 active torsions:
REMARK  status: ('A' for Active; 'I' for Inactive)
REMARK    1  A    between atoms: C_1  and  C_2
REMARK    2  A    between atoms: C_2  and  C_3
REMARK    3  A    between atoms: N_5  and  C_6
REMARK    4  A    between atoms: C_9  and  N_12
REMARK    5  A    between atoms: N_12  and  C_13
REMARK    6  A    between atoms: C_13  and  C_15
REMARK    7  A    between atoms: C_13  and  C_16
REMARK    8  A    between atoms: N_18  and  C_19
REMARK    9  A    between atoms: C_22  and  C_28
REMARK   10  A    between atoms: C_23  and  N_25
REMARK                            x       y       z     vdW  Elec       q    Type
REMARK                         _______ _______ _______ _____ _____    ______ ____
ROOT
ATOM      1  C   UNL     1       3.776  -4.741  -6.609  0.00  0.00    +0.154 C 
ATOM      2  C   UNL     1       2.632  -5.457  -7.330  0.00  0.00    +0.038 C 
ENDROOT
BRANCH   1   3
ATOM      3  C   UNL     1       5.064  -4.974  -7.356  0.00  0.00    +0.237 C 
ATOM      4  O   UNL     1       5.687  -4.032  -7.798  0.00  0.00    -0.273 OA
ATOM      5  N   UNL     1       5.524  -6.229  -7.531  0.00  0.00    -0.284 N 
ATOM      6  H   UNL     1       4.990  -6.986  -7.244  0.00  0.00    +0.155 HD
BRANCH   5   7
ATOM      7  C   UNL     1       6.772  -6.439  -8.128  0.00  0.00    +0.036 A 
ATOM      8  C   UNL     1       6.985  -7.561  -8.918  0.00  0.00    +0.024 A 
ATOM      9  C   UNL     1       8.218  -7.766  -9.505  0.00  0.00    +0.007 A 
ATOM     10  C   UNL     1       9.240  -6.856  -9.308  0.00  0.00    -0.020 A 
ATOM     11  C   UNL     1       9.031  -5.738  -8.522  0.00  0.00    +0.131 A 
ATOM     12  C   UNL     1       7.798  -5.524  -7.936  0.00  0.00    +0.056 A 
ATOM     13  C   UNL     1      10.584  -7.082  -9.950  0.00  0.00    +0.046 C 
BRANCH  11  14
ATOM     14  N   UNL     1      10.127  -4.766  -8.312  0.00  0.00    +0.057 N 
ATOM     15  O   UNL     1      10.268  -4.237  -7.234  0.00  0.00    -0.126 OA
ATOM     16  O   UNL     1      10.882  -4.502  -9.219  0.00  0.00    -0.126 OA
ENDBRANCH  11  14
ENDBRANCH   5   7
ENDBRANCH   1   3
BRANCH   1  17
ATOM     17  N   UNL     1       3.496  -3.304  -6.554  0.00  0.00    -0.333 N 
ATOM     18  H   UNL     1       3.861  -2.713  -7.231  0.00  0.00    +0.147 HD
BRANCH  17  22
ATOM     19  C   UNL     1       1.130  -1.757  -3.491  0.00  0.00    +0.033 A 
ATOM     20  C   UNL     1       1.653  -0.910  -4.459  0.00  0.00    +0.025 A 
ATOM     21  C   UNL     1       2.437  -1.423  -5.474  0.00  0.00    +0.025 A 
ATOM     22  C   UNL     1       2.702  -2.785  -5.526  0.00  0.00    +0.028 A 
ATOM     23  C   UNL     1       2.179  -3.631  -4.557  0.00  0.00    +0.025 A 
ATOM     24  C   UNL     1       1.399  -3.118  -3.540  0.00  0.00    +0.025 A 
BRANCH  19  27
ATOM     25  C   UNL     1       0.408  -1.762  -1.222  0.00  0.00    +0.217 C 
ATOM     26  O   UNL     1       1.099  -2.737  -1.017  0.00  0.00    -0.275 OA
ATOM     27  N   UNL     1       0.334  -1.237  -2.461  0.00  0.00    -0.286 N 
ATOM     28  H   UNL     1      -0.269  -0.499  -2.640  0.00  0.00    +0.155 HD
BRANCH  25  30
ATOM     29  C   UNL     1      -0.110  -1.919   1.198  0.00  0.00    +0.013 C 
ATOM     30  C   UNL     1      -0.367  -1.136  -0.091  0.00  0.00    +0.093 C 
ENDBRANCH  25  30
ENDBRANCH  19  27
ENDBRANCH  17  22
ENDBRANCH   1  17
TORSDOF 7
