REMARK  Name = ZINC12818721
REMARK  10 active torsions:
REMARK  status: ('A' for Active; 'I' for Inactive)
REMARK    1  A    between atoms: C_1  and  C_2
REMARK    2  A    between atoms: C_6  and  N_9
REMARK    3  A    between atoms: C_7  and  C_8
REMARK    4  A    between atoms: C_10  and  C_12
REMARK    5  A    between atoms: C_12  and  N_13
REMARK    6  A    between atoms: C_14  and  C_16
REMARK    7  A    between atoms: C_19  and  S_22
REMARK    8  A    between atoms: S_22  and  N_25
REMARK    9  A    between atoms: C_27  and  C_34
REMARK   10  A    between atoms: C_30  and  C_33
REMARK                            x       y       z     vdW  Elec       q    Type
REMARK                         _______ _______ _______ _____ _____    ______ ____
ROOT
ATOM      1  N   UNL     1      -4.104   2.271  -5.338  0.00  0.00    -0.303 N 
ATOM      2  C   UNL     1      -3.191   3.107  -4.806  0.00  0.00    +0.244 C 
ATOM      3  O   UNL     1      -3.014   4.205  -5.296  0.00  0.00    -0.270 OA
ATOM      4  H   UNL     1      -4.245   1.395  -4.947  0.00  0.00    +0.150 HD
ENDROOT
BRANCH   2   5
ATOM      5  C   UNL     1      -2.405   2.689  -3.626  0.00  0.00    +0.037 A 
ATOM      6  C   UNL     1      -1.459   3.553  -3.072  0.00  0.00    +0.015 A 
ATOM      7  C   UNL     1      -0.728   3.156  -1.971  0.00  0.00    +0.029 A 
ATOM      8  C   UNL     1      -0.932   1.906  -1.416  0.00  0.00    +0.106 A 
ATOM      9  C   UNL     1      -1.865   1.043  -1.963  0.00  0.00    +0.029 A 
ATOM     10  C   UNL     1      -2.606   1.429  -3.061  0.00  0.00    +0.015 A 
BRANCH   8  11
ATOM     11  S   UNL     1       0.006   1.407  -0.010  0.00  0.00    +0.061 S 
ATOM     12  O   UNL     1       0.017  -0.014  -0.012  0.00  0.00    -0.153 OA
ATOM     13  O   UNL     1       1.200   2.177  -0.024  0.00  0.00    -0.153 OA
BRANCH  11  14
ATOM     14  N   UNL     1      -0.842   1.872   1.334  0.00  0.00    -0.176 NA
ATOM     15  C   UNL     1      -0.620   3.192   1.940  0.00  0.00    +0.112 C 
ATOM     16  C   UNL     1      -0.302   3.012   3.423  0.00  0.00    +0.002 C 
ATOM     17  C   UNL     1      -1.414   2.196   4.085  0.00  0.00    +0.009 C 
ATOM     18  C   UNL     1      -1.490   0.812   3.435  0.00  0.00    +0.002 C 
ATOM     19  C   UNL     1      -1.825   0.970   1.948  0.00  0.00    +0.112 C 
ATOM     20  C   UNL     1      -2.580  -0.015   4.119  0.00  0.00    +0.009 C 
ATOM     21  C   UNL     1      -0.204   4.382   4.097  0.00  0.00    +0.009 C 
ENDBRANCH  11  14
ENDBRANCH   8  11
ENDBRANCH   2   5
BRANCH   1  22
ATOM     22  C   UNL     1      -4.883   2.686  -6.508  0.00  0.00    +0.200 C 
BRANCH  22  24
ATOM     23  N   UNL     1      -6.647   1.736  -7.959  0.00  0.00    -0.284 N 
ATOM     24  C   UNL     1      -5.825   1.577  -6.902  0.00  0.00    +0.234 C 
ATOM     25  O   UNL     1      -5.845   0.543  -6.268  0.00  0.00    -0.274 OA
ATOM     26  H   UNL     1      -6.690   2.590  -8.416  0.00  0.00    +0.155 HD
BRANCH  23  32
ATOM     27  C   UNL     1     -10.667   0.120 -10.282  0.00  0.00    +0.044 C 
ATOM     28  C   UNL     1      -9.392  -0.144  -9.524  0.00  0.00    -0.046 A 
ATOM     29  C   UNL     1      -9.002  -1.445  -9.260  0.00  0.00    +0.004 A 
ATOM     30  C   UNL     1      -7.833  -1.692  -8.565  0.00  0.00    +0.002 A 
ATOM     31  C   UNL     1      -7.050  -0.639  -8.132  0.00  0.00    +0.023 A 
ATOM     32  C   UNL     1      -7.438   0.667  -8.396  0.00  0.00    +0.037 A 
ATOM     33  C   UNL     1      -8.616   0.912  -9.089  0.00  0.00    -0.026 A 
ATOM     34  C   UNL     1      -9.045   2.329  -9.371  0.00  0.00    +0.046 C 
ENDBRANCH  23  32
ENDBRANCH  22  24
ENDBRANCH   1  22
TORSDOF 6
