REMARK  Name = ZINC63503459
REMARK  8 active torsions:
REMARK  status: ('A' for Active; 'I' for Inactive)
REMARK    1  A    between atoms: C_1  and  C_2
REMARK    2  A    between atoms: C_19  and  C_21
REMARK    3  A    between atoms: C_21  and  N_22
REMARK    4  A    between atoms: N_22  and  C_23
REMARK    5  A    between atoms: C_23  and  C_24
REMARK    6  A    between atoms: C_24  and  C_25
REMARK    7  A    between atoms: C_28  and  O_34
REMARK    8  A    between atoms: O_34  and  C_35
REMARK                            x       y       z     vdW  Elec       q    Type
REMARK                         _______ _______ _______ _____ _____    ______ ____
ROOT
ATOM      1  C   UNL     1       4.370   1.449   1.271  0.00  0.00    -0.068 C 
ENDROOT
BRANCH   1  17
ATOM      2  C   UNL     1      -0.019   1.526   0.010  0.00  0.00    +0.012 C 
ATOM      3  C   UNL     1       0.002  -0.004   0.002  0.00  0.00    -0.022 C 
ATOM      4  C   UNL     1      -1.429  -0.537   0.016  0.00  0.00    +0.007 C 
ATOM      5  C   UNL     1      -2.179   0.028   1.224  0.00  0.00    +0.005 C 
ATOM      6  C   UNL     1      -1.516  -0.463   2.515  0.00  0.00    +0.030 C 
ATOM      7  C   UNL     1      -0.044  -0.113   2.469  0.00  0.00    -0.073 C 
ATOM      8  C   UNL     1       0.530   0.522   3.461  0.00  0.00    +0.008 C 
ATOM      9  C   UNL     1       0.744  -0.517   1.245  0.00  0.00    +0.021 C 
ATOM     10  C   UNL     1       2.120   0.142   1.282  0.00  0.00    +0.016 C 
ATOM     11  C   UNL     1       2.945  -0.268   0.060  0.00  0.00    +0.042 C 
ATOM     12  C   UNL     1       2.168  -0.009  -1.245  0.00  0.00    +0.181 C 
ATOM     13  C   UNL     1       0.755  -0.501  -1.232  0.00  0.00    +0.052 C 
ATOM     14  O   UNL     1       2.239   1.412  -1.407  0.00  0.00    -0.461 OA
ATOM     15  C   UNL     1       3.493   1.796  -1.078  0.00  0.00    +0.309 C 
ATOM     16  O   UNL     1       4.061   2.774  -1.502  0.00  0.00    -0.251 OA
ATOM     17  C   UNL     1       4.084   0.786  -0.078  0.00  0.00    +0.087 C 
ENDBRANCH   1  17
BRANCH   1  18
ATOM     18  N   UNL     1       5.524   2.349   1.140  0.00  0.00    +0.380 N 
ATOM     19  H   UNL     1       6.332   1.820   0.847  0.00  0.00    -0.086 HD
ATOM     20  H   UNL     1       5.320   3.059   0.453  0.00  0.00    -0.086 HD
BRANCH  18  21
ATOM     21  C   UNL     1       5.799   2.985   2.436  0.00  0.00    -0.078 C 
BRANCH  21  22
ATOM     22  C   UNL     1       7.000   3.922   2.299  0.00  0.00    +0.014 C 
BRANCH  22  23
ATOM     23  C   UNL     1       7.282   4.574   3.628  0.00  0.00    -0.043 C 
ATOM     24  C   UNL     1       8.171   4.166   4.561  0.00  0.00    +0.002 A 
ATOM     25  C   UNL     1       9.106   3.037   4.619  0.00  0.00    +0.055 A 
ATOM     26  C   UNL     1       9.892   2.877   5.711  0.00  0.00    +0.121 A 
ATOM     27  C   UNL     1       9.847   3.760   6.804  0.00  0.00    +0.047 A 
ATOM     28  C   UNL     1       9.020   4.827   6.843  0.00  0.00    +0.029 A 
ATOM     29  C   UNL     1       8.125   5.096   5.714  0.00  0.00    +0.043 A 
ATOM     30  N   UNL     1       7.243   6.040   5.501  0.00  0.00    -0.380 N 
ATOM     31  C   UNL     1       6.632   5.821   4.185  0.00  0.00    +0.144 C 
ATOM     32  H   UNL     1       7.032   6.765   6.109  0.00  0.00    +0.160 HD
BRANCH  26  33
ATOM     33  O   UNL     1      10.753   1.826   5.751  0.00  0.00    -0.495 OA
ATOM     34  C   UNL     1      11.563   1.695   6.921  0.00  0.00    +0.277 C 
ENDBRANCH  26  33
ENDBRANCH  22  23
ENDBRANCH  21  22
ENDBRANCH  18  21
ENDBRANCH   1  18
TORSDOF 6
