REMARK  Name = ZINC11739471
REMARK  4 active torsions:
REMARK  status: ('A' for Active; 'I' for Inactive)
REMARK    1  A    between atoms: C_11  and  C_13
REMARK    2  A    between atoms: C_13  and  S_14
REMARK    3  A    between atoms: S_14  and  C_15
REMARK    4  A    between atoms: C_22  and  C_24
REMARK                            x       y       z     vdW  Elec       q    Type
REMARK                         _______ _______ _______ _____ _____    ______ ____
ROOT
ATOM      1  S   UNL     1      -0.022   1.758   0.004  0.00  0.00    -0.095 S 
ENDROOT
BRANCH   1   2
ATOM      2  C   UNL     1       0.002  -0.004  -0.003  0.00  0.00    +0.120 A 
ATOM      3  C   UNL     1      -1.197  -0.721   0.004  0.00  0.00    +0.040 A 
ATOM      4  C   UNL     1      -1.127  -2.102  -0.002  0.00  0.00    +0.048 A 
ATOM      5  C   UNL     1       0.138  -2.693  -0.015  0.00  0.00    +0.148 A 
ATOM      6  N   UNL     1       1.220  -1.934  -0.022  0.00  0.00    -0.133 NA
ATOM      7  N   UNL     1       1.156  -0.652  -0.021  0.00  0.00    -0.141 NA
ATOM      8  N   UNL     1       0.259  -4.084  -0.022  0.00  0.00    -0.265 N 
ATOM      9  C   UNL     1       1.475  -4.654  -0.138  0.00  0.00    +0.256 C 
ATOM     10  O   UNL     1       2.474  -3.959  -0.144  0.00  0.00    -0.269 OA
ATOM     11  H   UNL     1      -0.532  -4.640   0.058  0.00  0.00    +0.157 HD
BRANCH   9  12
ATOM     12  C   UNL     1       1.594  -6.109  -0.257  0.00  0.00    +0.074 A 
ATOM     13  C   UNL     1       2.735  -6.886  -0.385  0.00  0.00    +0.021 A 
ATOM     14  C   UNL     1       2.560  -8.244  -0.478  0.00  0.00    +0.008 A 
ATOM     15  C   UNL     1       1.302  -8.755  -0.442  0.00  0.00    +0.046 A 
ATOM     16  S   UNL     1       0.307  -7.346  -0.267  0.00  0.00    -0.092 S 
ENDBRANCH   9  12
ENDBRANCH   1   2
BRANCH   1  17
ATOM     17  C   UNL     1       1.731   2.221  -0.009  0.00  0.00    +0.172 C 
BRANCH  17  28
ATOM     18  C   UNL     1       5.105  10.025  -0.008  0.00  0.00    +0.002 A 
ATOM     19  C   UNL     1       3.822  10.555   0.005  0.00  0.00    +0.001 A 
ATOM     20  C   UNL     1       2.736   9.699   0.012  0.00  0.00    +0.017 A 
ATOM     21  C   UNL     1       2.942   8.342   0.005  0.00  0.00    +0.041 A 
ATOM     22  C   UNL     1       4.234   7.767  -0.009  0.00  0.00    +0.080 A 
ATOM     23  C   UNL     1       5.320   8.671  -0.015  0.00  0.00    +0.029 A 
ATOM     24  N   UNL     1       4.272   6.417  -0.014  0.00  0.00    -0.225 NA
ATOM     25  C   UNL     1       3.186   5.680  -0.008  0.00  0.00    +0.165 A 
ATOM     26  S   UNL     1       1.890   6.911   0.001  0.00  0.00    -0.052 S 
ATOM     27  N   UNL     1       3.073   4.299  -0.012  0.00  0.00    -0.264 N 
ATOM     28  C   UNL     1       1.855   3.723  -0.004  0.00  0.00    +0.229 C 
ATOM     29  O   UNL     1       0.857   4.413   0.008  0.00  0.00    -0.275 OA
ATOM     30  H   UNL     1       3.870   3.747  -0.022  0.00  0.00    +0.157 HD
ENDBRANCH  17  28
ENDBRANCH   1  17
TORSDOF 4
