REMARK  Name = ZINC29717142
REMARK  8 active torsions:
REMARK  status: ('A' for Active; 'I' for Inactive)
REMARK    1  A    between atoms: C_1  and  N_2
REMARK    2  A    between atoms: N_2  and  C_3
REMARK    3  A    between atoms: C_6  and  N_26
REMARK    4  A    between atoms: C_8  and  C_9
REMARK    5  A    between atoms: N_11  and  C_12
REMARK    6  A    between atoms: C_12  and  C_13
REMARK    7  A    between atoms: C_16  and  C_19
REMARK    8  A    between atoms: C_19  and  N_20
REMARK                            x       y       z     vdW  Elec       q    Type
REMARK                         _______ _______ _______ _____ _____    ______ ____
ROOT
ATOM      1  C   UNL     1       1.138   2.150   0.029  0.00  0.00    +0.246 C 
ATOM      2  O   UNL     1       2.199   1.556  -0.000  0.00  0.00    -0.270 OA
ATOM      3  N   UNL     1      -0.020   1.462   0.067  0.00  0.00    -0.307 N 
ATOM      4  H   UNL     1      -0.979   2.000   0.093  0.00  0.00    +0.149 HD
ENDROOT
BRANCH   1  10
ATOM      5  C   UNL     1       2.320   4.347   0.103  0.00  0.00    +0.039 A 
ATOM      6  C   UNL     1       2.289   5.736   0.097  0.00  0.00    +0.026 A 
ATOM      7  C   UNL     1       1.082   6.399   0.013  0.00  0.00    +0.034 A 
ATOM      8  C   UNL     1      -0.106   5.689  -0.066  0.00  0.00    +0.127 A 
ATOM      9  C   UNL     1      -0.094   4.312  -0.067  0.00  0.00    +0.047 A 
ATOM     10  C   UNL     1       1.119   3.625   0.024  0.00  0.00    +0.060 A 
BRANCH   5  12
ATOM     11  C   UNL     1       4.773   4.429   0.394  0.00  0.00    +0.125 C 
ATOM     12  N   UNL     1       3.533   3.676   0.188  0.00  0.00    -0.346 N 
ATOM     13  H   UNL     1       3.563   2.580   0.100  0.00  0.00    +0.146 HD
ENDBRANCH   5  12
BRANCH   8  14
ATOM     14  N   UNL     1      -1.393   6.415  -0.156  0.00  0.00    +0.056 N 
ATOM     15  O   UNL     1      -1.406   7.633  -0.160  0.00  0.00    -0.126 OA
ATOM     16  O   UNL     1      -2.438   5.794  -0.225  0.00  0.00    -0.126 OA
ENDBRANCH   8  14
ENDBRANCH   1  10
BRANCH   3  17
ATOM     17  C   UNL     1      -0.001  -0.003   0.072  0.00  0.00    +0.139 C 
BRANCH  17  18
ATOM     18  C   UNL     1      -1.414  -0.524   0.117  0.00  0.00    -0.030 A 
ATOM     19  C   UNL     1      -2.025  -0.763   1.334  0.00  0.00    +0.005 A 
ATOM     20  C   UNL     1      -3.323  -1.236   1.375  0.00  0.00    +0.005 A 
ATOM     21  C   UNL     1      -4.008  -1.479   0.198  0.00  0.00    -0.033 A 
ATOM     22  C   UNL     1      -3.395  -1.245  -1.019  0.00  0.00    +0.005 A 
ATOM     23  C   UNL     1      -2.099  -0.767  -1.060  0.00  0.00    +0.005 A 
BRANCH  21  24
ATOM     24  C   UNL     1      -5.421  -1.998   0.243  0.00  0.00    +0.119 C 
BRANCH  24  25
ATOM     25  N   UNL     1      -5.404  -3.467   0.247  0.00  0.00    -0.294 NA
ATOM     26  C   UNL     1      -4.885  -3.992  -1.025  0.00  0.00    +0.113 C 
ATOM     27  C   UNL     1      -4.828  -5.520  -0.955  0.00  0.00    +0.175 C 
ATOM     28  O   UNL     1      -6.130  -6.027  -0.650  0.00  0.00    -0.377 OA
ATOM     29  C   UNL     1      -6.665  -5.538   0.582  0.00  0.00    +0.175 C 
ATOM     30  C   UNL     1      -6.741  -4.010   0.528  0.00  0.00    +0.113 C 
ENDBRANCH  24  25
ENDBRANCH  21  24
ENDBRANCH  17  18
ENDBRANCH   3  17
TORSDOF 7
