REMARK  Name = ZINC13977281
REMARK  7 active torsions:
REMARK  status: ('A' for Active; 'I' for Inactive)
REMARK    1  A    between atoms: C_6  and  C_7
REMARK    2  A    between atoms: C_8  and  C_9
REMARK    3  A    between atoms: N_11  and  C_12
REMARK    4  A    between atoms: C_12  and  N_14
REMARK    5  A    between atoms: N_14  and  N_15
REMARK    6  A    between atoms: C_16  and  C_18
REMARK    7  A    between atoms: C_22  and  N_24
REMARK                            x       y       z     vdW  Elec       q    Type
REMARK                         _______ _______ _______ _____ _____    ______ ____
ROOT
ATOM      1  N   UNL     1       3.478   1.934  -0.021  0.00  0.00    -0.245 N 
ATOM      2  H   UNL     1       4.324   1.461  -0.031  0.00  0.00    +0.172 HD
ENDROOT
BRANCH   1   3
ATOM      3  N   UNL     1       3.458   3.335  -0.013  0.00  0.00    -0.231 N 
ATOM      4  C   UNL     1       4.616   4.025  -0.020  0.00  0.00    +0.260 C 
ATOM      5  O   UNL     1       5.677   3.431  -0.034  0.00  0.00    -0.269 OA
ATOM      6  H   UNL     1       2.612   3.808  -0.002  0.00  0.00    +0.173 HD
BRANCH   4   7
ATOM      7  C   UNL     1       4.596   5.502  -0.012  0.00  0.00    +0.040 A 
ATOM      8  C   UNL     1       3.379   6.187  -0.003  0.00  0.00    +0.014 A 
ATOM      9  C   UNL     1       3.367   7.565   0.010  0.00  0.00    +0.023 A 
ATOM     10  C   UNL     1       4.559   8.272   0.002  0.00  0.00    +0.071 A 
ATOM     11  C   UNL     1       5.769   7.598  -0.013  0.00  0.00    +0.145 A 
ATOM     12  C   UNL     1       5.794   6.220  -0.020  0.00  0.00    +0.047 A 
ATOM     13 CL   UNL     1       4.535  10.007   0.011  0.00  0.00    -0.081 Cl
BRANCH  11  14
ATOM     14  N   UNL     1       7.038   8.360  -0.020  0.00  0.00    +0.058 N 
ATOM     15  O   UNL     1       8.103   7.769  -0.033  0.00  0.00    -0.126 OA
ATOM     16  O   UNL     1       7.017   9.578  -0.014  0.00  0.00    -0.126 OA
ENDBRANCH  11  14
ENDBRANCH   4   7
ENDBRANCH   1   3
BRANCH   1  17
ATOM     17  C   UNL     1       2.320   1.244  -0.013  0.00  0.00    +0.153 C 
ATOM     18  S   UNL     1       2.343  -0.467  -0.023  0.00  0.00    -0.017 S 
BRANCH  17  21
ATOM     19  C   UNL     1      -0.014   1.213   0.009  0.00  0.00    +0.242 C 
ATOM     20  O   UNL     1       0.002  -0.004   0.002  0.00  0.00    -0.270 OA
ATOM     21  N   UNL     1       1.143   1.902   0.001  0.00  0.00    -0.263 N 
ATOM     22  H   UNL     1       1.130   2.872   0.007  0.00  0.00    +0.157 HD
BRANCH  19  24
ATOM     23  C   UNL     1      -2.450   1.236   0.020  0.00  0.00    +0.013 C 
ATOM     24  C   UNL     1      -1.290   1.927   0.019  0.00  0.00    +0.068 C 
BRANCH  23  30
ATOM     25  C   UNL     1      -3.756   3.353   0.044  0.00  0.00    +0.011 A 
ATOM     26  C   UNL     1      -4.962   4.019   0.049  0.00  0.00    +0.039 A 
ATOM     27  C   UNL     1      -6.152   3.306   0.051  0.00  0.00    +0.123 A 
ATOM     28  C   UNL     1      -6.137   1.920   0.042  0.00  0.00    +0.039 A 
ATOM     29  C   UNL     1      -4.938   1.241   0.032  0.00  0.00    +0.011 A 
ATOM     30  C   UNL     1      -3.734   1.954   0.030  0.00  0.00    -0.025 A 
ATOM     31  F   UNL     1      -7.331   3.966   0.061  0.00  0.00    -0.205 F 
ENDBRANCH  23  30
ENDBRANCH  19  24
ENDBRANCH  17  21
ENDBRANCH   1  17
TORSDOF 7
