REMARK  Name = ZINC08133887
REMARK  8 active torsions:
REMARK  status: ('A' for Active; 'I' for Inactive)
REMARK    1  A    between atoms: C_1  and  C_2
REMARK    2  A    between atoms: C_2  and  O_3
REMARK    3  A    between atoms: O_3  and  C_4
REMARK    4  A    between atoms: C_9  and  C_10
REMARK    5  A    between atoms: C_10  and  N_11
REMARK    6  A    between atoms: C_12  and  C_14
REMARK    7  A    between atoms: C_14  and  N_15
REMARK    8  A    between atoms: C_29  and  C_32
REMARK                            x       y       z     vdW  Elec       q    Type
REMARK                         _______ _______ _______ _____ _____    ______ ____
ROOT
ATOM      1  N   UNL     1       3.042   0.997   1.339  0.00  0.00    -0.310 N 
ATOM      2  C   UNL     1       4.218   0.380   1.566  0.00  0.00    +0.235 C 
ATOM      3  O   UNL     1       4.816  -0.143   0.650  0.00  0.00    -0.274 OA
ATOM      4  H   UNL     1       2.564   1.415   2.071  0.00  0.00    +0.149 HD
ENDROOT
BRANCH   1   5
ATOM      5  C   UNL     1       2.486   1.036  -0.016  0.00  0.00    +0.143 C 
BRANCH   5  11
ATOM      6  C   UNL     1       1.167   3.165   0.009  0.00  0.00    +0.126 A 
ATOM      7  C   UNL     1      -0.044   3.845   0.020  0.00  0.00    +0.053 A 
ATOM      8  C   UNL     1      -1.227   3.141   0.023  0.00  0.00    +0.001 A 
ATOM      9  C   UNL     1      -1.229   1.752   0.017  0.00  0.00    +0.125 A 
ATOM     10  C   UNL     1      -0.013   1.076   0.008  0.00  0.00    +0.054 A 
ATOM     11  C   UNL     1       1.175   1.779   0.000  0.00  0.00    +0.015 A 
ATOM     12  O   UNL     1      -2.500   1.262   0.038  0.00  0.00    -0.488 OA
ATOM     13  C   UNL     1      -3.410   2.287  -0.398  0.00  0.00    +0.175 C 
ATOM     14  C   UNL     1      -2.676   3.588   0.017  0.00  0.00    +0.083 C 
ATOM     15  C   UNL     1      -3.611   2.224  -1.913  0.00  0.00    +0.052 C 
BRANCH   6  16
ATOM     16  O   UNL     1       2.338   3.856   0.006  0.00  0.00    -0.492 OA
BRANCH  16  18
ATOM     17  C   UNL     1       3.659   5.879   0.010  0.00  0.00    +0.048 C 
ATOM     18  C   UNL     1       2.251   5.282   0.015  0.00  0.00    +0.225 C 
ENDBRANCH  16  18
ENDBRANCH   6  16
ENDBRANCH   5  11
ENDBRANCH   1   5
BRANCH   2  19
ATOM     19  C   UNL     1       4.790   0.339   2.960  0.00  0.00    +0.240 C 
BRANCH  19  20
ATOM     20  N   UNL     1       6.065  -0.383   2.944  0.00  0.00    -0.240 N 
ATOM     21  C   UNL     1       7.204   0.306   2.732  0.00  0.00    +0.274 A 
ATOM     22  O   UNL     1       7.168   1.508   2.558  0.00  0.00    -0.266 OA
ATOM     23  C   UNL     1       8.496  -0.412   2.713  0.00  0.00    +0.053 A 
ATOM     24  C   UNL     1       9.695   0.253   2.500  0.00  0.00    +0.014 A 
ATOM     25  C   UNL     1      10.881  -0.460   2.491  0.00  0.00    +0.001 A 
ATOM     26  C   UNL     1      10.880  -1.829   2.694  0.00  0.00    +0.001 A 
ATOM     27  C   UNL     1       9.693  -2.507   2.909  0.00  0.00    +0.014 A 
ATOM     28  C   UNL     1       8.495  -1.806   2.920  0.00  0.00    +0.053 A 
ATOM     29  C   UNL     1       7.201  -2.486   3.145  0.00  0.00    +0.271 A 
ATOM     30  O   UNL     1       7.163  -3.687   3.327  0.00  0.00    -0.266 OA
ATOM     31  N   UNL     1       6.064  -1.762   3.154  0.00  0.00    -0.260 N 
ATOM     32  H   UNL     1       5.220  -2.215   3.306  0.00  0.00    +0.190 HD
ENDBRANCH  19  20
ENDBRANCH   2  19
TORSDOF 6
