REMARK  Name = ZINC39674658
REMARK  7 active torsions:
REMARK  status: ('A' for Active; 'I' for Inactive)
REMARK    1  A    between atoms: C_1  and  C_2
REMARK    2  A    between atoms: C_4  and  C_14
REMARK    3  A    between atoms: C_7  and  C_12
REMARK    4  A    between atoms: C_14  and  C_15
REMARK    5  A    between atoms: C_15  and  N_16
REMARK    6  A    between atoms: C_17  and  C_19
REMARK    7  A    between atoms: C_30  and  C_32
REMARK                            x       y       z     vdW  Elec       q    Type
REMARK                         _______ _______ _______ _____ _____    ______ ____
ROOT
ATOM      1  C   UNL     1      -7.117  -1.145  -2.399  0.00  0.00    +0.100 C 
ATOM      2  C   UNL     1      -6.661  -1.633  -3.792  0.00  0.00    +0.121 C 
ATOM      3  N   UNL     1      -7.189  -3.014  -3.897  0.00  0.00    -0.296 N 
ATOM      4  C   UNL     1      -8.532  -2.943  -3.272  0.00  0.00    +0.115 C 
ATOM      5  C   UNL     1      -8.348  -2.005  -2.062  0.00  0.00    -0.004 C 
ATOM      6  C   UNL     1      -9.578  -1.120  -1.888  0.00  0.00    -0.010 C 
ATOM      7  C   UNL     1     -10.776  -1.990  -1.496  0.00  0.00    -0.082 C 
ATOM      8  N   UNL     1     -10.478  -2.702  -0.247  0.00  0.00    +0.379 N 
ATOM      9  C   UNL     1      -9.351  -3.620  -0.451  0.00  0.00    -0.082 C 
ATOM     10  C   UNL     1      -8.094  -2.819  -0.797  0.00  0.00    -0.010 C 
ATOM     11  C   UNL     1      -6.586  -4.091  -4.438  0.00  0.00    +0.249 C 
ATOM     12  O   UNL     1      -5.437  -4.012  -4.828  0.00  0.00    -0.270 OA
ATOM     13  H   UNL     1     -10.241  -2.034   0.470  0.00  0.00    -0.086 HD
ATOM     14  H   UNL     1     -11.290  -3.227   0.040  0.00  0.00    -0.086 HD
ENDROOT
BRANCH  11  15
ATOM     15  C   UNL     1      -7.320  -5.365  -4.558  0.00  0.00    +0.072 A 
ATOM     16  C   UNL     1      -8.691  -5.363  -4.829  0.00  0.00    +0.019 A 
ATOM     17  C   UNL     1      -9.371  -6.555  -4.940  0.00  0.00    +0.039 A 
ATOM     18  C   UNL     1      -8.699  -7.759  -4.783  0.00  0.00    +0.126 A 
ATOM     19  C   UNL     1      -7.341  -7.771  -4.513  0.00  0.00    +0.077 A 
ATOM     20  C   UNL     1      -6.645  -6.581  -4.406  0.00  0.00    +0.138 A 
ATOM     21  F   UNL     1      -5.319  -6.593  -4.149  0.00  0.00    -0.205 F 
ATOM     22  F   UNL     1      -9.373  -8.925  -4.892  0.00  0.00    -0.205 F 
ENDBRANCH  11  15
BRANCH   1  24
ATOM     23  N   UNL     1      -5.909  -0.537  -0.328  0.00  0.00    -0.315 N 
ATOM     24  C   UNL     1      -6.027  -1.369  -1.382  0.00  0.00    +0.218 C 
ATOM     25  O   UNL     1      -5.257  -2.296  -1.512  0.00  0.00    -0.275 OA
ATOM     26  H   UNL     1      -6.525   0.205  -0.223  0.00  0.00    +0.149 HD
BRANCH  23  27
ATOM     27  C   UNL     1      -4.850  -0.754   0.661  0.00  0.00    +0.108 C 
BRANCH  27  28
ATOM     28  C   UNL     1      -4.937   0.321   1.746  0.00  0.00    +0.052 C 
BRANCH  28  31
ATOM     29  C   UNL     1      -4.783   0.900   4.931  0.00  0.00    +0.035 C 
ATOM     30  C   UNL     1      -3.572   0.927   3.997  0.00  0.00    +0.103 C 
ATOM     31  C   UNL     1      -3.847   0.098   2.763  0.00  0.00    -0.037 C 
ATOM     32  C   UNL     1      -2.915  -0.888   2.757  0.00  0.00    +0.000 A 
ATOM     33  C   UNL     1      -2.674  -1.959   1.856  0.00  0.00    +0.028 A 
ATOM     34  C   UNL     1      -1.640  -2.837   2.087  0.00  0.00    +0.052 A 
ATOM     35  C   UNL     1      -0.772  -2.694   3.251  0.00  0.00    +0.021 A 
ATOM     36  C   UNL     1      -0.953  -1.696   4.140  0.00  0.00    +0.027 A 
ATOM     37  C   UNL     1      -2.041  -0.733   3.941  0.00  0.00    +0.043 A 
ATOM     38  N   UNL     1      -2.415   0.305   4.651  0.00  0.00    -0.378 N 
ATOM     39  H   UNL     1      -1.998   0.611   5.471  0.00  0.00    +0.160 HD
BRANCH  34  40
ATOM     40  C   UNL     1      -1.412  -3.911   1.168  0.00  0.00    +0.099 C 
ATOM     41  N   UNL     1      -1.231  -4.763   0.439  0.00  0.00    -0.191 NA
ENDBRANCH  34  40
ENDBRANCH  28  31
ENDBRANCH  27  28
ENDBRANCH  23  27
ENDBRANCH   1  24
TORSDOF 6
