REMARK  Name = ZINC06155179
REMARK  7 active torsions:
REMARK  status: ('A' for Active; 'I' for Inactive)
REMARK    1  A    between atoms: C_4  and  S_7
REMARK    2  A    between atoms: S_7  and  N_10
REMARK    3  A    between atoms: N_10  and  C_11
REMARK    4  A    between atoms: C_15  and  C_17
REMARK    5  A    between atoms: C_17  and  C_19
REMARK    6  A    between atoms: C_19  and  C_20
REMARK    7  A    between atoms: C_20  and  O_31
REMARK                            x       y       z     vdW  Elec       q    Type
REMARK                         _______ _______ _______ _____ _____    ______ ____
ROOT
ATOM      1  C   UNL     1       2.098   5.203  -2.324  0.00  0.00    +0.049 A 
ATOM      2  C   UNL     1       0.726   5.171  -2.100  0.00  0.00    +0.024 A 
ATOM      3  C   UNL     1      -0.115   6.018  -2.797  0.00  0.00    +0.003 A 
ATOM      4  C   UNL     1       0.400   6.896  -3.729  0.00  0.00    +0.011 A 
ATOM      5  C   UNL     1       1.778   6.933  -3.967  0.00  0.00    +0.019 A 
ATOM      6  C   UNL     1       2.627   6.080  -3.257  0.00  0.00    +0.035 A 
ENDROOT
BRANCH   1   7
ATOM      7  N   UNL     1       2.942   4.348  -1.611  0.00  0.00    -0.216 N 
ATOM      8  H   UNL     1       3.319   3.567  -2.045  0.00  0.00    +0.174 HD
BRANCH   7   9
ATOM      9  S   UNL     1       3.299   4.667  -0.026  0.00  0.00    +0.072 S 
ATOM     10  O   UNL     1       4.232   3.679   0.388  0.00  0.00    -0.150 OA
ATOM     11  O   UNL     1       2.058   4.868   0.637  0.00  0.00    -0.150 OA
BRANCH   9  15
ATOM     12  C   UNL     1       5.478   8.633   0.077  0.00  0.00    +0.000 A 
ATOM     13  C   UNL     1       4.114   8.588   0.296  0.00  0.00    +0.002 A 
ATOM     14  C   UNL     1       3.448   7.378   0.264  0.00  0.00    +0.029 A 
ATOM     15  C   UNL     1       4.147   6.211   0.016  0.00  0.00    +0.108 A 
ATOM     16  C   UNL     1       5.512   6.255  -0.198  0.00  0.00    +0.029 A 
ATOM     17  C   UNL     1       6.178   7.466  -0.166  0.00  0.00    +0.002 A 
ENDBRANCH   9  15
ENDBRANCH   7   9
ENDBRANCH   1   7
BRANCH   5  18
ATOM     18  C   UNL     1       2.331   7.868  -4.960  0.00  0.00    +0.167 C 
ATOM     19  O   UNL     1       3.526   7.898  -5.165  0.00  0.00    -0.292 OA
BRANCH  18  20
ATOM     20  C   UNL     1       1.412   8.787  -5.724  0.00  0.00    +0.129 C 
BRANCH  20  21
ATOM     21  C   UNL     1       2.235   9.647  -6.685  0.00  0.00    +0.175 C 
ATOM     22  C   UNL     1       1.328  10.511  -7.531  0.00  0.00    +0.015 A 
ATOM     23  C   UNL     1       0.422  11.500  -7.222  0.00  0.00    +0.024 A 
ATOM     24  C   UNL     1      -0.282  12.131  -8.234  0.00  0.00    +0.018 A 
ATOM     25  C   UNL     1      -0.071  11.765  -9.551  0.00  0.00    +0.017 A 
ATOM     26  C   UNL     1       0.837  10.774  -9.863  0.00  0.00    +0.025 A 
ATOM     27  C   UNL     1       1.549  10.134  -8.850  0.00  0.00    +0.040 A 
ATOM     28  N   UNL     1       2.506   9.120  -8.908  0.00  0.00    -0.282 N 
ATOM     29  C   UNL     1       2.958   8.776  -7.691  0.00  0.00    +0.254 C 
ATOM     30  O   UNL     1       3.788   7.927  -7.443  0.00  0.00    -0.272 OA
ATOM     31 BR   UNL     1      -1.528  13.491  -7.816  0.00  0.00    -0.050 Br
ATOM     32  H   UNL     1       2.809   8.710  -9.733  0.00  0.00    +0.155 HD
BRANCH  21  33
ATOM     33  O   UNL     1       3.166  10.453  -5.961  0.00  0.00    -0.374 OA
ATOM     34  H   UNL     1       3.792   9.947  -5.425  0.00  0.00    +0.211 HD
ENDBRANCH  21  33
ENDBRANCH  20  21
ENDBRANCH  18  20
ENDBRANCH   5  18
TORSDOF 7
