REMARK  Name = ZINC39696362
REMARK  9 active torsions:
REMARK  status: ('A' for Active; 'I' for Inactive)
REMARK    1  A    between atoms: C_1  and  C_2
REMARK    2  A    between atoms: C_2  and  C_3
REMARK    3  A    between atoms: C_2  and  C_4
REMARK    4  A    between atoms: C_2  and  S_5
REMARK    5  A    between atoms: S_5  and  C_6
REMARK    6  A    between atoms: C_6  and  C_7
REMARK    7  A    between atoms: C_7  and  N_8
REMARK    8  A    between atoms: C_9  and  C_11
REMARK    9  A    between atoms: C_22  and  C_24
REMARK                            x       y       z     vdW  Elec       q    Type
REMARK                         _______ _______ _______ _____ _____    ______ ____
ROOT
ATOM      1  C   UNL     1       6.994   0.612  -3.300  0.00  0.00    +0.100 C 
ATOM      2  C   UNL     1       6.941   2.149  -3.449  0.00  0.00    +0.121 C 
ATOM      3  N   UNL     1       8.164   2.493  -4.213  0.00  0.00    -0.296 N 
ATOM      4  C   UNL     1       8.286   1.411  -5.220  0.00  0.00    +0.115 C 
ATOM      5  C   UNL     1       7.877   0.132  -4.464  0.00  0.00    -0.004 C 
ATOM      6  C   UNL     1       7.083  -0.792  -5.383  0.00  0.00    -0.010 C 
ATOM      7  C   UNL     1       7.998  -1.303  -6.500  0.00  0.00    -0.082 C 
ATOM      8  N   UNL     1       9.135  -2.022  -5.913  0.00  0.00    +0.379 N 
ATOM      9  C   UNL     1       9.946  -1.103  -5.105  0.00  0.00    -0.082 C 
ATOM     10  C   UNL     1       9.113  -0.584  -3.929  0.00  0.00    -0.010 C 
ATOM     11  C   UNL     1       8.981   3.550  -4.032  0.00  0.00    +0.249 C 
ATOM     12  O   UNL     1       9.953   3.695  -4.747  0.00  0.00    -0.270 OA
ATOM     13  H   UNL     1       8.792  -2.770  -5.328  0.00  0.00    -0.086 HD
ATOM     14  H   UNL     1       9.703  -2.410  -6.651  0.00  0.00    -0.086 HD
ENDROOT
BRANCH  11  15
ATOM     15  C   UNL     1       8.694   4.531  -2.966  0.00  0.00    +0.073 A 
ATOM     16  C   UNL     1       9.228   4.354  -1.687  0.00  0.00    +0.054 A 
ATOM     17  C   UNL     1       8.956   5.276  -0.695  0.00  0.00    +0.021 A 
ATOM     18  C   UNL     1       8.157   6.372  -0.966  0.00  0.00    +0.003 A 
ATOM     19  C   UNL     1       7.624   6.553  -2.229  0.00  0.00    +0.021 A 
ATOM     20  C   UNL     1       7.892   5.644  -3.233  0.00  0.00    +0.054 A 
ATOM     21 CL   UNL     1       7.229   5.878  -4.820  0.00  0.00    -0.083 Cl
ATOM     22 CL   UNL     1      10.231   2.978  -1.345  0.00  0.00    -0.083 Cl
ENDBRANCH  11  15
BRANCH   1  24
ATOM     23  N   UNL     1       5.311  -1.125  -2.780  0.00  0.00    -0.314 N 
ATOM     24  C   UNL     1       5.610   0.026  -3.414  0.00  0.00    +0.218 C 
ATOM     25  O   UNL     1       4.766   0.590  -4.077  0.00  0.00    -0.275 OA
ATOM     26  H   UNL     1       5.987  -1.576  -2.249  0.00  0.00    +0.149 HD
BRANCH  23  27
ATOM     27  C   UNL     1       3.966  -1.695  -2.891  0.00  0.00    +0.115 C 
BRANCH  27  28
ATOM     28  C   UNL     1       3.893  -2.992  -2.082  0.00  0.00    +0.088 C 
BRANCH  28  29
ATOM     29  S   UNL     1       2.228  -3.697  -2.220  0.00  0.00    -0.153 S 
BRANCH  29  31
ATOM     30  C   UNL     1       2.662  -4.846   0.224  0.00  0.00    +0.022 C 
ATOM     31  C   UNL     1       2.307  -5.208  -1.220  0.00  0.00    +0.008 C 
ATOM     32  C   UNL     1       3.377  -6.141  -1.789  0.00  0.00    +0.022 C 
ATOM     33  C   UNL     1       0.948  -5.911  -1.249  0.00  0.00    +0.022 C 
ENDBRANCH  29  31
ENDBRANCH  28  29
ENDBRANCH  27  28
ENDBRANCH  23  27
ENDBRANCH   1  24
TORSDOF 6
