REMARK  Name = ZINC16608955
REMARK  12 active torsions:
REMARK  status: ('A' for Active; 'I' for Inactive)
REMARK    1  A    between atoms: C_1  and  C_2
REMARK    2  A    between atoms: C_3  and  C_30
REMARK    3  A    between atoms: C_4  and  C_11
REMARK    4  A    between atoms: N_9  and  C_10
REMARK    5  A    between atoms: C_14  and  N_17
REMARK    6  A    between atoms: C_18  and  C_20
REMARK    7  A    between atoms: C_24  and  C_26
REMARK    8  A    between atoms: C_30  and  O_32
REMARK    9  A    between atoms: O_32  and  C_33
REMARK   10  A    between atoms: C_33  and  C_34
REMARK   11  A    between atoms: C_34  and  C_35
REMARK   12  A    between atoms: C_34  and  C_36
REMARK                            x       y       z     vdW  Elec       q    Type
REMARK                         _______ _______ _______ _____ _____    ______ ____
ROOT
ATOM      1  C   UNL     1       2.289  -0.524  -2.420  0.00  0.00    -0.022 A 
ATOM      2  C   UNL     1       3.178  -1.133  -1.554  0.00  0.00    +0.007 A 
ATOM      3  C   UNL     1       3.878  -0.375  -0.636  0.00  0.00    +0.023 A 
ATOM      4  C   UNL     1       3.680   0.998  -0.576  0.00  0.00    +0.034 A 
ATOM      5  C   UNL     1       2.782   1.606  -1.444  0.00  0.00    +0.023 A 
ATOM      6  C   UNL     1       2.089   0.843  -2.364  0.00  0.00    +0.007 A 
ENDROOT
BRANCH   1  10
ATOM      7  C   UNL     1      -0.853  -4.048  -2.039  0.00  0.00    +0.061 C 
ATOM      8  C   UNL     1       0.291  -3.357  -2.735  0.00  0.00    +0.021 C 
ATOM      9  C   UNL     1       0.367  -2.008  -2.708  0.00  0.00    +0.078 C 
ATOM     10  C   UNL     1       1.531  -1.354  -3.425  0.00  0.00    +0.141 C 
ATOM     11  N   UNL     1       2.495  -2.248  -4.087  0.00  0.00    -0.315 N 
ATOM     12  C   UNL     1       2.282  -3.578  -4.026  0.00  0.00    +0.137 C 
ATOM     13  S   UNL     1       3.391  -4.630  -4.798  0.00  0.00    -0.018 S 
ATOM     14  N   UNL     1       1.232  -4.103  -3.382  0.00  0.00    -0.289 N 
ATOM     15  C   UNL     1       1.087  -5.561  -3.371  0.00  0.00    +0.137 C 
ATOM     16  H   UNL     1       3.262  -1.889  -4.560  0.00  0.00    +0.149 HD
BRANCH   9  17
ATOM     17  C   UNL     1      -0.608  -1.234  -2.038  0.00  0.00    +0.339 C 
ATOM     18  O   UNL     1      -1.534  -1.781  -1.468  0.00  0.00    -0.245 OA
BRANCH  17  19
ATOM     19  O   UNL     1      -0.512   0.113  -2.030  0.00  0.00    -0.461 OA
BRANCH  19  20
ATOM     20  C   UNL     1      -1.532   0.832  -1.334  0.00  0.00    +0.235 C 
BRANCH  20  21
ATOM     21  C   UNL     1      -1.256   2.333  -1.434  0.00  0.00    +0.020 C 
ATOM     22  C   UNL     1      -1.372   2.777  -2.893  0.00  0.00    +0.010 C 
ATOM     23  C   UNL     1      -2.275   3.097  -0.586  0.00  0.00    +0.010 C 
ENDBRANCH  20  21
ENDBRANCH  19  20
ENDBRANCH  17  19
ENDBRANCH   9  17
ENDBRANCH   1  10
BRANCH   4  24
ATOM     24  N   UNL     1       4.383   1.768   0.356  0.00  0.00    -0.282 N 
ATOM     25  C   UNL     1       5.654   1.449   0.671  0.00  0.00    +0.248 C 
ATOM     26  O   UNL     1       6.222   0.554   0.076  0.00  0.00    -0.270 OA
ATOM     27  H   UNL     1       3.956   2.531   0.776  0.00  0.00    +0.155 HD
BRANCH  25  28
ATOM     28  C   UNL     1       6.358   2.188   1.740  0.00  0.00    +0.038 A 
ATOM     29  C   UNL     1       5.709   3.217   2.426  0.00  0.00    +0.013 A 
ATOM     30  C   UNL     1       6.372   3.903   3.422  0.00  0.00    +0.001 A 
ATOM     31  C   UNL     1       7.677   3.573   3.744  0.00  0.00    +0.012 A 
ATOM     32  C   UNL     1       8.326   2.555   3.068  0.00  0.00    +0.056 A 
ATOM     33  C   UNL     1       7.672   1.857   2.073  0.00  0.00    +0.025 A 
BRANCH  32  34
ATOM     34  C   UNL     1       9.747   2.203   3.425  0.00  0.00    +0.417 C 
ATOM     35  F   UNL     1      10.189   3.037   4.457  0.00  0.00    -0.166 F 
ATOM     36  F   UNL     1       9.806   0.870   3.844  0.00  0.00    -0.166 F 
ATOM     37  F   UNL     1      10.565   2.375   2.303  0.00  0.00    -0.166 F 
ENDBRANCH  32  34
ENDBRANCH  25  28
ENDBRANCH   4  24
TORSDOF 8
