REMARK  Name = ZINC46862506
REMARK  17 active torsions:
REMARK  status: ('A' for Active; 'I' for Inactive)
REMARK    1  A    between atoms: C_1  and  C_2
REMARK    2  A    between atoms: C_2  and  N_3
REMARK    3  A    between atoms: N_3  and  C_4
REMARK    4  A    between atoms: N_3  and  C_6
REMARK    5  A    between atoms: C_4  and  C_5
REMARK    6  A    between atoms: C_6  and  C_7
REMARK    7  A    between atoms: C_7  and  O_8
REMARK    8  A    between atoms: O_8  and  C_9
REMARK    9  A    between atoms: C_14  and  C_15
REMARK   10  A    between atoms: C_15  and  N_16
REMARK   11  A    between atoms: C_17  and  C_19
REMARK   12  A    between atoms: C_19  and  N_20
REMARK   13  A    between atoms: N_20  and  C_21
REMARK   14  A    between atoms: N_20  and  S_22
REMARK   15  A    between atoms: S_22  and  C_25
REMARK   16  A    between atoms: C_28  and  N_31
REMARK   17  A    between atoms: C_32  and  C_34
REMARK                            x       y       z     vdW  Elec       q    Type
REMARK                         _______ _______ _______ _____ _____    ______ ____
ROOT
ATOM      1  N   UNL     1      -1.667  -1.477  -5.572  0.00  0.00    -0.310 N 
ATOM      2  C   UNL     1      -0.873  -0.933  -6.516  0.00  0.00    +0.229 C 
ATOM      3  O   UNL     1      -0.769   0.272  -6.600  0.00  0.00    -0.274 OA
ATOM      4  H   UNL     1      -1.750  -2.441  -5.505  0.00  0.00    +0.149 HD
ENDROOT
BRANCH   1   5
ATOM      5  C   UNL     1      -2.404  -0.612  -4.647  0.00  0.00    +0.143 C 
BRANCH   5  11
ATOM      6  C   UNL     1      -2.597  -2.052  -2.603  0.00  0.00    +0.125 A 
ATOM      7  C   UNL     1      -3.343  -2.829  -1.729  0.00  0.00    +0.046 A 
ATOM      8  C   UNL     1      -4.692  -3.018  -1.955  0.00  0.00    +0.004 A 
ATOM      9  C   UNL     1      -5.300  -2.433  -3.051  0.00  0.00    +0.001 A 
ATOM     10  C   UNL     1      -4.559  -1.659  -3.923  0.00  0.00    +0.009 A 
ATOM     11  C   UNL     1      -3.210  -1.462  -3.699  0.00  0.00    +0.011 A 
BRANCH   6  12
ATOM     12  O   UNL     1      -1.269  -1.864  -2.383  0.00  0.00    -0.493 OA
BRANCH  12  13
ATOM     13  C   UNL     1      -0.705  -2.501  -1.236  0.00  0.00    +0.210 C 
BRANCH  13  14
ATOM     14  C   UNL     1       0.788  -2.177  -1.154  0.00  0.00    -0.037 C 
BRANCH  14  15
ATOM     15  N   UNL     1       0.965  -0.737  -0.925  0.00  0.00    +0.382 N 
ATOM     16  H   UNL     1       0.479  -0.220  -1.643  0.00  0.00    -0.082 HD
BRANCH  15  18
ATOM     17  C   UNL     1       0.472   1.138   0.571  0.00  0.00    -0.017 C 
ATOM     18  C   UNL     1       0.417  -0.380   0.391  0.00  0.00    -0.082 C 
ENDBRANCH  15  18
BRANCH  15  19
ATOM     19  C   UNL     1       2.395  -0.406  -0.966  0.00  0.00    -0.082 C 
ATOM     20  C   UNL     1       2.933  -0.642  -2.379  0.00  0.00    -0.017 C 
ENDBRANCH  15  19
ENDBRANCH  14  15
ENDBRANCH  13  14
ENDBRANCH  12  13
ENDBRANCH   6  12
ENDBRANCH   5  11
ENDBRANCH   1   5
BRANCH   2  21
ATOM     21  C   UNL     1      -0.115  -1.823  -7.467  0.00  0.00    +0.204 C 
BRANCH  21  22
ATOM     22  N   UNL     1       0.669  -0.997  -8.389  0.00  0.00    -0.171 NA
ATOM     23  C   UNL     1       1.998  -0.520  -7.997  0.00  0.00    +0.132 C 
BRANCH  22  24
ATOM     24  S   UNL     1       0.052  -0.602  -9.874  0.00  0.00    +0.061 S 
ATOM     25  O   UNL     1       1.164  -0.319 -10.713  0.00  0.00    -0.153 OA
ATOM     26  O   UNL     1      -0.909  -1.598 -10.193  0.00  0.00    -0.153 OA
BRANCH  24  27
ATOM     27  C   UNL     1      -0.832   0.910  -9.685  0.00  0.00    +0.106 A 
ATOM     28  C   UNL     1      -2.175   0.887  -9.355  0.00  0.00    +0.030 A 
ATOM     29  C   UNL     1      -2.872   2.071  -9.207  0.00  0.00    +0.025 A 
ATOM     30  C   UNL     1      -2.222   3.285  -9.388  0.00  0.00    +0.033 A 
ATOM     31  C   UNL     1      -0.873   3.304  -9.719  0.00  0.00    +0.025 A 
ATOM     32  C   UNL     1      -0.181   2.118  -9.861  0.00  0.00    +0.030 A 
BRANCH  30  33
ATOM     33  N   UNL     1      -2.925   4.485  -9.239  0.00  0.00    -0.286 N 
ATOM     34  C   UNL     1      -3.905   4.582  -8.320  0.00  0.00    +0.214 C 
ATOM     35  O   UNL     1      -4.116   3.662  -7.558  0.00  0.00    -0.276 OA
ATOM     36  C   UNL     1      -4.740   5.834  -8.238  0.00  0.00    +0.109 C 
ATOM     37  H   UNL     1      -2.706   5.248  -9.797  0.00  0.00    +0.155 HD
ENDBRANCH  30  33
ENDBRANCH  24  27
ENDBRANCH  22  24
ENDBRANCH  21  22
ENDBRANCH   2  21
TORSDOF 13
