REMARK  Name = ZINC12768680
REMARK  8 active torsions:
REMARK  status: ('A' for Active; 'I' for Inactive)
REMARK    1  A    between atoms: C_1  and  C_2
REMARK    2  A    between atoms: C_2  and  O_3
REMARK    3  A    between atoms: O_3  and  C_4
REMARK    4  A    between atoms: C_9  and  N_10
REMARK    5  A    between atoms: C_11  and  C_13
REMARK    6  A    between atoms: C_18  and  O_19
REMARK    7  A    between atoms: O_19  and  C_20
REMARK    8  A    between atoms: C_20  and  C_21
REMARK                            x       y       z     vdW  Elec       q    Type
REMARK                         _______ _______ _______ _____ _____    ______ ____
ROOT
ATOM      1  N   UNL     1      -2.544   2.831   4.691  0.00  0.00    -0.278 N 
ATOM      2  C   UNL     1      -1.972   2.428   3.539  0.00  0.00    +0.252 C 
ATOM      3  O   UNL     1      -2.452   2.762   2.473  0.00  0.00    -0.270 OA
ATOM      4  H   UNL     1      -2.200   2.513   5.540  0.00  0.00    +0.155 HD
ENDROOT
BRANCH   1  10
ATOM      5  C   UNL     1      -3.792   4.661   5.667  0.00  0.00    +0.142 A 
ATOM      6  C   UNL     1      -4.870   5.530   5.630  0.00  0.00    +0.047 A 
ATOM      7  C   UNL     1      -5.792   5.446   4.603  0.00  0.00    +0.004 A 
ATOM      8  C   UNL     1      -5.639   4.499   3.607  0.00  0.00    +0.002 A 
ATOM      9  C   UNL     1      -4.563   3.631   3.634  0.00  0.00    +0.027 A 
ATOM     10  C   UNL     1      -3.634   3.710   4.662  0.00  0.00    +0.076 A 
BRANCH   5  11
ATOM     11  O   UNL     1      -2.888   4.739   6.680  0.00  0.00    -0.490 OA
BRANCH  11  13
ATOM     12  C   UNL     1      -2.002   5.674   8.724  0.00  0.00    +0.048 C 
ATOM     13  C   UNL     1      -3.114   5.738   7.676  0.00  0.00    +0.226 C 
ENDBRANCH  11  13
ENDBRANCH   5  11
ENDBRANCH   1  10
BRANCH   2  14
ATOM     14  C   UNL     1      -0.764   1.583   3.572  0.00  0.00    +0.079 A 
ATOM     15  C   UNL     1      -0.208   1.198   4.795  0.00  0.00    +0.017 A 
ATOM     16  C   UNL     1       0.920   0.408   4.818  0.00  0.00    +0.001 A 
ATOM     17  C   UNL     1       1.508  -0.006   3.634  0.00  0.00    +0.004 A 
ATOM     18  C   UNL     1       0.967   0.363   2.419  0.00  0.00    +0.046 A 
ATOM     19  C   UNL     1      -0.166   1.161   2.376  0.00  0.00    +0.133 A 
BRANCH  19  20
ATOM     20  O   UNL     1      -0.696   1.528   1.183  0.00  0.00    -0.489 OA
BRANCH  20  21
ATOM     21  C   UNL     1      -0.032   1.061   0.007  0.00  0.00    +0.260 C 
BRANCH  21  22
ATOM     22  C   UNL     1      -0.770   1.573  -1.232  0.00  0.00    +0.156 C 
ATOM     23  C   UNL     1       0.003   1.173  -2.504  0.00  0.00    +0.037 C 
ATOM     24  C   UNL     1      -1.011   0.332  -3.317  0.00  0.00    +0.031 C 
ATOM     25  C   UNL     1      -2.365   0.788  -2.716  0.00  0.00    +0.160 C 
ATOM     26  O   UNL     1      -2.071   0.967  -1.312  0.00  0.00    -0.373 OA
ENDBRANCH  21  22
ENDBRANCH  20  21
ENDBRANCH  19  20
ENDBRANCH   2  14
TORSDOF 7
