REMARK  Name = ZINC58884373
REMARK  9 active torsions:
REMARK  status: ('A' for Active; 'I' for Inactive)
REMARK    1  A    between atoms: C_1  and  C_2
REMARK    2  A    between atoms: C_5  and  N_8
REMARK    3  A    between atoms: C_9  and  C_33
REMARK    4  A    between atoms: C_11  and  C_14
REMARK    5  A    between atoms: C_12  and  C_13
REMARK    6  A    between atoms: N_15  and  N_16
REMARK    7  A    between atoms: C_17  and  C_19
REMARK    8  A    between atoms: N_21  and  C_22
REMARK    9  A    between atoms: C_26  and  C_28
REMARK                            x       y       z     vdW  Elec       q    Type
REMARK                         _______ _______ _______ _____ _____    ______ ____
ROOT
ATOM      1  N   UNL     1       3.485  -8.393   1.522  0.00  0.00    -0.199 N 
ATOM      2  C   UNL     1       4.697  -8.230   2.088  0.00  0.00    +0.318 C 
ATOM      3  O   UNL     1       5.127  -7.113   2.293  0.00  0.00    -0.263 OA
ATOM      4  H   UNL     1       3.142  -9.285   1.358  0.00  0.00    +0.178 HD
ENDROOT
BRANCH   2   5
ATOM      5  C   UNL     1       5.511  -9.422   2.463  0.00  0.00    +0.305 C 
ATOM      6  O   UNL     1       5.081 -10.539   2.258  0.00  0.00    -0.265 OA
ATOM      7  N   UNL     1       6.723  -9.259   3.029  0.00  0.00    -0.278 N 
ATOM      8  H   UNL     1       7.095  -8.369   3.131  0.00  0.00    +0.155 HD
BRANCH   7   9
ATOM      9  C   UNL     1       7.444 -10.373   3.468  0.00  0.00    +0.034 A 
ATOM     10  C   UNL     1       7.376 -11.569   2.764  0.00  0.00    +0.025 A 
ATOM     11  C   UNL     1       8.089 -12.667   3.200  0.00  0.00    +0.022 A 
ATOM     12  C   UNL     1       8.871 -12.578   4.339  0.00  0.00    +0.053 A 
ATOM     13  C   UNL     1       8.941 -11.389   5.043  0.00  0.00    +0.075 A 
ATOM     14  C   UNL     1       8.235 -10.285   4.607  0.00  0.00    +0.037 A 
ATOM     15 CL   UNL     1       9.767 -13.962   4.885  0.00  0.00    -0.083 Cl
BRANCH  13  16
ATOM     16  C   UNL     1       9.793 -11.296   6.282  0.00  0.00    +0.419 C 
ATOM     17  F   UNL     1       9.703 -10.006   6.814  0.00  0.00    -0.166 F 
ATOM     18  F   UNL     1       9.343 -12.223   7.228  0.00  0.00    -0.166 F 
ATOM     19  F   UNL     1      11.125 -11.574   5.954  0.00  0.00    -0.166 F 
ENDBRANCH  13  16
ENDBRANCH   7   9
ENDBRANCH   2   5
BRANCH   1  21
ATOM     20  C   UNL     1       1.551  -7.430   0.624  0.00  0.00    +0.140 C 
ATOM     21  N   UNL     1       2.720  -7.273   1.170  0.00  0.00    -0.187 NA
BRANCH  20  25
ATOM     22  N   UNL     1       0.073  -4.171  -0.052  0.00  0.00    -0.317 N 
ATOM     23  C   UNL     1      -0.933  -4.965  -0.524  0.00  0.00    +0.022 A 
ATOM     24  C   UNL     1      -0.582  -6.254  -0.365  0.00  0.00    +0.032 A 
ATOM     25  C   UNL     1       0.747  -6.252   0.254  0.00  0.00    +0.016 A 
ATOM     26  C   UNL     1       1.094  -4.940   0.414  0.00  0.00    +0.030 A 
ATOM     27  C   UNL     1       2.382  -4.432   1.008  0.00  0.00    +0.064 C 
ATOM     28  C   UNL     1      -2.226  -4.476  -1.124  0.00  0.00    +0.064 C 
BRANCH  22  33
ATOM     29  C   UNL     1       0.014   1.504  -0.057  0.00  0.00    +0.044 C 
ATOM     30  C   UNL     1       0.030  -0.003  -0.056  0.00  0.00    -0.050 A 
ATOM     31  C   UNL     1       0.031  -0.694  -1.253  0.00  0.00    +0.005 A 
ATOM     32  C   UNL     1       0.046  -2.075  -1.255  0.00  0.00    +0.026 A 
ATOM     33  C   UNL     1       0.059  -2.769  -0.053  0.00  0.00    +0.047 A 
ATOM     34  C   UNL     1       0.058  -2.073   1.148  0.00  0.00    +0.026 A 
ATOM     35  C   UNL     1       0.049  -0.692   1.143  0.00  0.00    +0.005 A 
ENDBRANCH  22  33
ENDBRANCH  20  25
ENDBRANCH   1  21
TORSDOF 6
