REMARK  Name = ZINC04880150
REMARK  6 active torsions:
REMARK  status: ('A' for Active; 'I' for Inactive)
REMARK    1  A    between atoms: C_15  and  C_16
REMARK    2  A    between atoms: C_16  and  C_18
REMARK    3  A    between atoms: N_20  and  N_21
REMARK    4  A    between atoms: C_22  and  C_23
REMARK    5  A    between atoms: C_26  and  O_30
REMARK    6  A    between atoms: C_27  and  O_29
REMARK                            x       y       z     vdW  Elec       q    Type
REMARK                         _______ _______ _______ _____ _____    ______ ____
ROOT
ATOM      1  C   UNL     1       6.093  -0.723  -0.302  0.00  0.00    +0.244 C 
ATOM      2  O   UNL     1       6.088  -1.934  -0.164  0.00  0.00    -0.282 OA
ENDROOT
BRANCH   1  17
ATOM      3  C   UNL     1      -0.017   1.379   0.010  0.00  0.00    +0.000 A 
ATOM      4  C   UNL     1       1.167   2.097   0.002  0.00  0.00    +0.001 A 
ATOM      5  C   UNL     1       2.376   1.433  -0.018  0.00  0.00    +0.010 A 
ATOM      6  C   UNL     1       2.399   0.037  -0.031  0.00  0.00    -0.001 A 
ATOM      7  C   UNL     1       1.205  -0.685  -0.013  0.00  0.00    -0.036 A 
ATOM      8  C   UNL     1       0.002  -0.004   0.002  0.00  0.00    +0.004 A 
ATOM      9  C   UNL     1       1.201  -2.191   0.003  0.00  0.00    +0.061 C 
ATOM     10  C   UNL     1       2.513  -2.745  -0.539  0.00  0.00    +0.036 C 
ATOM     11  C   UNL     1       2.574  -2.562  -2.066  0.00  0.00    +0.026 C 
ATOM     12  C   UNL     1       3.291  -3.840  -2.571  0.00  0.00    +0.002 C 
ATOM     13  C   UNL     1       2.724  -4.942  -1.640  0.00  0.00    +0.002 C 
ATOM     14  C   UNL     1       2.608  -4.253  -0.264  0.00  0.00    +0.026 C 
ATOM     15  N   UNL     1       3.647  -2.053   0.087  0.00  0.00    -0.337 N 
ATOM     16  C   UNL     1       3.693  -0.679  -0.074  0.00  0.00    +0.039 C 
ATOM     17  C   UNL     1       4.889  -0.010  -0.267  0.00  0.00    +0.079 C 
ATOM     18  H   UNL     1       4.327  -2.533   0.586  0.00  0.00    +0.147 HD
ENDBRANCH   1  17
BRANCH   1  19
ATOM     19  C   UNL     1       7.379  -0.003  -0.509  0.00  0.00    +0.303 C 
ATOM     20  O   UNL     1       7.384   1.204  -0.647  0.00  0.00    -0.265 OA
ATOM     21  N   UNL     1       8.538  -0.690  -0.543  0.00  0.00    -0.200 N 
ATOM     22  H   UNL     1       8.534  -1.654  -0.432  0.00  0.00    +0.178 HD
BRANCH  21  23
ATOM     23  N   UNL     1       9.748  -0.012  -0.737  0.00  0.00    -0.187 NA
ATOM     24  C   UNL     1      10.866  -0.674  -0.770  0.00  0.00    +0.138 C 
BRANCH  24  25
ATOM     25  C   UNL     1      12.139   0.039  -0.975  0.00  0.00    -0.002 A 
ATOM     26  C   UNL     1      12.147   1.428  -1.128  0.00  0.00    +0.013 A 
ATOM     27  C   UNL     1      13.339   2.093  -1.319  0.00  0.00    +0.050 A 
ATOM     28  C   UNL     1      14.533   1.387  -1.359  0.00  0.00    +0.158 A 
ATOM     29  C   UNL     1      14.533   0.001  -1.208  0.00  0.00    +0.159 A 
ATOM     30  C   UNL     1      13.342  -0.672  -1.010  0.00  0.00    +0.058 A 
BRANCH  29  31
ATOM     31  O   UNL     1      15.704  -0.688  -1.249  0.00  0.00    -0.503 OA
ATOM     32  H   UNL     1      16.130  -0.791  -0.387  0.00  0.00    +0.292 HD
ENDBRANCH  29  31
BRANCH  28  33
ATOM     33  O   UNL     1      15.706   2.047  -1.548  0.00  0.00    -0.503 OA
ATOM     34  H   UNL     1      16.131   2.334  -0.729  0.00  0.00    +0.292 HD
ENDBRANCH  28  33
ENDBRANCH  24  25
ENDBRANCH  21  23
ENDBRANCH   1  19
TORSDOF 6
