REMARK  Name = ZINC40393195
REMARK  9 active torsions:
REMARK  status: ('A' for Active; 'I' for Inactive)
REMARK    1  A    between atoms: C_1  and  C_2
REMARK    2  A    between atoms: C_2  and  C_3
REMARK    3  A    between atoms: C_2  and  C_4
REMARK    4  A    between atoms: C_5  and  O_11
REMARK    5  A    between atoms: C_9  and  N_10
REMARK    6  A    between atoms: O_11  and  C_12
REMARK    7  A    between atoms: C_15  and  N_19
REMARK    8  A    between atoms: C_20  and  C_22
REMARK    9  A    between atoms: N_26  and  C_29
REMARK                            x       y       z     vdW  Elec       q    Type
REMARK                         _______ _______ _______ _____ _____    ______ ____
ROOT
ATOM      1  C   UNL     1      -2.388  -2.998  -2.754  0.00  0.00    +0.164 A 
ATOM      2  C   UNL     1      -3.430  -3.859  -2.447  0.00  0.00    +0.051 A 
ATOM      3  C   UNL     1      -3.932  -4.710  -3.412  0.00  0.00    +0.027 A 
ATOM      4  C   UNL     1      -3.393  -4.704  -4.692  0.00  0.00    +0.037 A 
ATOM      5  C   UNL     1      -2.349  -3.841  -5.001  0.00  0.00    +0.065 A 
ATOM      6  C   UNL     1      -1.851  -2.986  -4.035  0.00  0.00    +0.167 A 
ATOM      7  F   UNL     1      -0.839  -2.143  -4.337  0.00  0.00    -0.202 F 
ENDROOT
BRANCH   4   8
ATOM      8  N   UNL     1      -3.901  -5.567  -5.670  0.00  0.00    -0.281 N 
ATOM      9  C   UNL     1      -3.090  -6.045  -6.634  0.00  0.00    +0.254 C 
ATOM     10  O   UNL     1      -1.893  -5.835  -6.581  0.00  0.00    -0.270 OA
ATOM     11  H   UNL     1      -4.837  -5.821  -5.654  0.00  0.00    +0.155 HD
BRANCH   9  12
ATOM     12  C   UNL     1      -3.652  -6.820  -7.750  0.00  0.00    +0.102 A 
ATOM     13  C   UNL     1      -2.815  -7.428  -8.684  0.00  0.00    +0.020 A 
ATOM     14  C   UNL     1      -3.384  -8.155  -9.729  0.00  0.00    +0.019 A 
ATOM     15  C   UNL     1      -4.733  -8.264  -9.828  0.00  0.00    +0.095 A 
ATOM     16  N   UNL     1      -5.554  -7.676  -8.923  0.00  0.00    -0.284 N 
ATOM     17  C   UNL     1      -5.056  -6.967  -7.892  0.00  0.00    +0.268 A 
ATOM     18  O   UNL     1      -5.809  -6.449  -7.086  0.00  0.00    -0.267 OA
BRANCH  16  19
ATOM     19  C   UNL     1      -6.941  -7.811  -9.060  0.00  0.00    +0.050 A 
ATOM     20  C   UNL     1      -7.715  -6.715  -9.418  0.00  0.00    +0.029 A 
ATOM     21  C   UNL     1      -9.082  -6.851  -9.553  0.00  0.00    +0.040 A 
ATOM     22  C   UNL     1      -9.682  -8.079  -9.332  0.00  0.00    +0.124 A 
ATOM     23  C   UNL     1      -8.913  -9.174  -8.974  0.00  0.00    +0.040 A 
ATOM     24  C   UNL     1      -7.544  -9.043  -8.844  0.00  0.00    +0.029 A 
ATOM     25  F   UNL     1     -11.021  -8.210  -9.464  0.00  0.00    -0.205 F 
ENDBRANCH  16  19
ENDBRANCH   9  12
ENDBRANCH   4   8
BRANCH   1  26
ATOM     26  O   UNL     1      -1.894  -2.161  -1.803  0.00  0.00    -0.453 OA
BRANCH  26  28
ATOM     27  C   UNL     1      -1.958  -0.006  -0.773  0.00  0.00    +0.037 A 
ATOM     28  C   UNL     1      -2.368  -0.889  -1.765  0.00  0.00    +0.137 A 
ATOM     29  C   UNL     1      -3.277  -0.437  -2.721  0.00  0.00    +0.066 A 
ATOM     30  C   UNL     1      -3.737   0.861  -2.652  0.00  0.00    +0.116 A 
ATOM     31  N   UNL     1      -3.329   1.675  -1.697  0.00  0.00    -0.240 NA
ATOM     32  C   UNL     1      -2.470   1.285  -0.767  0.00  0.00    +0.123 A 
BRANCH  27  34
ATOM     33  C   UNL     1      -1.585  -1.585   1.103  0.00  0.00    +0.012 C 
ATOM     34  C   UNL     1      -0.977  -0.445   0.283  0.00  0.00    +0.020 C 
ATOM     35  C   UNL     1       0.311  -0.929  -0.386  0.00  0.00    +0.012 C 
ENDBRANCH  27  34
BRANCH  32  36
ATOM     36  N   UNL     1      -2.074   2.177   0.223  0.00  0.00    -0.343 N 
ATOM     37  H   UNL     1      -1.363   1.936   0.837  0.00  0.00    +0.144 HD
ATOM     38  H   UNL     1      -2.508   3.041   0.299  0.00  0.00    +0.144 HD
ENDBRANCH  32  36
ENDBRANCH  26  28
ENDBRANCH   1  26
TORSDOF 7
