REMARK  Name = ZINC09329965
REMARK  9 active torsions:
REMARK  status: ('A' for Active; 'I' for Inactive)
REMARK    1  A    between atoms: C_1  and  C_2
REMARK    2  A    between atoms: C_2  and  C_3
REMARK    3  A    between atoms: C_3  and  C_4
REMARK    4  A    between atoms: C_5  and  O_19
REMARK    5  A    between atoms: N_9  and  C_12
REMARK    6  A    between atoms: C_12  and  C_13
REMARK    7  A    between atoms: N_20  and  C_21
REMARK    8  A    between atoms: C_21  and  C_22
REMARK    9  A    between atoms: C_22  and  C_23
REMARK                            x       y       z     vdW  Elec       q    Type
REMARK                         _______ _______ _______ _____ _____    ______ ____
ROOT
ATOM      1  C   UNL     1      -1.245  -0.760  -0.019  0.00  0.00    +0.202 C 
ATOM      2  C   UNL     1      -0.009  -0.025   0.283  0.00  0.00    +0.198 C 
ATOM      3  N   UNL     1       1.143  -0.673   0.216  0.00  0.00    -0.131 NA
ATOM      4  C   UNL     1       1.211  -1.959  -0.117  0.00  0.00    +0.335 C 
ATOM      5  O   UNL     1       2.308  -2.487  -0.157  0.00  0.00    -0.250 OA
ATOM      6  N   UNL     1       0.137  -2.706  -0.413  0.00  0.00    -0.219 N 
ATOM      7  C   UNL     1      -1.106  -2.180  -0.388  0.00  0.00    +0.241 C 
ATOM      8  O   UNL     1      -2.081  -2.858  -0.656  0.00  0.00    -0.274 OA
ENDROOT
BRANCH   1   9
ATOM      9  C   UNL     1      -2.486  -0.143   0.037  0.00  0.00    +0.034 C 
ATOM     10  N   UNL     1      -2.569   1.185   0.238  0.00  0.00    -0.291 NA
BRANCH   9  12
ATOM     11  C   UNL     1      -4.059  -1.114  -1.616  0.00  0.00    +0.010 C 
ATOM     12  C   UNL     1      -3.741  -0.961  -0.127  0.00  0.00    +0.048 C 
ENDBRANCH   9  12
BRANCH  10  13
ATOM     13  C   UNL     1      -3.880   1.836   0.297  0.00  0.00    +0.146 C 
BRANCH  13  14
ATOM     14  C   UNL     1      -3.694   3.337   0.532  0.00  0.00    +0.060 C 
BRANCH  14  15
ATOM     15  C   UNL     1      -5.043   4.006   0.593  0.00  0.00    -0.021 A 
ATOM     16  C   UNL     1      -5.682   4.606  -0.423  0.00  0.00    +0.087 A 
ATOM     17  N   UNL     1      -6.883   5.100   0.009  0.00  0.00    -0.360 N 
ATOM     18  H   UNL     1      -7.522   5.575  -0.546  0.00  0.00    +0.165 HD
ATOM     19  C   UNL     1      -7.050   4.823   1.347  0.00  0.00    +0.047 A 
ATOM     20  C   UNL     1      -5.907   4.120   1.770  0.00  0.00    +0.003 A 
ATOM     21  C   UNL     1      -5.800   3.699   3.097  0.00  0.00    +0.010 A 
ATOM     22  C   UNL     1      -6.809   3.969   3.978  0.00  0.00    +0.001 A 
ATOM     23  C   UNL     1      -7.940   4.659   3.564  0.00  0.00    +0.002 A 
ATOM     24  C   UNL     1      -8.063   5.090   2.261  0.00  0.00    +0.026 A 
ENDBRANCH  14  15
ENDBRANCH  13  14
ENDBRANCH  10  13
ENDBRANCH   1   9
BRANCH   2  25
ATOM     25  O   UNL     1      -0.048   1.280   0.625  0.00  0.00    -0.496 OA
ATOM     26  H   UNL     1       0.821   1.665   0.806  0.00  0.00    +0.293 HD
ENDBRANCH   2  25
BRANCH   6  27
ATOM     27  C   UNL     1       0.316  -4.116  -0.770  0.00  0.00    +0.153 C 
BRANCH  27  28
ATOM     28  C   UNL     1       0.253  -4.961   0.476  0.00  0.00    -0.030 A 
ATOM     29  C   UNL     1       1.408  -5.239   1.182  0.00  0.00    +0.005 A 
ATOM     30  C   UNL     1       1.349  -6.011   2.328  0.00  0.00    +0.000 A 
ATOM     31  C   UNL     1       0.137  -6.513   2.761  0.00  0.00    +0.000 A 
ATOM     32  C   UNL     1      -1.018  -6.240   2.052  0.00  0.00    +0.000 A 
ATOM     33  C   UNL     1      -0.960  -5.464   0.909  0.00  0.00    +0.005 A 
ENDBRANCH  27  28
ENDBRANCH   6  27
TORSDOF 8
