REMARK  Name = ZINC45827653
REMARK  15 active torsions:
REMARK  status: ('A' for Active; 'I' for Inactive)
REMARK    1  A    between atoms: C_1  and  C_2
REMARK    2  A    between atoms: C_2  and  N_3
REMARK    3  A    between atoms: N_3  and  C_4
REMARK    4  A    between atoms: N_3  and  C_6
REMARK    5  A    between atoms: C_4  and  C_5
REMARK    6  A    between atoms: C_6  and  C_8
REMARK    7  A    between atoms: C_6  and  C_29
REMARK    8  A    between atoms: C_8  and  N_9
REMARK    9  A    between atoms: C_10  and  C_12
REMARK   10  A    between atoms: C_16  and  S_18
REMARK   11  A    between atoms: S_18  and  N_21
REMARK   12  A    between atoms: N_21  and  C_22
REMARK   13  A    between atoms: C_22  and  C_23
REMARK   14  A    between atoms: C_33  and  O_35
REMARK   15  A    between atoms: O_35  and  C_36
REMARK                            x       y       z     vdW  Elec       q    Type
REMARK                         _______ _______ _______ _____ _____    ______ ____
ROOT
ATOM      1  N   UNL     1       1.473  -2.345   1.080  0.00  0.00    -0.313 N 
ATOM      2  C   UNL     1       0.597  -3.366   1.161  0.00  0.00    +0.244 C 
ATOM      3  O   UNL     1      -0.528  -3.170   1.577  0.00  0.00    -0.270 OA
ATOM      4  H   UNL     1       2.346  -2.486   0.680  0.00  0.00    +0.149 HD
ENDROOT
BRANCH   2   5
ATOM      5  C   UNL     1       1.003  -4.725   0.742  0.00  0.00    +0.039 A 
ATOM      6  C   UNL     1       2.326  -4.978   0.374  0.00  0.00    +0.013 A 
ATOM      7  C   UNL     1       2.699  -6.248  -0.015  0.00  0.00    +0.003 A 
ATOM      8  C   UNL     1       1.765  -7.269  -0.040  0.00  0.00    +0.028 A 
ATOM      9  C   UNL     1       0.453  -7.025   0.323  0.00  0.00    +0.106 A 
ATOM     10  C   UNL     1       0.068  -5.760   0.720  0.00  0.00    +0.041 A 
BRANCH   9  11
ATOM     11  S   UNL     1      -0.728  -8.332   0.286  0.00  0.00    +0.059 S 
ATOM     12  O   UNL     1      -2.004  -7.723   0.148  0.00  0.00    -0.153 OA
ATOM     13  O   UNL     1      -0.239  -9.295  -0.638  0.00  0.00    -0.153 OA
BRANCH  11  14
ATOM     14  N   UNL     1      -0.707  -9.053   1.777  0.00  0.00    -0.187 NA
ATOM     15  H   UNL     1      -0.411  -9.973   1.866  0.00  0.00    +0.148 HD
BRANCH  14  16
ATOM     16  C   UNL     1      -1.134  -8.302   2.960  0.00  0.00    +0.137 C 
BRANCH  16  17
ATOM     17  C   UNL     1      -1.378  -9.272   4.118  0.00  0.00    +0.134 C 
ATOM     18  C   UNL     1      -1.865  -8.501   5.371  0.00  0.00    +0.035 C 
ATOM     19  C   UNL     1      -2.635  -9.619   6.125  0.00  0.00    +0.031 C 
ATOM     20  C   UNL     1      -3.227 -10.448   4.965  0.00  0.00    +0.160 C 
ATOM     21  O   UNL     1      -2.445 -10.177   3.794  0.00  0.00    -0.375 OA
ENDBRANCH  16  17
ENDBRANCH  14  16
ENDBRANCH  11  14
ENDBRANCH   9  11
ENDBRANCH   2   5
BRANCH   1  22
ATOM     22  C   UNL     1       1.108  -1.024   1.595  0.00  0.00    +0.094 C 
BRANCH  22  23
ATOM     23  C   UNL     1       2.212  -0.021   1.255  0.00  0.00    -0.020 C 
BRANCH  23  24
ATOM     24  C   UNL     1       1.783   1.361   1.678  0.00  0.00    -0.056 A 
ATOM     25  C   UNL     1       0.812   1.516   2.650  0.00  0.00    +0.002 A 
ATOM     26  C   UNL     1       0.417   2.781   3.040  0.00  0.00    +0.004 A 
ATOM     27  C   UNL     1       0.991   3.896   2.458  0.00  0.00    +0.045 A 
ATOM     28  C   UNL     1       1.964   3.743   1.483  0.00  0.00    +0.120 A 
ATOM     29  C   UNL     1       2.364   2.471   1.097  0.00  0.00    +0.047 A 
BRANCH  28  30
ATOM     30  O   UNL     1       2.530   4.837   0.909  0.00  0.00    -0.495 OA
ATOM     31  C   UNL     1       2.074   6.115   1.359  0.00  0.00    +0.277 C 
ENDBRANCH  28  30
ENDBRANCH  23  24
BRANCH  23  32
ATOM     32  N   UNL     1       2.457  -0.035  -0.193  0.00  0.00    +0.385 N 
ATOM     33  H   UNL     1       2.299  -0.965  -0.552  0.00  0.00    -0.081 HD
BRANCH  32  35
ATOM     34  C   UNL     1       0.099   0.541  -0.511  0.00  0.00    -0.017 C 
ATOM     35  C   UNL     1       1.544   0.907  -0.854  0.00  0.00    -0.081 C 
ENDBRANCH  32  35
BRANCH  32  36
ATOM     36  C   UNL     1       3.846   0.361  -0.459  0.00  0.00    -0.081 C 
ATOM     37  C   UNL     1       4.793  -0.731   0.043  0.00  0.00    -0.017 C 
ENDBRANCH  32  36
ENDBRANCH  23  32
ENDBRANCH  22  23
ENDBRANCH   1  22
TORSDOF 12
