REMARK  Name = ZINC59890373
REMARK  10 active torsions:
REMARK  status: ('A' for Active; 'I' for Inactive)
REMARK    1  A    between atoms: C_1  and  C_2
REMARK    2  A    between atoms: C_7  and  C_9
REMARK    3  A    between atoms: C_7  and  N_25
REMARK    4  A    between atoms: C_9  and  N_10
REMARK    5  A    between atoms: C_11  and  C_13
REMARK    6  A    between atoms: C_13  and  C_14
REMARK    7  A    between atoms: C_14  and  N_15
REMARK    8  A    between atoms: C_16  and  C_18
REMARK    9  A    between atoms: N_25  and  C_26
REMARK   10  A    between atoms: N_25  and  C_27
REMARK                            x       y       z     vdW  Elec       q    Type
REMARK                         _______ _______ _______ _____ _____    ______ ____
ROOT
ATOM      1  N   UNL     1       3.005  -2.111   2.094  0.00  0.00    -0.317 N 
ATOM      2  C   UNL     1       3.967  -2.473   2.966  0.00  0.00    +0.214 C 
ATOM      3  O   UNL     1       3.681  -3.122   3.950  0.00  0.00    -0.276 OA
ATOM      4  H   UNL     1       3.234  -1.593   1.307  0.00  0.00    +0.149 HD
ENDROOT
BRANCH   1   5
ATOM      5  C   UNL     1       1.614  -2.501   2.336  0.00  0.00    +0.092 C 
BRANCH   5  11
ATOM      6  C   UNL     1       0.003   1.414  -0.320  0.00  0.00    +0.007 C 
ATOM      7  C   UNL     1      -0.056  -0.109  -0.177  0.00  0.00    -0.015 C 
ATOM      8  C   UNL     1       0.468  -0.762  -1.458  0.00  0.00    +0.003 C 
ATOM      9  C   UNL     1       0.409  -2.284  -1.315  0.00  0.00    -0.001 C 
ATOM     10  C   UNL     1       1.273  -2.719  -0.130  0.00  0.00    -0.010 C 
ATOM     11  C   UNL     1       0.749  -2.066   1.151  0.00  0.00    -0.050 C 
ATOM     12  C   UNL     1       0.808  -0.544   1.008  0.00  0.00    -0.007 C 
BRANCH  11  13
ATOM     13  N   UNL     1      -0.641  -2.483   1.379  0.00  0.00    +0.381 N 
ATOM     14  C   UNL     1      -0.701  -3.946   1.491  0.00  0.00    -0.096 C 
ATOM     15  C   UNL     1      -1.136  -1.876   2.622  0.00  0.00    -0.096 C 
ATOM     16  H   UNL     1      -1.214  -2.181   0.606  0.00  0.00    -0.082 HD
ENDBRANCH  11  13
ENDBRANCH   5  11
ENDBRANCH   1   5
BRANCH   2  17
ATOM     17  C   UNL     1       5.398  -2.072   2.718  0.00  0.00    +0.114 C 
BRANCH  17  18
ATOM     18  C   UNL     1       6.281  -2.606   3.848  0.00  0.00    +0.113 C 
BRANCH  18  19
ATOM     19  N   UNL     1       7.672  -2.216   3.607  0.00  0.00    -0.311 N 
ATOM     20  C   UNL     1       8.634  -2.578   4.479  0.00  0.00    +0.244 C 
ATOM     21  O   UNL     1       8.348  -3.228   5.465  0.00  0.00    -0.270 OA
ATOM     22  H   UNL     1       7.901  -1.697   2.820  0.00  0.00    +0.149 HD
BRANCH  20  23
ATOM     23  C   UNL     1      10.038  -2.184   4.235  0.00  0.00    +0.037 A 
ATOM     24  C   UNL     1      10.370  -1.433   3.106  0.00  0.00    +0.014 A 
ATOM     25  C   UNL     1      11.681  -1.069   2.885  0.00  0.00    +0.016 A 
ATOM     26  C   UNL     1      12.668  -1.447   3.779  0.00  0.00    +0.018 A 
ATOM     27  C   UNL     1      12.346  -2.192   4.901  0.00  0.00    +0.016 A 
ATOM     28  C   UNL     1      11.037  -2.558   5.136  0.00  0.00    +0.014 A 
ATOM     29 BR   UNL     1      14.464  -0.945   3.467  0.00  0.00    -0.050 Br
ENDBRANCH  20  23
ENDBRANCH  18  19
ENDBRANCH  17  18
ENDBRANCH   2  17
TORSDOF 7
