REMARK  Name = ZINC41096879
REMARK  5 active torsions:
REMARK  status: ('A' for Active; 'I' for Inactive)
REMARK    1  A    between atoms: C_3  and  S_21
REMARK    2  A    between atoms: C_6  and  C_7
REMARK    3  A    between atoms: C_10  and  S_13
REMARK    4  A    between atoms: S_13  and  N_16
REMARK    5  A    between atoms: S_21  and  N_24
REMARK                            x       y       z     vdW  Elec       q    Type
REMARK                         _______ _______ _______ _____ _____    ______ ____
ROOT
ATOM      1  C   UNL     1      -0.017   1.389   0.010  0.00  0.00    +0.010 A 
ATOM      2  C   UNL     1       1.170   2.093   0.002  0.00  0.00    +0.029 A 
ATOM      3  C   UNL     1       2.377   1.418  -0.013  0.00  0.00    +0.111 A 
ATOM      4  C   UNL     1       2.402   0.035  -0.021  0.00  0.00    +0.029 A 
ATOM      5  C   UNL     1       1.221  -0.679  -0.013  0.00  0.00    +0.010 A 
ATOM      6  C   UNL     1       0.002  -0.004   0.002  0.00  0.00    -0.018 A 
ENDROOT
BRANCH   6   7
ATOM      7  C   UNL     1      -1.271  -0.766   0.010  0.00  0.00    -0.018 A 
ATOM      8  C   UNL     1      -2.490  -0.091   0.020  0.00  0.00    +0.010 A 
ATOM      9  C   UNL     1      -3.671  -0.805   0.027  0.00  0.00    +0.029 A 
ATOM     10  C   UNL     1      -3.647  -2.188   0.025  0.00  0.00    +0.111 A 
ATOM     11  C   UNL     1      -2.439  -2.863   0.016  0.00  0.00    +0.029 A 
ATOM     12  C   UNL     1      -1.252  -2.159   0.002  0.00  0.00    +0.010 A 
BRANCH  10  13
ATOM     13  S   UNL     1      -5.159  -3.093   0.035  0.00  0.00    +0.085 S 
ATOM     14  O   UNL     1      -4.863  -4.370   0.583  0.00  0.00    -0.148 OA
ATOM     15  O   UNL     1      -6.142  -2.233   0.595  0.00  0.00    -0.148 OA
BRANCH  13  16
ATOM     16  N   UNL     1      -5.590  -3.342  -1.544  0.00  0.00    -0.206 N 
ATOM     17  C   UNL     1      -6.364  -2.516  -2.314  0.00  0.00    +0.133 A 
ATOM     18  C   UNL     1      -6.464  -3.095  -3.526  0.00  0.00    +0.132 A 
ATOM     19  N   UNL     1      -5.771  -4.244  -3.496  0.00  0.00    -0.242 NA
ATOM     20  C   UNL     1      -5.241  -4.395  -2.313  0.00  0.00    +0.222 A 
ENDBRANCH  13  16
ENDBRANCH  10  13
ENDBRANCH   6   7
BRANCH   3  21
ATOM     21  S   UNL     1       3.889   2.322  -0.024  0.00  0.00    +0.085 S 
ATOM     22  O   UNL     1       4.872   1.465  -0.589  0.00  0.00    -0.148 OA
ATOM     23  O   UNL     1       3.593   3.602  -0.566  0.00  0.00    -0.148 OA
BRANCH  21  24
ATOM     24  N   UNL     1       4.325   2.566   1.555  0.00  0.00    -0.206 N 
ATOM     25  C   UNL     1       3.969   3.628   2.341  0.00  0.00    +0.133 A 
ATOM     26  C   UNL     1       4.536   3.428   3.546  0.00  0.00    +0.132 A 
ATOM     27  N   UNL     1       5.220   2.275   3.497  0.00  0.00    -0.242 NA
ATOM     28  C   UNL     1       5.094   1.751   2.308  0.00  0.00    +0.222 A 
ENDBRANCH  21  24
ENDBRANCH   3  21
TORSDOF 5
