REMARK  Name = ZINC66340767
REMARK  4 active torsions:
REMARK  status: ('A' for Active; 'I' for Inactive)
REMARK    1  A    between atoms: C_1  and  C_2
REMARK    2  A    between atoms: C_4  and  C_7
REMARK    3  A    between atoms: C_9  and  C_13
REMARK    4  A    between atoms: C_21  and  C_23
REMARK                            x       y       z     vdW  Elec       q    Type
REMARK                         _______ _______ _______ _____ _____    ______ ____
ROOT
ATOM      1  C   UNL     1      -5.048  -5.088  -1.848  0.00  0.00    +0.263 C 
ATOM      2  O   UNL     1      -5.642  -4.118  -2.279  0.00  0.00    -0.268 OA
ATOM      3  N   UNL     1      -5.736  -6.164  -1.417  0.00  0.00    -0.293 N 
ATOM      4  C   UNL     1      -5.051  -7.258  -0.714  0.00  0.00    +0.127 C 
ATOM      5  C   UNL     1      -5.741  -7.481   0.637  0.00  0.00    +0.127 C 
ATOM      6  N   UNL     1      -7.191  -7.580   0.414  0.00  0.00    -0.298 N 
ATOM      7  C   UNL     1      -7.875  -6.485  -0.288  0.00  0.00    +0.127 C 
ATOM      8  C   UNL     1      -7.186  -6.260  -1.635  0.00  0.00    +0.127 C 
ATOM      9  C   UNL     1      -7.879  -8.655   0.845  0.00  0.00    +0.219 C 
ATOM     10  O   UNL     1      -7.316  -9.522   1.479  0.00  0.00    -0.275 OA
ENDROOT
BRANCH   1  13
ATOM     11  C   UNL     1      -1.450  -4.440  -1.647  0.00  0.00    +0.019 A 
ATOM     12  C   UNL     1      -2.783  -3.990  -1.639  0.00  0.00    +0.042 A 
ATOM     13  C   UNL     1      -3.581  -5.088  -1.798  0.00  0.00    +0.103 A 
ATOM     14  N   UNL     1      -2.768  -6.194  -1.902  0.00  0.00    -0.356 N 
ATOM     15  H   UNL     1      -3.070  -7.107  -2.021  0.00  0.00    +0.165 HD
ATOM     16  C   UNL     1      -1.475  -5.795  -1.815  0.00  0.00    +0.093 A 
BRANCH  11  20
ATOM     17  C   UNL     1       0.848  -0.085  -0.837  0.00  0.00    +0.073 C 
ATOM     18  C   UNL     1       0.757  -1.561  -1.125  0.00  0.00    +0.076 A 
ATOM     19  N   UNL     1      -0.316  -2.298  -1.249  0.00  0.00    -0.244 NA
ATOM     20  C   UNL     1      -0.236  -3.595  -1.506  0.00  0.00    +0.080 A 
ATOM     21  C   UNL     1       1.022  -4.116  -1.633  0.00  0.00    +0.075 A 
ATOM     22  S   UNL     1       2.013  -2.654  -1.372  0.00  0.00    -0.080 S 
ENDBRANCH  11  20
ENDBRANCH   1  13
BRANCH   9  23
ATOM     23  C   UNL     1      -9.350  -8.780   0.540  0.00  0.00    +0.075 C 
ATOM     24  C   UNL     1     -10.161  -8.143   1.671  0.00  0.00    +0.013 C 
ATOM     25  C   UNL     1     -11.654  -8.270   1.361  0.00  0.00    +0.001 C 
ATOM     26  C   UNL     1     -12.025  -9.749   1.237  0.00  0.00    +0.000 C 
ATOM     27  C   UNL     1     -11.214 -10.386   0.107  0.00  0.00    +0.001 C 
ATOM     28  C   UNL     1      -9.721 -10.259   0.417  0.00  0.00    +0.013 C 
ENDBRANCH   9  23
TORSDOF 3
