REMARK  Name = ZINC31892908
REMARK  7 active torsions:
REMARK  status: ('A' for Active; 'I' for Inactive)
REMARK    1  A    between atoms: N_13  and  C_14
REMARK    2  A    between atoms: C_14  and  C_15
REMARK    3  A    between atoms: C_15  and  C_16
REMARK    4  A    between atoms: N_18  and  C_19
REMARK    5  A    between atoms: C_19  and  C_20
REMARK    6  A    between atoms: C_20  and  C_22
REMARK    7  A    between atoms: C_20  and  N_30
REMARK                            x       y       z     vdW  Elec       q    Type
REMARK                         _______ _______ _______ _____ _____    ______ ____
ROOT
ATOM      1  C   UNL     1       6.482   1.388   1.397  0.00  0.00    +0.215 C 
ATOM      2  O   UNL     1       6.839   1.941   0.378  0.00  0.00    -0.276 OA
ATOM      3  N   UNL     1       7.179   1.561   2.538  0.00  0.00    -0.316 N 
ATOM      4  H   UNL     1       6.894   1.119   3.352  0.00  0.00    +0.149 HD
ENDROOT
BRANCH   1   5
ATOM      5  C   UNL     1       5.259   0.508   1.388  0.00  0.00    +0.117 C 
BRANCH   5   6
ATOM      6  C   UNL     1       4.660   0.482  -0.020  0.00  0.00    +0.136 C 
BRANCH   6  19
ATOM      7  C   UNL     1      -0.295   1.206   0.777  0.00  0.00    +0.001 A 
ATOM      8  C   UNL     1       0.818   2.033   0.790  0.00  0.00    +0.002 A 
ATOM      9  C   UNL     1       2.074   1.525   0.525  0.00  0.00    +0.027 A 
ATOM     10  C   UNL     1       2.226   0.176   0.242  0.00  0.00    +0.059 A 
ATOM     11  C   UNL     1       1.099  -0.662   0.229  0.00  0.00    +0.063 A 
ATOM     12  C   UNL     1      -0.164  -0.138   0.498  0.00  0.00    +0.015 A 
ATOM     13  C   UNL     1       1.296  -2.091  -0.075  0.00  0.00    +0.262 A 
ATOM     14  O   UNL     1       0.354  -2.859  -0.100  0.00  0.00    -0.267 OA
ATOM     15  N   UNL     1       2.550  -2.525  -0.325  0.00  0.00    -0.274 N 
ATOM     16  H   UNL     1       2.698  -3.462  -0.527  0.00  0.00    +0.173 HD
ATOM     17  C   UNL     1       3.596  -1.684  -0.300  0.00  0.00    +0.330 A 
ATOM     18  O   UNL     1       4.705  -2.127  -0.532  0.00  0.00    -0.246 OA
ATOM     19  N   UNL     1       3.471  -0.373  -0.029  0.00  0.00    -0.293 N 
ENDBRANCH   6  19
ENDBRANCH   5   6
ENDBRANCH   1   5
BRANCH   3  20
ATOM     20  C   UNL     1       8.368   2.417   2.547  0.00  0.00    +0.093 C 
BRANCH  20  21
ATOM     21  C   UNL     1       8.893   2.546   3.978  0.00  0.00    -0.016 C 
BRANCH  21  22
ATOM     22  C   UNL     1       7.883   3.286   4.818  0.00  0.00    -0.006 A 
ATOM     23  C   UNL     1       7.735   4.655   4.677  0.00  0.00    +0.126 A 
ATOM     24  C   UNL     1       6.808   5.333   5.449  0.00  0.00    +0.038 A 
ATOM     25  C   UNL     1       6.030   4.644   6.361  0.00  0.00    +0.004 A 
ATOM     26  C   UNL     1       6.178   3.277   6.501  0.00  0.00    +0.020 A 
ATOM     27  C   UNL     1       7.101   2.596   5.726  0.00  0.00    +0.045 A 
ATOM     28 CL   UNL     1       7.280   0.878   5.898  0.00  0.00    -0.083 Cl
ATOM     29  F   UNL     1       8.496   5.329   3.787  0.00  0.00    -0.205 F 
ENDBRANCH  21  22
BRANCH  21  30
ATOM     30  N   UNL     1      10.161   3.288   3.970  0.00  0.00    +0.385 N 
ATOM     31  C   UNL     1      10.660   3.464   5.358  0.00  0.00    -0.078 C 
ATOM     32  C   UNL     1      12.176   3.718   5.159  0.00  0.00    -0.020 C 
ATOM     33  C   UNL     1      12.534   2.776   3.987  0.00  0.00    -0.020 C 
ATOM     34  C   UNL     1      11.201   2.512   3.262  0.00  0.00    -0.078 C 
ATOM     35  H   UNL     1      10.036   4.187   3.528  0.00  0.00    -0.081 HD
ENDBRANCH  21  30
ENDBRANCH  20  21
ENDBRANCH   3  20
TORSDOF 7
