REMARK  Name = ZINC13418329
REMARK  7 active torsions:
REMARK  status: ('A' for Active; 'I' for Inactive)
REMARK    1  A    between atoms: C_1  and  C_2
REMARK    2  A    between atoms: N_7  and  C_10
REMARK    3  A    between atoms: C_10  and  C_11
REMARK    4  A    between atoms: N_13  and  C_14
REMARK    5  A    between atoms: C_14  and  C_16
REMARK    6  A    between atoms: C_14  and  C_17
REMARK    7  A    between atoms: C_28  and  C_29
REMARK                            x       y       z     vdW  Elec       q    Type
REMARK                         _______ _______ _______ _____ _____    ______ ____
ROOT
ATOM      1  C   UNL     1       2.840   0.972  -1.439  0.00  0.00    +0.233 C 
ATOM      2  O   UNL     1       2.142   1.359  -2.353  0.00  0.00    -0.274 OA
ATOM      3  N   UNL     1       3.996   0.330  -1.699  0.00  0.00    -0.307 N 
ATOM      4  H   UNL     1       4.553   0.021  -0.969  0.00  0.00    +0.149 HD
ENDROOT
BRANCH   3   5
ATOM      5  C   UNL     1       4.410   0.100  -3.085  0.00  0.00    +0.100 C 
ATOM      6  C   UNL     1       3.752  -1.179  -3.608  0.00  0.00    +0.033 C 
BRANCH   5   7
ATOM      7  C   UNL     1       5.909  -0.046  -3.144  0.00  0.00    -0.027 A 
ATOM      8  C   UNL     1       6.577  -0.745  -2.156  0.00  0.00    +0.006 A 
ATOM      9  C   UNL     1       7.949  -0.876  -2.219  0.00  0.00    +0.004 A 
ATOM     10  C   UNL     1       8.666  -0.302  -3.260  0.00  0.00    -0.044 A 
ATOM     11  C   UNL     1       8.001   0.396  -4.243  0.00  0.00    -0.044 A 
ATOM     12  C   UNL     1       6.619   0.523  -4.181  0.00  0.00    +0.009 A 
ATOM     13  C   UNL     1       8.713   1.036  -5.406  0.00  0.00    +0.035 C 
ATOM     14  C   UNL     1      10.204   1.182  -5.109  0.00  0.00    +0.005 C 
ATOM     15  C   UNL     1      10.739  -0.177  -4.642  0.00  0.00    +0.005 C 
ATOM     16  C   UNL     1      10.163  -0.472  -3.258  0.00  0.00    +0.035 C 
ENDBRANCH   5   7
ENDBRANCH   3   5
BRANCH   1  17
ATOM     17  C   UNL     1       2.413   1.210  -0.013  0.00  0.00    +0.222 C 
BRANCH  17  24
ATOM     18  C   UNL     1      -2.847  -0.025   0.015  0.00  0.00    +0.046 C 
ATOM     19  C   UNL     1      -2.602   1.462   0.022  0.00  0.00    -0.015 A 
ATOM     20  C   UNL     1      -1.296   1.956   0.019  0.00  0.00    +0.076 A 
ATOM     21  C   UNL     1      -1.170   3.365   0.030  0.00  0.00    +0.116 A 
ATOM     22  N   UNL     1       0.015   3.961   0.022  0.00  0.00    -0.230 NA
ATOM     23  C   UNL     1       1.126   3.276   0.008  0.00  0.00    +0.203 A 
ATOM     24  N   UNL     1       1.133   1.921   0.002  0.00  0.00    -0.290 N 
ATOM     25  C   UNL     1      -0.014   1.214   0.009  0.00  0.00    +0.263 A 
ATOM     26  O   UNL     1       0.002  -0.004   0.002  0.00  0.00    -0.267 OA
ATOM     27  S   UNL     1      -2.854   3.924   0.048  0.00  0.00    -0.062 S 
ATOM     28  C   UNL     1      -3.656   2.330   0.031  0.00  0.00    +0.106 A 
BRANCH  28  29
ATOM     29  C   UNL     1      -5.088   2.027   0.036  0.00  0.00    +0.393 C 
ATOM     30  O   UNL     1      -5.466   0.870   0.031  0.00  0.00    -0.240 OA
ATOM     31  O   UNL     1      -5.990   3.030   0.045  0.00  0.00    -0.240 OA
ENDBRANCH  28  29
ENDBRANCH  17  24
ENDBRANCH   1  17
TORSDOF 5
