REMARK  Name = ZINC39699321
REMARK  14 active torsions:
REMARK  status: ('A' for Active; 'I' for Inactive)
REMARK    1  A    between atoms: C_1  and  C_2
REMARK    2  A    between atoms: C_2  and  C_3
REMARK    3  A    between atoms: C_3  and  C_4
REMARK    4  A    between atoms: C_3  and  C_5
REMARK    5  A    between atoms: C_3  and  N_6
REMARK    6  A    between atoms: C_7  and  C_12
REMARK    7  A    between atoms: C_12  and  C_14
REMARK    8  A    between atoms: C_12  and  N_28
REMARK    9  A    between atoms: C_18  and  C_27
REMARK   10  A    between atoms: C_20  and  C_26
REMARK   11  A    between atoms: N_28  and  C_29
REMARK   12  A    between atoms: N_28  and  C_36
REMARK   13  A    between atoms: C_29  and  C_30
REMARK   14  A    between atoms: C_36  and  C_37
REMARK                            x       y       z     vdW  Elec       q    Type
REMARK                         _______ _______ _______ _____ _____    ______ ____
ROOT
ATOM      1  C   UNL     1      -3.164  -2.693   0.826  0.00  0.00    -0.010 C 
ENDROOT
BRANCH   1   2
ATOM      2  C   UNL     1      -2.181  -3.183   1.891  0.00  0.00    +0.088 C 
ATOM      3  C   UNL     1      -1.492  -4.421   1.353  0.00  0.00    -0.006 C 
ATOM      4  C   UNL     1      -1.604  -5.566   2.085  0.00  0.00    -0.004 A 
ATOM      5  C   UNL     1      -0.971  -6.808   1.638  0.00  0.00    -0.042 A 
ATOM      6  C   UNL     1      -1.110  -7.924   2.399  0.00  0.00    +0.007 A 
ATOM      7  C   UNL     1      -1.841  -7.907   3.587  0.00  0.00    -0.048 A 
ATOM      8  C   UNL     1      -2.453  -6.788   4.055  0.00  0.00    +0.027 A 
ATOM      9  C   UNL     1      -2.369  -5.577   3.344  0.00  0.00    +0.041 A 
ATOM     10  N   UNL     1      -2.973  -4.486   3.813  0.00  0.00    -0.285 N 
ATOM     11  C   UNL     1      -2.937  -3.318   3.193  0.00  0.00    +0.223 C 
ATOM     12  O   UNL     1      -3.508  -2.357   3.671  0.00  0.00    -0.275 OA
ATOM     13  C   UNL     1      -1.956  -9.181   4.383  0.00  0.00    +0.044 C 
ATOM     14  C   UNL     1      -0.178  -6.847   0.357  0.00  0.00    +0.044 C 
ATOM     15  H   UNL     1      -3.463  -4.551   4.647  0.00  0.00    +0.155 HD
ENDBRANCH   1   2
BRANCH   1  17
ATOM     16  N   UNL     1      -1.266  -1.592  -0.314  0.00  0.00    -0.211 N 
ATOM     17  C   UNL     1      -2.424  -2.488  -0.497  0.00  0.00    +0.183 C 
ATOM     18  N   UNL     1      -1.799  -3.745  -0.950  0.00  0.00    -0.229 N 
ATOM     19  N   UNL     1      -0.422  -3.495  -0.991  0.00  0.00    -0.064 NA
ATOM     20  N   UNL     1      -0.139  -2.348  -0.657  0.00  0.00    -0.061 NA
ATOM     21  H   UNL     1      -2.249  -4.575  -1.173  0.00  0.00    +0.172 HD
BRANCH  16  22
ATOM     22  C   UNL     1      -1.292  -0.197   0.130  0.00  0.00    +0.050 C 
ATOM     23  C   UNL     1      -1.716  -0.136   1.599  0.00  0.00    +0.033 C 
ATOM     24  C   UNL     1      -2.289   0.592  -0.721  0.00  0.00    +0.033 C 
BRANCH  22  26
ATOM     25  C   UNL     1       0.051   1.901   0.330  0.00  0.00    +0.006 C 
ATOM     26  C   UNL     1       0.103   0.413  -0.023  0.00  0.00    +0.023 C 
ENDBRANCH  22  26
ENDBRANCH  16  22
ENDBRANCH   1  17
BRANCH   1  27
ATOM     27  N   UNL     1      -4.225  -3.693   0.643  0.00  0.00    +0.392 N 
ATOM     28  H   UNL     1      -4.593  -3.626  -0.294  0.00  0.00    -0.080 HD
BRANCH  27  29
ATOM     29  C   UNL     1      -3.674  -5.037   0.858  0.00  0.00    -0.042 C 
BRANCH  29  30
ATOM     30  C   UNL     1      -4.709  -6.069   0.492  0.00  0.00    -0.064 A 
ATOM     31  C   UNL     1      -5.597  -6.527   1.447  0.00  0.00    +0.002 A 
ATOM     32  C   UNL     1      -6.546  -7.474   1.111  0.00  0.00    +0.000 A 
ATOM     33  C   UNL     1      -6.608  -7.963  -0.180  0.00  0.00    +0.000 A 
ATOM     34  C   UNL     1      -5.720  -7.505  -1.136  0.00  0.00    +0.000 A 
ATOM     35  C   UNL     1      -4.774  -6.555  -0.801  0.00  0.00    +0.002 A 
ENDBRANCH  29  30
ENDBRANCH  27  29
BRANCH  27  36
ATOM     36  C   UNL     1      -5.303  -3.445   1.610  0.00  0.00    -0.002 C 
BRANCH  36  37
ATOM     37  C   UNL     1      -5.920  -2.097   1.341  0.00  0.00    +0.089 A 
ATOM     38  C   UNL     1      -7.013  -1.868   0.592  0.00  0.00    +0.042 A 
ATOM     39  C   UNL     1      -7.236  -0.471   0.609  0.00  0.00    +0.041 A 
ATOM     40  C   UNL     1      -6.265   0.069   1.367  0.00  0.00    +0.195 A 
ATOM     41  O   UNL     1      -5.474  -0.921   1.812  0.00  0.00    -0.470 OA
ENDBRANCH  36  37
ENDBRANCH  27  36
ENDBRANCH   1  27
TORSDOF 9
