REMARK  Name = ZINC27333459
REMARK  8 active torsions:
REMARK  status: ('A' for Active; 'I' for Inactive)
REMARK    1  A    between atoms: C_3  and  C_6
REMARK    2  A    between atoms: C_6  and  C_8
REMARK    3  A    between atoms: C_6  and  N_29
REMARK    4  A    between atoms: C_8  and  N_9
REMARK    5  A    between atoms: C_10  and  C_12
REMARK    6  A    between atoms: C_12  and  S_13
REMARK    7  A    between atoms: S_13  and  C_14
REMARK    8  A    between atoms: C_14  and  C_15
REMARK                            x       y       z     vdW  Elec       q    Type
REMARK                         _______ _______ _______ _____ _____    ______ ____
ROOT
ATOM      1  N   UNL     1       5.594   0.205  -1.396  0.00  0.00    -0.316 N 
ATOM      2  C   UNL     1       6.287  -0.016  -2.530  0.00  0.00    +0.223 C 
ATOM      3  O   UNL     1       5.698  -0.191  -3.576  0.00  0.00    -0.275 OA
ATOM      4  H   UNL     1       6.065   0.345  -0.559  0.00  0.00    +0.149 HD
ENDROOT
BRANCH   1   5
ATOM      5  C   UNL     1       4.130   0.234  -1.426  0.00  0.00    +0.096 C 
BRANCH   5   6
ATOM      6  C   UNL     1       3.599   0.632  -0.047  0.00  0.00    +0.016 C 
BRANCH   6   7
ATOM      7  N   UNL     1       2.133   0.536  -0.040  0.00  0.00    +0.387 N 
ATOM      8  C   UNL     1       1.712  -0.871  -0.262  0.00  0.00    -0.078 C 
ATOM      9  C   UNL     1       0.277  -0.907   0.321  0.00  0.00    -0.020 C 
ATOM     10  C   UNL     1       0.383   0.012   1.559  0.00  0.00    -0.020 C 
ATOM     11  C   UNL     1       1.604   0.910   1.290  0.00  0.00    -0.078 C 
ATOM     12  H   UNL     1       1.741   1.134  -0.751  0.00  0.00    -0.081 HD
ENDBRANCH   6   7
BRANCH   6  15
ATOM     13  C   UNL     1       5.064   3.832   1.049  0.00  0.00    +0.041 A 
ATOM     14  C   UNL     1       5.043   2.418   1.039  0.00  0.00    +0.043 A 
ATOM     15  C   UNL     1       4.011   2.050   0.259  0.00  0.00    +0.093 A 
ATOM     16  O   UNL     1       3.409   3.159  -0.201  0.00  0.00    -0.469 OA
ATOM     17  C   UNL     1       4.044   4.243   0.275  0.00  0.00    +0.195 A 
ENDBRANCH   6  15
ENDBRANCH   5   6
ENDBRANCH   1   5
BRANCH   2  18
ATOM     18  C   UNL     1       7.793  -0.045  -2.499  0.00  0.00    +0.165 C 
BRANCH  18  19
ATOM     19  S   UNL     1       8.426  -0.362  -4.170  0.00  0.00    -0.144 S 
BRANCH  19  20
ATOM     20  C   UNL     1      10.229  -0.366  -3.963  0.00  0.00    +0.143 C 
BRANCH  20  21
ATOM     21  C   UNL     1      10.886  -0.622  -5.294  0.00  0.00    +0.121 A 
ATOM     22  N   UNL     1      12.241  -0.673  -5.369  0.00  0.00    -0.310 N 
ATOM     23  H   UNL     1      12.767  -0.544  -4.564  0.00  0.00    +0.170 HD
ATOM     24  C   UNL     1      12.870  -0.899  -6.538  0.00  0.00    +0.260 A 
ATOM     25  O   UNL     1      14.087  -0.942  -6.591  0.00  0.00    -0.267 OA
ATOM     26  C   UNL     1      12.082  -1.087  -7.720  0.00  0.00    +0.075 A 
ATOM     27  C   UNL     1      12.549  -1.345  -9.090  0.00  0.00    -0.023 A 
ATOM     28  C   UNL     1      11.605  -1.487 -10.037  0.00  0.00    -0.004 A 
ATOM     29  S   UNL     1      10.060  -1.293  -9.178  0.00  0.00    -0.073 S 
ATOM     30  C   UNL     1      10.693  -1.018  -7.545  0.00  0.00    +0.116 A 
ATOM     31  N   UNL     1      10.143  -0.796  -6.354  0.00  0.00    -0.226 NA
ATOM     32  C   UNL     1      12.198  -1.740 -11.397  0.00  0.00    +0.043 C 
ATOM     33  C   UNL     1      13.677  -1.313 -11.261  0.00  0.00    +0.010 C 
ATOM     34  C   UNL     1      13.921  -1.505  -9.751  0.00  0.00    +0.037 C 
ENDBRANCH  20  21
ENDBRANCH  19  20
ENDBRANCH  18  19
ENDBRANCH   2  18
TORSDOF 8
