REMARK  Name = ZINC27792159
REMARK  8 active torsions:
REMARK  status: ('A' for Active; 'I' for Inactive)
REMARK    1  A    between atoms: C_1  and  C_2
REMARK    2  A    between atoms: C_2  and  N_3
REMARK    3  A    between atoms: N_3  and  C_4
REMARK    4  A    between atoms: C_4  and  C_5
REMARK    5  A    between atoms: C_15  and  C_17
REMARK    6  A    between atoms: C_17  and  S_18
REMARK    7  A    between atoms: S_18  and  C_19
REMARK    8  A    between atoms: N_24  and  C_25
REMARK                            x       y       z     vdW  Elec       q    Type
REMARK                         _______ _______ _______ _____ _____    ______ ____
ROOT
ATOM      1  N   UNL     1       4.117  -0.949  -1.436  0.00  0.00    -0.297 N 
ATOM      2  C   UNL     1       3.730  -2.072  -2.073  0.00  0.00    +0.226 C 
ATOM      3  O   UNL     1       3.045  -2.890  -1.498  0.00  0.00    -0.275 OA
ENDROOT
BRANCH   1   5
ATOM      4  C   UNL     1       6.423  -0.287  -1.911  0.00  0.00    +0.024 C 
ATOM      5  C   UNL     1       4.945   0.040  -2.131  0.00  0.00    +0.105 C 
ENDBRANCH   1   5
BRANCH   1   6
ATOM      6  C   UNL     1       3.709  -0.717  -0.048  0.00  0.00    +0.143 C 
BRANCH   6   7
ATOM      7  C   UNL     1       2.397   0.024  -0.027  0.00  0.00    -0.026 A 
ATOM      8  C   UNL     1       1.207  -0.680  -0.016  0.00  0.00    +0.009 A 
ATOM      9  C   UNL     1       0.002  -0.004   0.002  0.00  0.00    +0.050 A 
ATOM     10  C   UNL     1      -0.017   1.383   0.010  0.00  0.00    +0.162 A 
ATOM     11  C   UNL     1       1.179   2.090   0.002  0.00  0.00    +0.162 A 
ATOM     12  C   UNL     1       2.385   1.406  -0.018  0.00  0.00    +0.054 A 
ATOM     13  O   UNL     1       1.184   3.451   0.018  0.00  0.00    -0.485 OA
ATOM     14  C   UNL     1      -0.040   4.103  -0.340  0.00  0.00    +0.270 C 
ATOM     15  C   UNL     1      -1.189   3.413   0.408  0.00  0.00    +0.270 C 
ATOM     16  O   UNL     1      -1.212   2.035   0.019  0.00  0.00    -0.485 OA
ENDBRANCH   6   7
ENDBRANCH   1   6
BRANCH   2  17
ATOM     17  C   UNL     1       4.150  -2.310  -3.501  0.00  0.00    +0.172 C 
BRANCH  17  18
ATOM     18  S   UNL     1       3.477  -3.895  -4.072  0.00  0.00    -0.088 S 
BRANCH  18  19
ATOM     19  C   UNL     1       4.048  -4.026  -5.734  0.00  0.00    +0.160 A 
ATOM     20  N   UNL     1       4.791  -3.188  -6.431  0.00  0.00    -0.133 NA
ATOM     21  N   UNL     1       5.126  -3.490  -7.731  0.00  0.00    -0.125 NA
ATOM     22  C   UNL     1       4.702  -4.614  -8.275  0.00  0.00    +0.183 A 
ATOM     23  S   UNL     1       3.781  -5.332  -6.923  0.00  0.00    -0.025 S 
ATOM     24  N   UNL     1       4.919  -5.110  -9.555  0.00  0.00    -0.319 N 
ATOM     25  H   UNL     1       4.487  -6.077  -9.850  0.00  0.00    +0.148 HD
BRANCH  24  26
ATOM     26  C   UNL     1       5.723  -4.344 -10.511  0.00  0.00    +0.072 C 
ATOM     27  C   UNL     1       5.203  -4.238 -11.946  0.00  0.00    +0.024 C 
ATOM     28  C   UNL     1       6.414  -5.120 -11.634  0.00  0.00    +0.024 C 
ENDBRANCH  24  26
ENDBRANCH  18  19
ENDBRANCH  17  18
ENDBRANCH   2  17
TORSDOF 7
