REMARK  Name = ZINC39546954
REMARK  6 active torsions:
REMARK  status: ('A' for Active; 'I' for Inactive)
REMARK    1  A    between atoms: C_10  and  C_13
REMARK    2  A    between atoms: C_13  and  C_14
REMARK    3  A    between atoms: C_14  and  O_16
REMARK    4  A    between atoms: O_16  and  C_17
REMARK    5  A    between atoms: C_17  and  C_18
REMARK    6  A    between atoms: N_20  and  C_21
REMARK                            x       y       z     vdW  Elec       q    Type
REMARK                         _______ _______ _______ _____ _____    ______ ____
ROOT
ATOM      1  C   UNL     1       4.819  -1.732   2.844  0.00  0.00    +0.309 C 
ATOM      2  O   UNL     1       5.764  -1.675   2.093  0.00  0.00    -0.251 OA
ENDROOT
BRANCH   1   3
ATOM      3  C   UNL     1       3.462  -2.125   2.318  0.00  0.00    +0.144 C 
BRANCH   3  13
ATOM      4  C   UNL     1      -0.002   1.347  -0.015  0.00  0.00    +0.002 A 
ATOM      5  C   UNL     1       1.182   2.062  -0.025  0.00  0.00    +0.001 A 
ATOM      6  C   UNL     1       2.392   1.392  -0.038  0.00  0.00    +0.016 A 
ATOM      7  C   UNL     1       2.413   0.007  -0.038  0.00  0.00    +0.030 A 
ATOM      8  C   UNL     1       1.224  -0.721  -0.020  0.00  0.00    +0.047 A 
ATOM      9  C   UNL     1       0.014  -0.034  -0.013  0.00  0.00    +0.024 A 
ATOM     10  N   UNL     1       1.213  -2.113   0.003  0.00  0.00    -0.284 N 
ATOM     11  C   UNL     1       2.233  -2.909   0.310  0.00  0.00    +0.231 C 
ATOM     12  O   UNL     1       2.090  -4.106   0.175  0.00  0.00    -0.274 OA
ATOM     13  C   UNL     1       3.556  -2.397   0.816  0.00  0.00    +0.148 C 
ATOM     14  S   UNL     1       3.953  -0.856  -0.066  0.00  0.00    -0.110 S 
ATOM     15  H   UNL     1       0.377  -2.546  -0.227  0.00  0.00    +0.155 HD
ENDBRANCH   3  13
ENDBRANCH   1   3
BRANCH   1  16
ATOM     16  O   UNL     1       4.977  -1.444   4.145  0.00  0.00    -0.455 OA
BRANCH  16  17
ATOM     17  C   UNL     1       6.290  -1.079   4.574  0.00  0.00    +0.328 C 
BRANCH  17  18
ATOM     18  C   UNL     1       6.274  -0.794   6.054  0.00  0.00    +0.255 C 
ATOM     19  O   UNL     1       5.240  -0.895   6.680  0.00  0.00    -0.272 OA
ATOM     20  N   UNL     1       7.409  -0.428   6.682  0.00  0.00    -0.281 N 
ATOM     21  H   UNL     1       8.249  -0.412   6.196  0.00  0.00    +0.155 HD
BRANCH  20  22
ATOM     22  C   UNL     1       7.377  -0.073   8.032  0.00  0.00    +0.062 A 
ATOM     23  C   UNL     1       6.521  -0.703   8.881  0.00  0.00    +0.025 A 
ATOM     24  C   UNL     1       6.464  -0.372  10.233  0.00  0.00    +0.004 A 
ATOM     25  C   UNL     1       7.257   0.591  10.761  0.00  0.00    +0.031 A 
ATOM     26  C   UNL     1       8.177   1.294   9.936  0.00  0.00    +0.102 A 
ATOM     27  C   UNL     1       8.246   0.947   8.522  0.00  0.00    +0.121 A 
ATOM     28  N   UNL     1       9.146   1.663   7.849  0.00  0.00    -0.189 NA
ATOM     29  S   UNL     1       9.813   2.649   8.931  0.00  0.00    +0.117 S 
ATOM     30  N   UNL     1       9.027   2.262  10.281  0.00  0.00    -0.191 NA
ENDBRANCH  20  22
ENDBRANCH  17  18
ENDBRANCH  16  17
ENDBRANCH   1  16
TORSDOF 6
