REMARK  Name = ZINC13471659
REMARK  6 active torsions:
REMARK  status: ('A' for Active; 'I' for Inactive)
REMARK    1  A    between atoms: C_4  and  C_7
REMARK    2  A    between atoms: N_8  and  C_9
REMARK    3  A    between atoms: C_9  and  S_10
REMARK    4  A    between atoms: S_10  and  C_13
REMARK    5  A    between atoms: N_21  and  C_22
REMARK    6  A    between atoms: C_25  and  N_28
REMARK                            x       y       z     vdW  Elec       q    Type
REMARK                         _______ _______ _______ _____ _____    ______ ____
ROOT
ATOM      1  C   UNL     1       4.705  -1.554   0.064  0.00  0.00    +0.115 C 
ATOM      2  N   UNL     1       5.229  -2.809  -0.082  0.00  0.00    -0.352 N 
ATOM      3  N   UNL     1       5.457  -0.493  -0.171  0.00  0.00    -0.323 N 
ATOM      4  C   UNL     1       5.284   0.624   0.551  0.00  0.00    +0.148 C 
ATOM      5  N   UNL     1       5.908   1.790   0.174  0.00  0.00    -0.295 N 
ATOM      6  S   UNL     1       4.316   0.600   1.900  0.00  0.00    -0.016 SA
ATOM      7  H   UNL     1       6.134  -0.523  -0.865  0.00  0.00    +0.169 HD
ATOM      8  H   UNL     1       6.180  -2.923  -0.236  0.00  0.00    +0.163 HD
ATOM      9  H   UNL     1       6.349   1.846  -0.688  0.00  0.00    +0.154 HD
ENDROOT
BRANCH   1  13
ATOM     10  C   UNL     1       0.664  -1.066   1.272  0.00  0.00    +0.000 A 
ATOM     11  C   UNL     1       1.465  -2.000   1.906  0.00  0.00    +0.001 A 
ATOM     12  C   UNL     1       2.778  -2.164   1.519  0.00  0.00    +0.011 A 
ATOM     13  C   UNL     1       3.300  -1.385   0.484  0.00  0.00    +0.015 A 
ATOM     14  C   UNL     1       2.486  -0.444  -0.152  0.00  0.00    +0.011 A 
ATOM     15  C   UNL     1       1.174  -0.291   0.245  0.00  0.00    +0.001 A 
ENDBRANCH   1  13
BRANCH   5  16
ATOM     16  C   UNL     1       5.907   2.893   1.033  0.00  0.00    +0.033 A 
ATOM     17  C   UNL     1       6.052   2.709   2.402  0.00  0.00    +0.025 A 
ATOM     18  C   UNL     1       6.051   3.801   3.247  0.00  0.00    +0.034 A 
ATOM     19  C   UNL     1       5.905   5.077   2.732  0.00  0.00    +0.126 A 
ATOM     20  C   UNL     1       5.761   5.263   1.370  0.00  0.00    +0.034 A 
ATOM     21  C   UNL     1       5.767   4.176   0.518  0.00  0.00    +0.025 A 
BRANCH  19  22
ATOM     22  N   UNL     1       5.904   6.245   3.642  0.00  0.00    +0.056 N 
ATOM     23  O   UNL     1       6.030   6.083   4.833  0.00  0.00    -0.126 OA
ATOM     24  O   UNL     1       5.777   7.360   3.192  0.00  0.00    -0.126 OA
ENDBRANCH  19  22
ENDBRANCH   5  16
BRANCH   2  25
ATOM     25  C   UNL     1       4.353  -3.981  -0.006  0.00  0.00    +0.288 C 
BRANCH  25  26
ATOM     26  S   UNL     1       4.472  -4.926  -1.550  0.00  0.00    +0.015 S 
ATOM     27  O   UNL     1       3.677  -6.100  -1.468  0.00  0.00    -0.168 OA
ATOM     28  O   UNL     1       4.363  -4.054  -2.667  0.00  0.00    -0.168 OA
BRANCH  26  29
ATOM     29  C   UNL     1       6.134  -5.510  -1.597  0.00  0.00    +0.090 A 
ATOM     30  C   UNL     1       7.119  -4.745  -2.192  0.00  0.00    +0.027 A 
ATOM     31  C   UNL     1       8.423  -5.203  -2.229  0.00  0.00    +0.002 A 
ATOM     32  C   UNL     1       8.741  -6.427  -1.670  0.00  0.00    +0.000 A 
ATOM     33  C   UNL     1       7.755  -7.192  -1.075  0.00  0.00    +0.002 A 
ATOM     34  C   UNL     1       6.453  -6.732  -1.034  0.00  0.00    +0.027 A 
ENDBRANCH  26  29
ENDBRANCH  25  26
ENDBRANCH   2  25
TORSDOF 6
