REMARK  Name = ZINC00412865
REMARK  8 active torsions:
REMARK  status: ('A' for Active; 'I' for Inactive)
REMARK    1  A    between atoms: C_1  and  C_2
REMARK    2  A    between atoms: C_5  and  N_9
REMARK    3  A    between atoms: C_7  and  C_8
REMARK    4  A    between atoms: C_10  and  C_12
REMARK    5  A    between atoms: C_12  and  S_13
REMARK    6  A    between atoms: S_13  and  C_14
REMARK    7  A    between atoms: C_17  and  C_20
REMARK    8  A    between atoms: N_18  and  C_19
REMARK                            x       y       z     vdW  Elec       q    Type
REMARK                         _______ _______ _______ _____ _____    ______ ____
ROOT
ATOM      1  C   UNL     1      -5.211  -3.527  -0.058  0.00  0.00    +0.173 C 
ENDROOT
BRANCH   1   3
ATOM      2  N   UNL     1      -7.025  -5.206   0.045  0.00  0.00    -0.285 N 
ATOM      3  C   UNL     1      -6.660  -3.910   0.098  0.00  0.00    +0.227 C 
ATOM      4  O   UNL     1      -7.499  -3.051   0.271  0.00  0.00    -0.275 OA
ATOM      5  H   UNL     1      -6.367  -5.886  -0.169  0.00  0.00    +0.155 HD
BRANCH   2  10
ATOM      6  C   UNL     1     -12.404  -6.686   1.075  0.00  0.00    +0.044 C 
ATOM      7  C   UNL     1     -10.975  -6.293   0.801  0.00  0.00    -0.047 A 
ATOM      8  C   UNL     1     -10.417  -5.215   1.464  0.00  0.00    +0.005 A 
ATOM      9  C   UNL     1      -9.106  -4.856   1.220  0.00  0.00    +0.023 A 
ATOM     10  C   UNL     1      -8.351  -5.571   0.299  0.00  0.00    +0.034 A 
ATOM     11  C   UNL     1      -8.915  -6.653  -0.364  0.00  0.00    +0.027 A 
ATOM     12  C   UNL     1     -10.225  -7.011  -0.111  0.00  0.00    -0.046 A 
ATOM     13  C   UNL     1     -10.837  -8.185  -0.831  0.00  0.00    +0.044 C 
ENDBRANCH   2  10
ENDBRANCH   1   3
BRANCH   1  14
ATOM     14  S   UNL     1      -5.046  -1.729   0.059  0.00  0.00    -0.077 S 
BRANCH  14  15
ATOM     15  C   UNL     1      -3.304  -1.567  -0.151  0.00  0.00    +0.192 A 
ATOM     16  N   UNL     1      -2.448  -2.546  -0.336  0.00  0.00    -0.122 NA
ATOM     17  N   UNL     1      -1.258  -2.076  -0.458  0.00  0.00    -0.125 NA
ATOM     18  C   UNL     1      -1.279  -0.766  -0.349  0.00  0.00    +0.200 A 
ATOM     19  N   UNL     1      -2.593  -0.400  -0.153  0.00  0.00    -0.303 N 
ATOM     20  C   UNL     1      -3.118   0.957   0.019  0.00  0.00    +0.153 C 
BRANCH  18  21
ATOM     21  C   UNL     1      -0.121   0.138  -0.428  0.00  0.00    +0.172 A 
ATOM     22  C   UNL     1       1.188  -0.229  -0.336  0.00  0.00    +0.053 A 
ATOM     23  C   UNL     1       1.948   0.949  -0.465  0.00  0.00    +0.042 A 
ATOM     24  C   UNL     1       1.079   1.966  -0.628  0.00  0.00    +0.196 A 
ATOM     25  O   UNL     1      -0.170   1.473  -0.606  0.00  0.00    -0.460 OA
ENDBRANCH  18  21
ENDBRANCH  14  15
ENDBRANCH   1  14
TORSDOF 5
