REMARK  Name = ZINC13506220
REMARK  10 active torsions:
REMARK  status: ('A' for Active; 'I' for Inactive)
REMARK    1  A    between atoms: C_1  and  C_2
REMARK    2  A    between atoms: C_7  and  C_8
REMARK    3  A    between atoms: C_8  and  C_10
REMARK    4  A    between atoms: C_8  and  N_18
REMARK    5  A    between atoms: N_12  and  C_13
REMARK    6  A    between atoms: N_18  and  C_19
REMARK    7  A    between atoms: C_24  and  C_25
REMARK    8  A    between atoms: C_26  and  C_28
REMARK    9  A    between atoms: C_28  and  N_29
REMARK   10  A    between atoms: C_30  and  C_32
REMARK                            x       y       z     vdW  Elec       q    Type
REMARK                         _______ _______ _______ _____ _____    ______ ____
ROOT
ATOM      1  N   UNL     1      -5.536   2.773  -0.009  0.00  0.00    -0.254 N 
ATOM      2  C   UNL     1      -4.366   2.139  -0.219  0.00  0.00    +0.238 C 
ATOM      3  O   UNL     1      -4.359   0.962  -0.512  0.00  0.00    -0.274 OA
ENDROOT
BRANCH   1   4
ATOM      4  C   UNL     1      -5.545   4.131   0.329  0.00  0.00    +0.040 A 
ATOM      5  C   UNL     1      -5.688   5.094  -0.662  0.00  0.00    +0.024 A 
ATOM      6  C   UNL     1      -5.696   6.433  -0.324  0.00  0.00    +0.002 A 
ATOM      7  C   UNL     1      -5.562   6.816   0.998  0.00  0.00    +0.000 A 
ATOM      8  C   UNL     1      -5.420   5.859   1.986  0.00  0.00    +0.005 A 
ATOM      9  C   UNL     1      -5.417   4.518   1.656  0.00  0.00    -0.029 A 
ATOM     10  C   UNL     1      -5.268   3.476   2.735  0.00  0.00    +0.045 C 
ENDBRANCH   1   4
BRANCH   1  11
ATOM     11  C   UNL     1      -6.799   2.042  -0.136  0.00  0.00    +0.197 C 
BRANCH  11  18
ATOM     12  C   UNL     1      -7.479  -0.221   1.527  0.00  0.00    +0.044 C 
ATOM     13  C   UNL     1      -7.948   1.160   1.906  0.00  0.00    -0.045 A 
ATOM     14  C   UNL     1      -8.704   1.345   3.049  0.00  0.00    +0.004 A 
ATOM     15  C   UNL     1      -9.133   2.611   3.396  0.00  0.00    +0.000 A 
ATOM     16  C   UNL     1      -8.807   3.694   2.601  0.00  0.00    +0.000 A 
ATOM     17  C   UNL     1      -8.049   3.511   1.460  0.00  0.00    +0.006 A 
ATOM     18  C   UNL     1      -7.623   2.243   1.110  0.00  0.00    -0.015 A 
ENDBRANCH  11  18
BRANCH  11  19
ATOM     19  C   UNL     1      -7.561   2.557  -1.330  0.00  0.00    +0.239 C 
ATOM     20  O   UNL     1      -7.050   3.371  -2.070  0.00  0.00    -0.273 OA
ATOM     21  N   UNL     1      -8.809   2.113  -1.576  0.00  0.00    -0.311 N 
ATOM     22  H   UNL     1      -9.245   1.518  -0.946  0.00  0.00    +0.149 HD
BRANCH  21  23
ATOM     23  C   UNL     1      -9.508   2.529  -2.794  0.00  0.00    +0.073 C 
ATOM     24  C   UNL     1     -10.262   3.852  -2.546  0.00  0.00    +0.022 C 
ATOM     25  C   UNL     1     -11.574   3.699  -3.354  0.00  0.00    +0.002 C 
ATOM     26  C   UNL     1     -11.932   2.207  -3.146  0.00  0.00    +0.002 C 
ATOM     27  C   UNL     1     -10.570   1.483  -3.176  0.00  0.00    +0.022 C 
ENDBRANCH  21  23
ENDBRANCH  11  19
ENDBRANCH   1  11
BRANCH   2  28
ATOM     28  C   UNL     1      -3.067   2.891  -0.089  0.00  0.00    +0.201 C 
BRANCH  28  29
ATOM     29  N   UNL     1      -1.948   1.986  -0.364  0.00  0.00    -0.302 N 
ATOM     30  C   UNL     1      -0.682   2.442  -0.306  0.00  0.00    +0.251 C 
ATOM     31  O   UNL     1      -0.467   3.607  -0.026  0.00  0.00    -0.270 OA
ATOM     32  H   UNL     1      -2.120   1.057  -0.588  0.00  0.00    +0.150 HD
BRANCH  30  33
ATOM     33  C   UNL     1       0.437   1.536  -0.581  0.00  0.00    +0.074 A 
ATOM     34  C   UNL     1       1.798   1.803  -0.581  0.00  0.00    +0.021 A 
ATOM     35  C   UNL     1       2.639   0.761  -0.882  0.00  0.00    +0.008 A 
ATOM     36  C   UNL     1       2.110  -0.460  -1.160  0.00  0.00    +0.046 A 
ATOM     37  S   UNL     1       0.403  -0.195  -1.011  0.00  0.00    -0.092 S 
ENDBRANCH  30  33
ENDBRANCH  28  29
ENDBRANCH   2  28
TORSDOF 8
