REMARK  Name = ZINC24578494
REMARK  14 active torsions:
REMARK  status: ('A' for Active; 'I' for Inactive)
REMARK    1  A    between atoms: C_1  and  C_2
REMARK    2  A    between atoms: C_4  and  C_30
REMARK    3  A    between atoms: C_5  and  C_29
REMARK    4  A    between atoms: C_6  and  S_9
REMARK    5  A    between atoms: C_7  and  C_8
REMARK    6  A    between atoms: S_9  and  N_12
REMARK    7  A    between atoms: N_12  and  C_13
REMARK    8  A    between atoms: C_13  and  C_15
REMARK    9  A    between atoms: C_13  and  C_16
REMARK   10  A    between atoms: N_18  and  C_19
REMARK   11  A    between atoms: C_21  and  O_27
REMARK   12  A    between atoms: C_23  and  O_25
REMARK   13  A    between atoms: O_25  and  C_26
REMARK   14  A    between atoms: O_27  and  C_28
REMARK                            x       y       z     vdW  Elec       q    Type
REMARK                         _______ _______ _______ _____ _____    ______ ____
ROOT
ATOM      1  C   UNL     1       2.085   2.261  -0.561  0.00  0.00    +0.159 C 
ATOM      2  C   UNL     1       1.952   3.690  -1.091  0.00  0.00    +0.035 C 
ENDROOT
BRANCH   1   3
ATOM      3  C   UNL     1       3.493   2.033  -0.077  0.00  0.00    +0.236 C 
ATOM      4  O   UNL     1       3.695   1.734   1.081  0.00  0.00    -0.274 OA
ATOM      5  N   UNL     1       4.529   2.162  -0.930  0.00  0.00    -0.284 N 
ATOM      6  H   UNL     1       4.354   2.513  -1.958  0.00  0.00    +0.155 HD
BRANCH   5   7
ATOM      7  C   UNL     1       5.826   1.849  -0.508  0.00  0.00    +0.040 A 
ATOM      8  C   UNL     1       6.907   2.568  -0.998  0.00  0.00    +0.069 A 
ATOM      9  C   UNL     1       8.192   2.262  -0.576  0.00  0.00    +0.125 A 
ATOM     10  C   UNL     1       8.397   1.230   0.328  0.00  0.00    +0.091 A 
ATOM     11  C   UNL     1       7.317   0.508   0.814  0.00  0.00    +0.125 A 
ATOM     12  C   UNL     1       6.032   0.817   0.397  0.00  0.00    +0.069 A 
BRANCH  11  13
ATOM     13  O   UNL     1       7.519  -0.502   1.700  0.00  0.00    -0.495 OA
ATOM     14  C   UNL     1       8.870  -0.766   2.087  0.00  0.00    +0.277 C 
ENDBRANCH  11  13
BRANCH   9  15
ATOM     15  O   UNL     1       9.250   2.970  -1.051  0.00  0.00    -0.495 OA
ATOM     16  C   UNL     1      10.545   2.596  -0.577  0.00  0.00    +0.277 C 
ENDBRANCH   9  15
ENDBRANCH   5   7
ENDBRANCH   1   3
BRANCH   1  17
ATOM     17  N   UNL     1       1.148   2.062   0.547  0.00  0.00    -0.178 NA
ATOM     18  H   UNL     1       1.475   2.243   1.582  0.00  0.00    +0.149 HD
BRANCH  17  19
ATOM     19  S   UNL     1      -0.314   1.333   0.276  0.00  0.00    +0.060 S 
ATOM     20  O   UNL     1      -0.899   1.997  -0.835  0.00  0.00    -0.153 OA
ATOM     21  O   UNL     1      -0.962   1.241   1.537  0.00  0.00    -0.153 OA
BRANCH  19  27
ATOM     22  C   UNL     1       0.183  -2.296  -3.453  0.00  0.00    +0.044 C 
ATOM     23  C   UNL     1       0.231  -1.941  -1.990  0.00  0.00    -0.045 A 
ATOM     24  C   UNL     1       0.533  -2.911  -1.053  0.00  0.00    +0.007 A 
ATOM     25  C   UNL     1       0.577  -2.585   0.290  0.00  0.00    -0.045 A 
ATOM     26  C   UNL     1       0.319  -1.290   0.696  0.00  0.00    -0.021 A 
ATOM     27  C   UNL     1       0.016  -0.319  -0.241  0.00  0.00    +0.112 A 
ATOM     28  C   UNL     1      -0.033  -0.646  -1.583  0.00  0.00    -0.021 A 
ATOM     29  C   UNL     1      -0.369   0.410  -2.604  0.00  0.00    +0.046 C 
ATOM     30  C   UNL     1       0.367  -0.934   2.160  0.00  0.00    +0.046 C 
ATOM     31  C   UNL     1       0.907  -3.643   1.312  0.00  0.00    +0.044 C 
ENDBRANCH  19  27
ENDBRANCH  17  19
ENDBRANCH   1  17
TORSDOF 7
