REMARK  Name = ZINC09781106
REMARK  6 active torsions:
REMARK  status: ('A' for Active; 'I' for Inactive)
REMARK    1  A    between atoms: C_1  and  C_2
REMARK    2  A    between atoms: C_2  and  C_32
REMARK    3  A    between atoms: C_6  and  C_23
REMARK    4  A    between atoms: C_12  and  S_14
REMARK    5  A    between atoms: S_14  and  C_15
REMARK    6  A    between atoms: C_15  and  C_16
REMARK                            x       y       z     vdW  Elec       q    Type
REMARK                         _______ _______ _______ _____ _____    ______ ____
ROOT
ATOM      1  C   UNL     1      -0.019   1.526   0.010  0.00  0.00    +0.011 C 
ATOM      2  C   UNL     1       0.002  -0.004   0.002  0.00  0.00    -0.023 C 
ATOM      3  C   UNL     1       0.729  -0.499  -1.250  0.00  0.00    +0.060 C 
ATOM      4  C   UNL     1       2.158  -0.012  -1.230  0.00  0.00    +0.028 C 
ATOM      5  C   UNL     1       2.799   0.191  -0.022  0.00  0.00    +0.041 C 
ATOM      6  C   UNL     1       4.234   0.679  -0.058  0.00  0.00    +0.164 C 
ATOM      7  N   UNL     1       4.808   0.891  -1.392  0.00  0.00    -0.208 N 
ATOM      8  C   UNL     1       4.031   0.642  -2.497  0.00  0.00    +0.215 C 
ATOM      9  N   UNL     1       2.780   0.216  -2.377  0.00  0.00    -0.330 N 
ATOM     10  N   UNL     1       4.774   0.909  -3.578  0.00  0.00    -0.192 NA
ATOM     11  C   UNL     1       5.980   1.313  -3.219  0.00  0.00    +0.174 C 
ATOM     12  N   UNL     1       6.055   1.321  -1.853  0.00  0.00    -0.239 N 
ATOM     13  C   UNL     1       2.171  -0.035   1.192  0.00  0.00    +0.164 C 
ATOM     14  O   UNL     1       2.779   0.155   2.228  0.00  0.00    -0.292 OA
ATOM     15  C   UNL     1       0.743  -0.513   1.242  0.00  0.00    +0.086 C 
ATOM     16  C   UNL     1      -1.433  -0.536   0.008  0.00  0.00    +0.011 C 
ATOM     17  H   UNL     1       2.281   0.058  -3.194  0.00  0.00    +0.168 HD
ATOM     18  H   UNL     1       6.821   1.573  -1.313  0.00  0.00    +0.172 HD
ENDROOT
BRANCH   6  19
ATOM     19  C   UNL     1       4.307   1.983   0.694  0.00  0.00    -0.003 A 
ATOM     20  C   UNL     1       4.773   2.015   2.000  0.00  0.00    +0.009 A 
ATOM     21  C   UNL     1       4.822   3.238   2.652  0.00  0.00    +0.020 A 
ATOM     22  C   UNL     1       4.407   4.375   1.985  0.00  0.00    +0.111 A 
ATOM     23  N   UNL     1       3.969   4.306   0.743  0.00  0.00    -0.263 NA
ATOM     24  C   UNL     1       3.914   3.162   0.090  0.00  0.00    +0.116 A 
ENDBRANCH   6  19
BRANCH  11  25
ATOM     25  S   UNL     1       7.279   1.769  -4.319  0.00  0.00    -0.084 S 
BRANCH  25  26
ATOM     26  C   UNL     1       6.556   1.545  -5.968  0.00  0.00    +0.115 C 
BRANCH  26  27
ATOM     27  C   UNL     1       7.576   1.905  -7.017  0.00  0.00    -0.002 A 
ATOM     28  C   UNL     1       7.664   3.205  -7.479  0.00  0.00    +0.007 A 
ATOM     29  C   UNL     1       8.600   3.535  -8.441  0.00  0.00    +0.000 A 
ATOM     30  C   UNL     1       9.449   2.566  -8.942  0.00  0.00    +0.003 A 
ATOM     31  C   UNL     1       9.364   1.266  -8.482  0.00  0.00    +0.038 A 
ATOM     32  C   UNL     1       8.430   0.935  -7.514  0.00  0.00    +0.127 A 
ATOM     33  F   UNL     1       8.349  -0.334  -7.059  0.00  0.00    -0.205 F 
ENDBRANCH  26  27
ENDBRANCH  25  26
ENDBRANCH  11  25
TORSDOF 4
