REMARK  Name = ZINC58611239
REMARK  3 active torsions:
REMARK  status: ('A' for Active; 'I' for Inactive)
REMARK    1  A    between atoms: C_4  and  C_11
REMARK    2  A    between atoms: C_11  and  S_12
REMARK    3  A    between atoms: S_12  and  C_13
REMARK                            x       y       z     vdW  Elec       q    Type
REMARK                         _______ _______ _______ _____ _____    ______ ____
ROOT
ATOM      1  S   UNL     1       4.266  -1.004   1.659  0.00  0.00    -0.083 S 
ENDROOT
BRANCH   1   2
ATOM      2  C   UNL     1       5.797  -1.856   1.469  0.00  0.00    +0.168 A 
ATOM      3  N   UNL     1       6.582  -2.299   2.496  0.00  0.00    -0.333 N 
ATOM      4  H   UNL     1       6.399  -2.203   3.444  0.00  0.00    +0.168 HD
ATOM      5  C   UNL     1       7.689  -2.913   1.931  0.00  0.00    +0.070 A 
ATOM      6  C   UNL     1       8.810  -3.541   2.454  0.00  0.00    +0.069 A 
ATOM      7  C   UNL     1       9.763  -4.066   1.603  0.00  0.00    +0.160 A 
ATOM      8  C   UNL     1       9.605  -3.970   0.225  0.00  0.00    +0.161 A 
ATOM      9  C   UNL     1       8.496  -3.349  -0.309  0.00  0.00    +0.071 A 
ATOM     10  C   UNL     1       7.525  -2.812   0.540  0.00  0.00    +0.093 A 
ATOM     11  N   UNL     1       6.351  -2.163   0.322  0.00  0.00    -0.222 NA
ATOM     12  F   UNL     1      10.544  -4.488  -0.597  0.00  0.00    -0.202 F 
ATOM     13  F   UNL     1      10.855  -4.678   2.113  0.00  0.00    -0.202 F 
ENDBRANCH   1   2
BRANCH   1  14
ATOM     14  C   UNL     1       3.720  -0.699  -0.043  0.00  0.00    +0.116 C 
BRANCH  14  18
ATOM     15  C   UNL     1      -0.017   1.378   0.010  0.00  0.00    +0.047 A 
ATOM     16  C   UNL     1       1.172   2.088   0.002  0.00  0.00    +0.124 A 
ATOM     17  C   UNL     1       2.381   1.415  -0.014  0.00  0.00    +0.046 A 
ATOM     18  C   UNL     1       2.403   0.034  -0.024  0.00  0.00    +0.008 A 
ATOM     19  C   UNL     1       1.212  -0.679  -0.017  0.00  0.00    +0.133 A 
ATOM     20  C   UNL     1       0.002  -0.004   0.002  0.00  0.00    +0.023 A 
ATOM     21  C   UNL     1      -1.298  -0.767   0.018  0.00  0.00    +0.202 C 
ATOM     22  O   UNL     1      -1.055  -2.125  -0.364  0.00  0.00    -0.339 OA
ATOM     23  C   UNL     1       0.042  -2.718   0.342  0.00  0.00    +0.394 C 
ATOM     24  O   UNL     1       1.245  -2.039  -0.030  0.00  0.00    -0.466 OA
ATOM     25  F   UNL     1       1.151   3.439   0.010  0.00  0.00    -0.205 F 
ENDBRANCH  14  18
ENDBRANCH   1  14
TORSDOF 3
