REMARK  Name = ZINC14505245
REMARK  7 active torsions:
REMARK  status: ('A' for Active; 'I' for Inactive)
REMARK    1  A    between atoms: C_1  and  C_2
REMARK    2  A    between atoms: C_3  and  C_34
REMARK    3  A    between atoms: C_11  and  C_13
REMARK    4  A    between atoms: C_13  and  S_14
REMARK    5  A    between atoms: S_14  and  C_15
REMARK    6  A    between atoms: C_15  and  C_17
REMARK    7  A    between atoms: C_15  and  C_18
REMARK                            x       y       z     vdW  Elec       q    Type
REMARK                         _______ _______ _______ _____ _____    ______ ____
ROOT
ATOM      1  C   UNL     1      -1.994  -3.183   0.003  0.00  0.00    +0.130 C 
ATOM      2  C   UNL     1      -2.533  -3.324   1.427  0.00  0.00    +0.029 C 
ENDROOT
BRANCH   1   3
ATOM      3  C   UNL     1      -0.835  -2.219  -0.002  0.00  0.00    +0.231 C 
ATOM      4  O   UNL     1       0.303  -2.638  -0.015  0.00  0.00    -0.274 OA
ATOM      5  N   UNL     1      -1.063  -0.891   0.007  0.00  0.00    -0.264 N 
ATOM      6  C   UNL     1       0.002  -0.004   0.002  0.00  0.00    +0.165 A 
ATOM      7  N   UNL     1      -0.016   1.310   0.009  0.00  0.00    -0.224 NA
ATOM      8  C   UNL     1       1.103   2.049   0.003  0.00  0.00    +0.088 A 
ATOM      9  C   UNL     1       1.231   3.520   0.009  0.00  0.00    +0.009 A 
ATOM     10  C   UNL     1       0.090   4.329   0.023  0.00  0.00    +0.010 A 
ATOM     11  C   UNL     1       0.227   5.686   0.029  0.00  0.00    +0.001 A 
ATOM     12  C   UNL     1       1.489   6.274   0.020  0.00  0.00    +0.001 A 
ATOM     13  C   UNL     1       2.618   5.513   0.006  0.00  0.00    +0.008 A 
ATOM     14  C   UNL     1       2.513   4.111  -0.001  0.00  0.00    -0.016 A 
ATOM     15  C   UNL     1       3.669   3.305  -0.016  0.00  0.00    +0.010 A 
ATOM     16  C   UNL     1       3.553   1.950  -0.021  0.00  0.00    +0.018 A 
ATOM     17  C   UNL     1       2.315   1.334  -0.013  0.00  0.00    +0.041 A 
ATOM     18  S   UNL     1       1.755  -0.353  -0.017  0.00  0.00    -0.052 S 
ATOM     19  H   UNL     1      -1.974  -0.555   0.017  0.00  0.00    +0.157 HD
ENDBRANCH   1   3
BRANCH   1  20
ATOM     20  S   UNL     1      -1.436  -4.802  -0.596  0.00  0.00    -0.141 S 
BRANCH  20  21
ATOM     21  C   UNL     1      -2.956  -5.788  -0.673  0.00  0.00    +0.144 C 
BRANCH  21  32
ATOM     22  C   UNL     1      -2.443 -12.138  -2.762  0.00  0.00    +0.045 C 
ATOM     23  C   UNL     1      -1.516 -10.972  -2.537  0.00  0.00    -0.026 A 
ATOM     24  C   UNL     1      -0.201 -11.094  -2.779  0.00  0.00    -0.008 A 
ATOM     25  S   UNL     1       0.445  -9.483  -2.368  0.00  0.00    -0.073 S 
ATOM     26  C   UNL     1      -1.069  -8.695  -1.885  0.00  0.00    +0.116 A 
ATOM     27  C   UNL     1      -2.033  -9.705  -2.056  0.00  0.00    +0.075 A 
ATOM     28  C   UNL     1      -3.380  -9.337  -1.732  0.00  0.00    +0.260 A 
ATOM     29  O   UNL     1      -4.287 -10.143  -1.847  0.00  0.00    -0.267 OA
ATOM     30  N   UNL     1      -3.627  -8.089  -1.292  0.00  0.00    -0.310 N 
ATOM     31  H   UNL     1      -4.535  -7.835  -1.067  0.00  0.00    +0.170 HD
ATOM     32  C   UNL     1      -2.630  -7.176  -1.163  0.00  0.00    +0.121 A 
ATOM     33  N   UNL     1      -1.393  -7.480  -1.450  0.00  0.00    -0.226 NA
ATOM     34  C   UNL     1       0.550 -12.302  -3.276  0.00  0.00    +0.052 C 
ENDBRANCH  21  32
ENDBRANCH  20  21
ENDBRANCH   1  20
TORSDOF 4
