REMARK  Name = ZINC24052307
REMARK  7 active torsions:
REMARK  status: ('A' for Active; 'I' for Inactive)
REMARK    1  A    between atoms: C_3  and  C_13
REMARK    2  A    between atoms: C_5  and  N_7
REMARK    3  A    between atoms: C_8  and  C_10
REMARK    4  A    between atoms: C_13  and  N_14
REMARK    5  A    between atoms: N_14  and  S_15
REMARK    6  A    between atoms: S_15  and  C_18
REMARK    7  A    between atoms: C_21  and  N_24
REMARK                            x       y       z     vdW  Elec       q    Type
REMARK                         _______ _______ _______ _____ _____    ______ ____
ROOT
ATOM      1  S   UNL     1      -4.690   0.271   1.303  0.00  0.00    +0.059 S 
ATOM      2  O   UNL     1      -5.490   0.097   2.464  0.00  0.00    -0.153 OA
ATOM      3  O   UNL     1      -4.939   1.297   0.352  0.00  0.00    -0.153 OA
ENDROOT
BRANCH   1   4
ATOM      4  C   UNL     1      -4.742  -1.255   0.422  0.00  0.00    +0.105 A 
ATOM      5  C   UNL     1      -4.503  -1.274  -0.940  0.00  0.00    +0.030 A 
ATOM      6  C   UNL     1      -4.539  -2.468  -1.632  0.00  0.00    +0.030 A 
ATOM      7  C   UNL     1      -4.824  -3.650  -0.961  0.00  0.00    +0.069 A 
ATOM      8  C   UNL     1      -5.069  -3.627   0.406  0.00  0.00    +0.030 A 
ATOM      9  C   UNL     1      -5.027  -2.430   1.093  0.00  0.00    +0.030 A 
BRANCH   7  10
ATOM     10  N   UNL     1      -4.866  -4.861  -1.660  0.00  0.00    -0.196 N 
ATOM     11  C   UNL     1      -5.565  -4.950  -2.809  0.00  0.00    +0.292 A 
ATOM     12  O   UNL     1      -6.164  -3.978  -3.243  0.00  0.00    -0.264 OA
ATOM     13  C   UNL     1      -5.600  -6.174  -3.506  0.00  0.00    +0.127 A 
ATOM     14  C   UNL     1      -4.923  -7.246  -3.002  0.00  0.00    +0.084 A 
ATOM     15  C   UNL     1      -4.205  -7.115  -1.803  0.00  0.00    +0.155 A 
ATOM     16  N   UNL     1      -4.176  -5.974  -1.168  0.00  0.00    -0.170 NA
ATOM     17 CL   UNL     1      -4.950  -8.766  -3.840  0.00  0.00    -0.080 Cl
ATOM     18 CL   UNL     1      -6.493  -6.316  -4.988  0.00  0.00    -0.076 Cl
ENDBRANCH   7  10
ENDBRANCH   1   4
BRANCH   1  19
ATOM     19  N   UNL     1      -3.133   0.480   1.827  0.00  0.00    -0.186 NA
ATOM     20  H   UNL     1      -2.897   0.318   2.889  0.00  0.00    +0.148 HD
BRANCH  19  21
ATOM     21  C   UNL     1      -2.051   0.662   0.857  0.00  0.00    +0.141 C 
BRANCH  21  24
ATOM     22  C   UNL     1       1.228   0.791   2.726  0.00  0.00    +0.002 A 
ATOM     23  C   UNL     1       0.102   0.310   2.084  0.00  0.00    +0.005 A 
ATOM     24  C   UNL     1      -0.828   1.190   1.561  0.00  0.00    -0.030 A 
ATOM     25  C   UNL     1      -0.639   2.552   1.687  0.00  0.00    +0.028 A 
ATOM     26  C   UNL     1       0.491   3.038   2.331  0.00  0.00    +0.034 A 
ATOM     27  C   UNL     1       1.426   2.152   2.851  0.00  0.00    +0.023 A 
BRANCH  26  28
ATOM     28  N   UNL     1       0.689   4.418   2.455  0.00  0.00    -0.285 N 
ATOM     29  C   UNL     1       1.938   4.924   2.439  0.00  0.00    +0.220 C 
ATOM     30  O   UNL     1       2.885   4.195   2.233  0.00  0.00    -0.275 OA
ATOM     31  H   UNL     1      -0.175   5.090   2.566  0.00  0.00    +0.155 HD
BRANCH  29  32
ATOM     32  C   UNL     1       2.158   6.396   2.677  0.00  0.00    +0.075 C 
ATOM     33  C   UNL     1       2.645   7.238   1.496  0.00  0.00    +0.013 C 
ATOM     34  C   UNL     1       3.599   6.909   2.646  0.00  0.00    +0.013 C 
ENDBRANCH  29  32
ENDBRANCH  26  28
ENDBRANCH  21  24
ENDBRANCH  19  21
ENDBRANCH   1  19
TORSDOF 7
