REMARK  Name = ZINC20697897
REMARK  9 active torsions:
REMARK  status: ('A' for Active; 'I' for Inactive)
REMARK    1  A    between atoms: C_1  and  C_2
REMARK    2  A    between atoms: C_5  and  N_9
REMARK    3  A    between atoms: C_6  and  C_8
REMARK    4  A    between atoms: N_9  and  S_10
REMARK    5  A    between atoms: S_10  and  C_13
REMARK    6  A    between atoms: C_26  and  C_29
REMARK    7  A    between atoms: C_32  and  C_35
REMARK    8  A    between atoms: C_35  and  C_36
REMARK    9  A    between atoms: C_35  and  C_37
REMARK                            x       y       z     vdW  Elec       q    Type
REMARK                         _______ _______ _______ _____ _____    ______ ____
ROOT
ATOM      1  C   UNL     1      -1.965   8.345   4.270  0.00  0.00    +0.109 A 
ATOM      2  C   UNL     1      -0.951   8.328   5.211  0.00  0.00    +0.030 A 
ATOM      3  C   UNL     1      -0.482   7.126   5.702  0.00  0.00    +0.025 A 
ATOM      4  C   UNL     1      -1.023   5.926   5.255  0.00  0.00    +0.031 A 
ATOM      5  C   UNL     1      -2.040   5.952   4.293  0.00  0.00    -0.018 A 
ATOM      6  C   UNL     1      -2.506   7.157   3.815  0.00  0.00    +0.034 A 
ATOM      7  C   UNL     1      -2.567   4.653   3.824  0.00  0.00    +0.049 C 
ATOM      8  C   UNL     1      -3.945   4.509   3.289  0.00  0.00    -0.023 C 
ATOM      9  C   UNL     1      -4.383   3.288   3.570  0.00  0.00    -0.030 C 
ATOM     10  C   UNL     1      -3.321   2.519   4.358  0.00  0.00    +0.033 C 
ATOM     11  C   UNL     1      -2.545   3.662   5.026  0.00  0.00    +0.029 C 
ATOM     12  C   UNL     1      -1.075   3.419   5.322  0.00  0.00    +0.105 C 
ATOM     13  N   UNL     1      -0.540   4.721   5.778  0.00  0.00    -0.336 N 
ATOM     14  H   UNL     1       0.251   4.753   6.541  0.00  0.00    +0.147 HD
ENDROOT
BRANCH  12  15
ATOM     15  C   UNL     1      -0.360   2.970   4.074  0.00  0.00    -0.027 A 
ATOM     16  C   UNL     1      -0.291   1.625   3.762  0.00  0.00    +0.006 A 
ATOM     17  C   UNL     1       0.364   1.214   2.617  0.00  0.00    +0.004 A 
ATOM     18  C   UNL     1       0.951   2.147   1.783  0.00  0.00    -0.045 A 
ATOM     19  C   UNL     1       0.887   3.491   2.098  0.00  0.00    +0.004 A 
ATOM     20  C   UNL     1       0.228   3.904   3.241  0.00  0.00    +0.006 A 
BRANCH  18  21
ATOM     21  C   UNL     1       1.666   1.698   0.535  0.00  0.00    +0.013 C 
ATOM     22  C   UNL     1       3.130   2.138   0.599  0.00  0.00    +0.012 C 
ATOM     23  C   UNL     1       0.998   2.327  -0.690  0.00  0.00    +0.012 C 
ENDBRANCH  18  21
ENDBRANCH  12  15
BRANCH   1  24
ATOM     24  S   UNL     1      -2.567   9.882   3.653  0.00  0.00    +0.072 S 
ATOM     25  O   UNL     1      -1.523  10.829   3.832  0.00  0.00    -0.150 OA
ATOM     26  O   UNL     1      -3.141   9.611   2.381  0.00  0.00    -0.150 OA
BRANCH  24  27
ATOM     27  N   UNL     1      -3.809  10.353   4.641  0.00  0.00    -0.216 N 
ATOM     28  H   UNL     1      -4.820  10.489   4.228  0.00  0.00    +0.174 HD
BRANCH  27  33
ATOM     29  C   UNL     1      -2.853  11.267  10.155  0.00  0.00    +0.044 C 
ATOM     30  C   UNL     1      -3.107  11.024   8.690  0.00  0.00    -0.050 A 
ATOM     31  C   UNL     1      -2.116  11.296   7.764  0.00  0.00    +0.005 A 
ATOM     32  C   UNL     1      -2.345  11.070   6.421  0.00  0.00    +0.025 A 
ATOM     33  C   UNL     1      -3.574  10.579   5.999  0.00  0.00    +0.051 A 
ATOM     34  C   UNL     1      -4.566  10.307   6.932  0.00  0.00    -0.028 A 
ATOM     35  C   UNL     1      -4.330  10.531   8.275  0.00  0.00    +0.008 A 
ATOM     36  C   UNL     1      -5.899   9.768   6.481  0.00  0.00    +0.046 C 
ENDBRANCH  27  33
ENDBRANCH  24  27
ENDBRANCH   1  24
TORSDOF 5
