REMARK  Name = ZINC35574609
REMARK  6 active torsions:
REMARK  status: ('A' for Active; 'I' for Inactive)
REMARK    1  A    between atoms: C_5  and  N_7
REMARK    2  A    between atoms: N_10  and  C_13
REMARK    3  A    between atoms: C_13  and  C_14
REMARK    4  A    between atoms: N_25  and  C_28
REMARK    5  A    between atoms: C_28  and  C_29
REMARK    6  A    between atoms: C_32  and  N_35
REMARK                            x       y       z     vdW  Elec       q    Type
REMARK                         _______ _______ _______ _____ _____    ______ ____
ROOT
ATOM      1  C   UNL     1       3.126  -6.832  -1.135  0.00  0.00    +0.034 A 
ATOM      2  C   UNL     1       3.942  -6.742  -2.225  0.00  0.00    +0.091 A 
ATOM      3  C   UNL     1       3.588  -7.432  -3.398  0.00  0.00    +0.253 A 
ATOM      4  O   UNL     1       4.294  -7.374  -4.391  0.00  0.00    -0.268 OA
ATOM      5  N   UNL     1       2.450  -8.160  -3.405  0.00  0.00    -0.295 N 
ATOM      6  H   UNL     1       2.187  -8.644  -4.203  0.00  0.00    +0.172 HD
ATOM      7  C   UNL     1       1.676  -8.213  -2.288  0.00  0.00    +0.198 A 
ATOM      8  N   UNL     1       2.017  -7.567  -1.190  0.00  0.00    -0.223 NA
ATOM      9  N   UNL     1       0.524  -8.953  -2.302  0.00  0.00    -0.305 N 
ATOM     10  C   UNL     1      -0.400  -8.936  -1.157  0.00  0.00    +0.089 C 
ATOM     11  C   UNL     1      -0.716 -10.384  -0.767  0.00  0.00    -0.059 C 
ATOM     12  N   UNL     1      -1.218 -11.108  -1.941  0.00  0.00    +0.384 N 
ATOM     13  C   UNL     1      -0.168 -11.194  -2.963  0.00  0.00    -0.059 C 
ATOM     14  C   UNL     1       0.173  -9.782  -3.465  0.00  0.00    +0.089 C 
ATOM     15  H   UNL     1      -2.015 -10.618  -2.321  0.00  0.00    -0.081 HD
ENDROOT
BRANCH   1  16
ATOM     16  C   UNL     1       3.483  -6.103   0.134  0.00  0.00    -0.022 C 
BRANCH  16  20
ATOM     17  N   UNL     1       1.499  -2.506   0.931  0.00  0.00    -0.331 N 
ATOM     18  C   UNL     1       1.637  -3.454   2.047  0.00  0.00    +0.086 C 
ATOM     19  C   UNL     1       2.755  -4.446   1.706  0.00  0.00    -0.059 C 
ATOM     20  N   UNL     1       2.471  -5.074   0.409  0.00  0.00    +0.385 N 
ATOM     21  C   UNL     1       2.504  -4.062  -0.654  0.00  0.00    -0.059 C 
ATOM     22  C   UNL     1       1.369  -3.051  -0.430  0.00  0.00    +0.086 C 
ATOM     23  H   UNL     1       1.558  -5.502   0.437  0.00  0.00    -0.081 HD
BRANCH  17  28
ATOM     24  C   UNL     1       0.275   0.892   1.618  0.00  0.00    +0.002 A 
ATOM     25  C   UNL     1       1.460   1.606   1.603  0.00  0.00    +0.003 A 
ATOM     26  C   UNL     1       2.658   0.959   1.365  0.00  0.00    +0.040 A 
ATOM     27  C   UNL     1       2.676  -0.406   1.142  0.00  0.00    +0.144 A 
ATOM     28  C   UNL     1       1.486  -1.126   1.157  0.00  0.00    +0.065 A 
ATOM     29  C   UNL     1       0.285  -0.472   1.396  0.00  0.00    +0.026 A 
ATOM     30  F   UNL     1       3.847  -1.038   0.909  0.00  0.00    -0.204 F 
ENDBRANCH  17  28
ENDBRANCH  16  20
ENDBRANCH   1  16
BRANCH  12  31
ATOM     31  C   UNL     1      -1.624 -12.462  -1.543  0.00  0.00    -0.043 C 
BRANCH  31  32
ATOM     32  C   UNL     1      -2.254 -13.164  -2.718  0.00  0.00    -0.064 A 
ATOM     33  C   UNL     1      -3.615 -13.064  -2.935  0.00  0.00    +0.004 A 
ATOM     34  C   UNL     1      -4.192 -13.708  -4.014  0.00  0.00    +0.033 A 
ATOM     35  C   UNL     1      -3.408 -14.452  -4.875  0.00  0.00    +0.126 A 
ATOM     36  C   UNL     1      -2.046 -14.552  -4.659  0.00  0.00    +0.033 A 
ATOM     37  C   UNL     1      -1.468 -13.904  -3.583  0.00  0.00    +0.004 A 
BRANCH  35  38
ATOM     38  N   UNL     1      -4.026 -15.143  -6.029  0.00  0.00    +0.056 N 
ATOM     39  O   UNL     1      -5.217 -15.056  -6.218  0.00  0.00    -0.126 OA
ATOM     40  O   UNL     1      -3.340 -15.793  -6.783  0.00  0.00    -0.126 OA
ENDBRANCH  35  38
ENDBRANCH  31  32
ENDBRANCH  12  31
TORSDOF 6
