REMARK  Name = ZINC08696046
REMARK  15 active torsions:
REMARK  status: ('A' for Active; 'I' for Inactive)
REMARK    1  A    between atoms: C_1  and  C_2
REMARK    2  A    between atoms: C_4  and  C_47
REMARK    3  A    between atoms: C_5  and  N_9
REMARK    4  A    between atoms: C_6  and  C_8
REMARK    5  A    between atoms: C_10  and  C_12
REMARK    6  A    between atoms: C_12  and  N_18
REMARK    7  A    between atoms: C_17  and  N_92
REMARK    8  A    between atoms: N_18  and  C_19
REMARK    9  A    between atoms: C_19  and  C_20
REMARK   10  A    between atoms: C_26  and  C_28
REMARK   11  A    between atoms: C_28  and  C_29
REMARK   12  A    between atoms: C_31  and  C_36
REMARK   13  A    between atoms: C_33  and  C_34
REMARK   14  A    between atoms: C_33  and  C_35
REMARK   15  A    between atoms: C_37  and  C_46
REMARK                            x       y       z     vdW  Elec       q    Type
REMARK                         _______ _______ _______ _____ _____    ______ ____
ROOT
ATOM      1  N   UNL     1      -1.924  -2.422   2.034  0.00  0.00    -0.283 N 
ATOM      2  C   UNL     1      -1.986  -2.386   3.380  0.00  0.00    +0.217 C 
ATOM      3  O   UNL     1      -0.988  -2.146   4.027  0.00  0.00    -0.276 OA
ENDROOT
BRANCH   1   4
ATOM      4  C   UNL     1      -0.641  -2.234   1.354  0.00  0.00    +0.111 C 
ATOM      5  C   UNL     1       0.386  -1.675   2.344  0.00  0.00    +0.017 C 
ATOM      6  C   UNL     1      -0.083  -0.304   2.837  0.00  0.00    -0.077 C 
ATOM      7  C   UNL     1      -1.247   0.112   0.753  0.00  0.00    -0.077 C 
ATOM      8  C   UNL     1      -0.813  -1.246   0.197  0.00  0.00    +0.017 C 
ATOM      9  C   UNL     1      -0.548   1.968   2.141  0.00  0.00    -0.096 C 
ATOM     10  N   UNL     1      -0.206   0.607   1.679  0.00  0.00    +0.378 N 
ATOM     11  H   UNL     1       0.692   0.638   1.183  0.00  0.00    -0.082 HD
BRANCH   4  13
ATOM     12  N   UNL     1      -0.394  -4.690   1.508  0.00  0.00    -0.283 N 
ATOM     13  C   UNL     1      -0.155  -3.557   0.819  0.00  0.00    +0.241 C 
ATOM     14  O   UNL     1       0.450  -3.601  -0.231  0.00  0.00    -0.273 OA
ATOM     15  H   UNL     1      -0.918  -4.662   2.323  0.00  0.00    +0.155 HD
BRANCH  12  20
ATOM     16  C   UNL     1       1.670  -9.632  -0.365  0.00  0.00    +0.044 C 
ATOM     17  C   UNL     1       1.122  -8.319   0.133  0.00  0.00    -0.050 A 
ATOM     18  C   UNL     1       0.648  -7.384  -0.769  0.00  0.00    +0.008 A 
ATOM     19  C   UNL     1       0.145  -6.180  -0.316  0.00  0.00    -0.029 A 
ATOM     20  C   UNL     1       0.115  -5.909   1.046  0.00  0.00    +0.039 A 
ATOM     21  C   UNL     1       0.596  -6.849   1.948  0.00  0.00    -0.029 A 
ATOM     22  C   UNL     1       1.094  -8.053   1.489  0.00  0.00    +0.008 A 
ATOM     23  C   UNL     1       0.571  -6.557   3.426  0.00  0.00    +0.045 C 
ATOM     24  C   UNL     1      -0.371  -5.160  -1.299  0.00  0.00    +0.045 C 
ENDBRANCH  12  20
ENDBRANCH   4  13
ENDBRANCH   1   4
BRANCH   1  25
ATOM     25  C   UNL     1      -3.142  -2.650   1.252  0.00  0.00    +0.145 C 
BRANCH  25  26
ATOM     26  C   UNL     1      -3.630  -4.058   1.481  0.00  0.00    -0.012 A 
ATOM     27  C   UNL     1      -4.618  -4.314   2.419  0.00  0.00    +0.008 A 
ATOM     28  C   UNL     1      -5.036  -5.624   2.596  0.00  0.00    +0.020 A 
ATOM     29  C   UNL     1      -4.458  -6.623   1.836  0.00  0.00    +0.111 A 
ATOM     30  N   UNL     1      -3.521  -6.343   0.953  0.00  0.00    -0.263 NA
ATOM     31  C   UNL     1      -3.103  -5.108   0.754  0.00  0.00    +0.115 A 
ENDBRANCH  25  26
ENDBRANCH   1  25
BRANCH   2  32
ATOM     32  C   UNL     1      -3.294  -2.644   4.082  0.00  0.00    +0.100 C 
BRANCH  32  33
ATOM     33  C   UNL     1      -3.240  -2.055   5.493  0.00  0.00    +0.012 C 
ATOM     34  C   UNL     1      -4.363  -2.435   6.461  0.00  0.00    +0.031 C 
ATOM     35  C   UNL     1      -4.307  -1.025   5.870  0.00  0.00    -0.024 C 
ATOM     36  C   UNL     1      -3.891   0.116   6.801  0.00  0.00    +0.012 C 
ATOM     37  C   UNL     1      -5.346  -0.663   4.806  0.00  0.00    +0.012 C 
BRANCH  34  38
ATOM     38  C   UNL     1      -5.437  -3.361   5.951  0.00  0.00    -0.016 A 
ATOM     39  C   UNL     1      -5.266  -4.619   5.515  0.00  0.00    +0.017 A 
ATOM     40  N   UNL     1      -6.468  -5.149   5.134  0.00  0.00    -0.358 N 
ATOM     41  H   UNL     1      -6.598  -6.045   4.787  0.00  0.00    +0.166 HD
ATOM     42  C   UNL     1      -7.467  -4.218   5.311  0.00  0.00    +0.047 A 
ATOM     43  C   UNL     1      -6.865  -3.057   5.830  0.00  0.00    +0.003 A 
ATOM     44  C   UNL     1      -7.645  -1.934   6.112  0.00  0.00    +0.010 A 
ATOM     45  C   UNL     1      -8.992  -1.968   5.881  0.00  0.00    +0.001 A 
ATOM     46  C   UNL     1      -9.590  -3.111   5.369  0.00  0.00    +0.002 A 
ATOM     47  C   UNL     1      -8.839  -4.230   5.084  0.00  0.00    +0.026 A 
ATOM     48  C   UNL     1      -3.945  -5.342   5.458  0.00  0.00    +0.063 C 
ENDBRANCH  34  38
ENDBRANCH  32  33
ENDBRANCH   2  32
TORSDOF 8
