REMARK  Name = ZINC35855346
REMARK  5 active torsions:
REMARK  status: ('A' for Active; 'I' for Inactive)
REMARK    1  A    between atoms: C_1  and  C_2
REMARK    2  A    between atoms: C_2  and  C_3
REMARK    3  A    between atoms: N_25  and  C_28
REMARK    4  A    between atoms: C_31  and  C_35
REMARK    5  A    between atoms: C_32  and  C_34
REMARK                            x       y       z     vdW  Elec       q    Type
REMARK                         _______ _______ _______ _____ _____    ______ ____
ROOT
ATOM      1  C   UNL     1       0.642   0.243  -1.554  0.00  0.00    -0.026 A 
ATOM      2  C   UNL     1      -0.066  -0.248  -2.632  0.00  0.00    +0.005 A 
ATOM      3  C   UNL     1       0.584  -0.946  -3.633  0.00  0.00    +0.001 A 
ATOM      4  C   UNL     1       1.950  -1.153  -3.554  0.00  0.00    +0.004 A 
ATOM      5  C   UNL     1       2.659  -0.666  -2.480  0.00  0.00    -0.027 A 
ATOM      6  C   UNL     1       2.018   0.044  -1.469  0.00  0.00    +0.039 A 
ATOM      7  N   UNL     1       2.939   0.440  -0.497  0.00  0.00    -0.286 N 
ATOM      8  C   UNL     1       4.191   0.041  -0.791  0.00  0.00    +0.212 C 
ATOM      9  O   UNL     1       5.189   0.241  -0.131  0.00  0.00    -0.277 OA
ATOM     10  C   UNL     1       4.111  -0.714  -2.092  0.00  0.00    +0.053 C 
ATOM     11  C   UNL     1       4.998  -0.056  -3.154  0.00  0.00    +0.089 C 
ATOM     12  C   UNL     1       5.570  -1.240  -3.980  0.00  0.00    +0.074 C 
ATOM     13  C   UNL     1       4.959  -2.505  -3.348  0.00  0.00    -0.054 C 
ATOM     14  N   UNL     1       4.587  -2.100  -1.953  0.00  0.00    +0.395 N 
ATOM     15  C   UNL     1       5.860  -2.105  -1.194  0.00  0.00    -0.076 C 
ATOM     16  C   UNL     1       6.653  -3.308  -1.744  0.00  0.00    -0.020 C 
ATOM     17  C   UNL     1       6.057  -3.571  -3.183  0.00  0.00    -0.016 C 
ATOM     18  C   UNL     1       7.053  -1.184  -3.691  0.00  0.00    +0.228 C 
ATOM     19  O   UNL     1       7.883  -1.944  -4.139  0.00  0.00    -0.275 OA
ATOM     20  N   UNL     1       7.306  -0.164  -2.862  0.00  0.00    -0.210 N 
ATOM     21  C   UNL     1       6.218   0.551  -2.496  0.00  0.00    +0.229 C 
ATOM     22  O   UNL     1       6.211   1.516  -1.762  0.00  0.00    -0.275 OA
ATOM     23  H   UNL     1       2.705   0.945   0.297  0.00  0.00    +0.155 HD
ATOM     24  H   UNL     1       3.889  -2.708  -1.551  0.00  0.00    -0.079 HD
ENDROOT
BRANCH  20  25
ATOM     25  C   UNL     1       8.597   0.145  -2.412  0.00  0.00    +0.044 A 
ATOM     26  C   UNL     1       9.551   0.616  -3.304  0.00  0.00    +0.024 A 
ATOM     27  C   UNL     1      10.822   0.919  -2.858  0.00  0.00    +0.005 A 
ATOM     28  C   UNL     1      11.145   0.754  -1.524  0.00  0.00    -0.047 A 
ATOM     29  C   UNL     1      10.198   0.286  -0.632  0.00  0.00    -0.046 A 
ATOM     30  C   UNL     1       8.923  -0.014  -1.072  0.00  0.00    +0.027 A 
ATOM     31  C   UNL     1      10.554   0.108   0.821  0.00  0.00    +0.044 C 
ATOM     32  C   UNL     1      12.534   1.086  -1.040  0.00  0.00    +0.044 C 
ENDBRANCH  20  25
BRANCH   1  34
ATOM     33  C   UNL     1       0.013   2.504  -0.752  0.00  0.00    +0.009 C 
ATOM     34  C   UNL     1      -0.075   1.003  -0.468  0.00  0.00    +0.033 C 
ENDBRANCH   1  34
TORSDOF 2
