REMARK  Name = ZINC08635694
REMARK  7 active torsions:
REMARK  status: ('A' for Active; 'I' for Inactive)
REMARK    1  A    between atoms: C_4  and  N_7
REMARK    2  A    between atoms: N_7  and  C_8
REMARK    3  A    between atoms: C_8  and  N_10
REMARK    4  A    between atoms: N_10  and  C_11
REMARK    5  A    between atoms: C_11  and  C_12
REMARK    6  A    between atoms: C_20  and  C_22
REMARK    7  A    between atoms: C_22  and  N_66
REMARK                            x       y       z     vdW  Elec       q    Type
REMARK                         _______ _______ _______ _____ _____    ______ ____
ROOT
ATOM      1  C   UNL     1      -0.387   3.211  -2.031  0.00  0.00    -0.051 C 
ATOM      2  C   UNL     1      -0.545   4.165  -0.845  0.00  0.00    -0.010 C 
ATOM      3  C   UNL     1      -1.165   3.397   0.330  0.00  0.00    -0.015 C 
ATOM      4  C   UNL     1      -0.244   2.223   0.686  0.00  0.00    -0.015 C 
ATOM      5  C   UNL     1      -0.095   1.322  -0.543  0.00  0.00    -0.078 C 
ATOM      6  C   UNL     1      -2.309   1.921  -1.321  0.00  0.00    -0.076 C 
ATOM      7  C   UNL     1      -2.531   2.855  -0.107  0.00  0.00    -0.041 C 
ATOM      8  N   UNL     1      -0.876   1.861  -1.677  0.00  0.00    +0.383 N 
ATOM      9  H   UNL     1      -0.759   1.241  -2.487  0.00  0.00    -0.081 HD
ENDROOT
BRANCH   1  10
ATOM     10  C   UNL     1      -1.196   3.735  -3.220  0.00  0.00    +0.088 C 
BRANCH  10  11
ATOM     11  N   UNL     1      -1.144   2.761  -4.313  0.00  0.00    -0.328 N 
ATOM     12  H   UNL     1      -0.645   1.937  -4.205  0.00  0.00    +0.148 HD
BRANCH  11  13
ATOM     13  C   UNL     1      -1.789   3.012  -5.470  0.00  0.00    +0.134 C 
ATOM     14  S   UNL     1      -2.669   4.468  -5.661  0.00  0.00    -0.019 S 
BRANCH  13  15
ATOM     15  N   UNL     1      -1.741   2.116  -6.476  0.00  0.00    -0.297 N 
ATOM     16  H   UNL     1      -1.193   1.320  -6.391  0.00  0.00    +0.154 HD
BRANCH  15  20
ATOM     17  C   UNL     1      -3.943   2.767  -9.952  0.00  0.00    +0.000 A 
ATOM     18  C   UNL     1      -3.209   3.799  -9.396  0.00  0.00    +0.002 A 
ATOM     19  C   UNL     1      -2.478   3.587  -8.244  0.00  0.00    +0.023 A 
ATOM     20  C   UNL     1      -2.480   2.335  -7.643  0.00  0.00    +0.033 A 
ATOM     21  C   UNL     1      -3.214   1.299  -8.206  0.00  0.00    +0.023 A 
ATOM     22  C   UNL     1      -3.947   1.519  -9.356  0.00  0.00    +0.002 A 
ENDBRANCH  15  20
ENDBRANCH  13  15
ENDBRANCH  11  13
ENDBRANCH  10  11
ENDBRANCH   1  10
BRANCH   7  23
ATOM     23  C   UNL     1      -3.449   4.020  -0.484  0.00  0.00    -0.077 C 
BRANCH  23  35
ATOM     24  C   UNL     1      -5.546   4.542  -1.577  0.00  0.00    -0.060 C 
ATOM     25  C   UNL     1      -6.860   3.939  -2.080  0.00  0.00    +0.089 C 
ATOM     26  N   UNL     1      -7.596   3.361  -0.947  0.00  0.00    -0.303 N 
ATOM     27  C   UNL     1      -6.803   2.317  -0.284  0.00  0.00    +0.089 C 
ATOM     28  C   UNL     1      -5.489   2.920   0.218  0.00  0.00    -0.060 C 
ATOM     29  C   UNL     1      -8.824   2.869  -1.353  0.00  0.00    +0.218 A 
ATOM     30  N   UNL     1      -9.121   1.599  -1.119  0.00  0.00    -0.223 NA
ATOM     31  C   UNL     1     -10.288   1.098  -1.489  0.00  0.00    +0.116 A 
ATOM     32  C   UNL     1     -11.200   1.916  -2.138  0.00  0.00    +0.039 A 
ATOM     33  C   UNL     1     -10.854   3.238  -2.371  0.00  0.00    +0.116 A 
ATOM     34  N   UNL     1      -9.673   3.677  -1.971  0.00  0.00    -0.223 NA
ATOM     35  N   UNL     1      -4.748   3.477  -0.933  0.00  0.00    +0.382 N 
ATOM     36  H   UNL     1      -4.579   2.728  -1.615  0.00  0.00    -0.082 HD
ENDBRANCH  23  35
ENDBRANCH   7  23
TORSDOF 7
