REMARK  Name = ZINC23969387
REMARK  7 active torsions:
REMARK  status: ('A' for Active; 'I' for Inactive)
REMARK    1  A    between atoms: C_1  and  C_2
REMARK    2  A    between atoms: C_3  and  C_7
REMARK    3  A    between atoms: C_10  and  S_13
REMARK    4  A    between atoms: N_11  and  N_12
REMARK    5  A    between atoms: S_13  and  C_14
REMARK    6  A    between atoms: C_14  and  C_16
REMARK    7  A    between atoms: C_14  and  C_17
REMARK                            x       y       z     vdW  Elec       q    Type
REMARK                         _______ _______ _______ _____ _____    ______ ____
ROOT
ATOM      1  S   UNL     1      -1.321  -4.912  -0.730  0.00  0.00    -0.074 S 
ENDROOT
BRANCH   1   5
ATOM      2  C   UNL     1      -0.959  -8.791  -1.034  0.00  0.00    +0.185 A 
ATOM      3  N   UNL     1       0.191  -8.433  -0.514  0.00  0.00    -0.127 NA
ATOM      4  N   UNL     1       0.223  -7.159  -0.352  0.00  0.00    -0.121 NA
ATOM      5  C   UNL     1      -0.906  -6.625  -0.758  0.00  0.00    +0.209 A 
ATOM      6  N   UNL     1      -1.701  -7.645  -1.201  0.00  0.00    -0.224 N 
BRANCH   2   9
ATOM      7  C   UNL     1       0.735 -11.401  -0.650  0.00  0.00    +0.087 C 
ATOM      8  C   UNL     1      -0.660 -11.311  -1.211  0.00  0.00    +0.112 A 
ATOM      9  C   UNL     1      -1.382 -10.168  -1.371  0.00  0.00    +0.061 A 
ATOM     10  C   UNL     1      -2.664 -10.585  -1.952  0.00  0.00    +0.053 A 
ATOM     11  C   UNL     1      -2.596 -11.920  -2.081  0.00  0.00    +0.196 A 
ATOM     12  O   UNL     1      -1.403 -12.343  -1.636  0.00  0.00    -0.467 OA
ENDBRANCH   2   9
BRANCH   6  13
ATOM     13  N   UNL     1      -2.966  -7.546  -1.707  0.00  0.00    -0.295 N 
ATOM     14  H   UNL     1      -3.450  -6.562  -1.788  0.00  0.00    +0.163 HD
ATOM     15  H   UNL     1      -3.500  -8.451  -2.033  0.00  0.00    +0.163 HD
ENDBRANCH   6  13
ENDBRANCH   1   5
BRANCH   1  16
ATOM     16  C   UNL     1       0.198  -4.232  -0.020  0.00  0.00    +0.117 C 
ATOM     17  C   UNL     1       0.365  -4.742   1.413  0.00  0.00    +0.027 C 
BRANCH  16  18
ATOM     18  C   UNL     1       0.119  -2.727  -0.012  0.00  0.00    +0.124 A 
ATOM     19  N   UNL     1      -1.110  -2.147   0.003  0.00  0.00    -0.309 N 
ATOM     20  H   UNL     1      -2.014  -2.773   0.009  0.00  0.00    +0.170 HD
ATOM     21  C   UNL     1      -1.235  -0.799   0.011  0.00  0.00    +0.259 A 
ATOM     22  O   UNL     1      -2.329  -0.266   0.024  0.00  0.00    -0.267 OA
ATOM     23  C   UNL     1       0.002  -0.004   0.002  0.00  0.00    +0.065 A 
ATOM     24  C   UNL     1      -0.017   1.389   0.010  0.00  0.00    +0.015 A 
ATOM     25  C   UNL     1       1.173   2.084   0.002  0.00  0.00    +0.001 A 
ATOM     26  C   UNL     1       2.386   1.408  -0.014  0.00  0.00    +0.002 A 
ATOM     27  C   UNL     1       2.426   0.032  -0.021  0.00  0.00    +0.028 A 
ATOM     28  C   UNL     1       1.234  -0.695  -0.013  0.00  0.00    +0.078 A 
ATOM     29  N   UNL     1       1.227  -2.051  -0.020  0.00  0.00    -0.233 NA
ENDBRANCH  16  18
ENDBRANCH   1  16
TORSDOF 5
