REMARK  Name = ZINC36892371
REMARK  7 active torsions:
REMARK  status: ('A' for Active; 'I' for Inactive)
REMARK    1  A    between atoms: C_1  and  O_2
REMARK    2  A    between atoms: O_2  and  C_3
REMARK    3  A    between atoms: C_3  and  C_5
REMARK    4  A    between atoms: C_5  and  C_7
REMARK    5  A    between atoms: C_5  and  N_18
REMARK    6  A    between atoms: C_7  and  C_8
REMARK    7  A    between atoms: C_19  and  C_21
REMARK                            x       y       z     vdW  Elec       q    Type
REMARK                         _______ _______ _______ _____ _____    ______ ____
ROOT
ATOM      1  N   UNL     1      -2.643  -2.570   0.013  0.00  0.00    -0.298 N 
ATOM      2  C   UNL     1      -3.328  -2.666  -1.143  0.00  0.00    +0.245 C 
ATOM      3  O   UNL     1      -2.784  -2.393  -2.196  0.00  0.00    -0.270 OA
ATOM      4  H   UNL     1      -3.076  -2.788   0.853  0.00  0.00    +0.150 HD
ENDROOT
BRANCH   2   5
ATOM      5  C   UNL     1      -4.738  -3.104  -1.132  0.00  0.00    +0.037 A 
ATOM      6  C   UNL     1      -5.365  -3.414   0.083  0.00  0.00    +0.015 A 
ATOM      7  C   UNL     1      -6.667  -3.819   0.109  0.00  0.00    +0.027 A 
ATOM      8  C   UNL     1      -7.392  -3.932  -1.076  0.00  0.00    +0.047 A 
ATOM      9  C   UNL     1      -6.772  -3.623  -2.305  0.00  0.00    +0.004 A 
ATOM     10  C   UNL     1      -5.444  -3.204  -2.327  0.00  0.00    +0.023 A 
ATOM     11  C   UNL     1      -7.789  -3.842  -3.329  0.00  0.00    -0.019 A 
ATOM     12  C   UNL     1      -8.909  -4.249  -2.702  0.00  0.00    +0.020 A 
ATOM     13  N   UNL     1      -8.685  -4.306  -1.355  0.00  0.00    -0.358 N 
ATOM     14  H   UNL     1      -9.342  -4.573  -0.693  0.00  0.00    +0.166 HD
ATOM     15  C   UNL     1     -10.197  -4.580  -3.420  0.00  0.00    +0.053 C 
ATOM     16  C   UNL     1     -10.136  -3.984  -4.830  0.00  0.00    +0.006 C 
ATOM     17  C   UNL     1      -8.822  -4.391  -5.501  0.00  0.00    +0.005 C 
ATOM     18  C   UNL     1      -7.657  -3.663  -4.819  0.00  0.00    +0.037 C 
ENDBRANCH   2   5
BRANCH   1  19
ATOM     19  C   UNL     1      -1.244  -2.135   0.003  0.00  0.00    +0.186 C 
BRANCH  19  20
ATOM     20  C   UNL     1      -1.185  -0.630   0.010  0.00  0.00    +0.328 C 
ATOM     21  O   UNL     1      -2.208   0.015   0.023  0.00  0.00    -0.249 OA
BRANCH  20  23
ATOM     22  C   UNL     1      -0.017   1.425   0.010  0.00  0.00    +0.280 C 
ATOM     23  O   UNL     1       0.002  -0.004   0.002  0.00  0.00    -0.467 OA
ENDBRANCH  20  23
ENDBRANCH  19  20
BRANCH  19  24
ATOM     24  C   UNL     1      -0.531  -2.680   1.242  0.00  0.00    +0.071 C 
BRANCH  24  25
ATOM     25  C   UNL     1      -0.482  -4.184   1.173  0.00  0.00    -0.020 A 
ATOM     26  C   UNL     1      -1.355  -5.038   1.731  0.00  0.00    +0.087 A 
ATOM     27  N   UNL     1      -0.987  -6.327   1.456  0.00  0.00    -0.360 N 
ATOM     28  H   UNL     1      -1.464  -7.118   1.753  0.00  0.00    +0.165 HD
ATOM     29  C   UNL     1       0.161  -6.335   0.695  0.00  0.00    +0.047 A 
ATOM     30  C   UNL     1       0.524  -4.992   0.479  0.00  0.00    +0.003 A 
ATOM     31  C   UNL     1       1.659  -4.691  -0.275  0.00  0.00    +0.010 A 
ATOM     32  C   UNL     1       2.411  -5.702  -0.803  0.00  0.00    +0.001 A 
ATOM     33  C   UNL     1       2.055  -7.028  -0.596  0.00  0.00    +0.002 A 
ATOM     34  C   UNL     1       0.943  -7.348   0.153  0.00  0.00    +0.026 A 
ENDBRANCH  24  25
ENDBRANCH  19  24
ENDBRANCH   1  19
TORSDOF 6
