REMARK  Name = ZINC64031382
REMARK  4 active torsions:
REMARK  status: ('A' for Active; 'I' for Inactive)
REMARK    1  A    between atoms: C_7  and  C_10
REMARK    2  A    between atoms: N_12  and  N_13
REMARK    3  A    between atoms: C_14  and  C_16
REMARK    4  A    between atoms: N_18  and  C_21
REMARK                            x       y       z     vdW  Elec       q    Type
REMARK                         _______ _______ _______ _____ _____    ______ ____
ROOT
ATOM      1  N   UNL     1       0.203  -5.517  -0.030  0.00  0.00    -0.229 N 
ATOM      2  C   UNL     1       0.676  -6.779  -0.042  0.00  0.00    +0.282 C 
ATOM      3  O   UNL     1       1.875  -6.980  -0.055  0.00  0.00    -0.267 OA
ATOM      4  H   UNL     1      -0.753  -5.357  -0.020  0.00  0.00    +0.173 HD
ENDROOT
BRANCH   2   5
ATOM      5  C   UNL     1      -0.262  -7.918  -0.039  0.00  0.00    +0.169 A 
ATOM      6  C   UNL     1       0.086  -9.239  -0.044  0.00  0.00    +0.149 A 
ATOM      7  N   UNL     1      -1.066  -9.946  -0.038  0.00  0.00    -0.218 N 
ATOM      8  N   UNL     1      -2.113  -9.013  -0.029  0.00  0.00    -0.060 NA
ATOM      9  N   UNL     1      -1.603  -7.831  -0.025  0.00  0.00    -0.124 NA
BRANCH   7  10
ATOM     10  C   UNL     1      -1.190 -11.343  -0.041  0.00  0.00    +0.081 A 
ATOM     11  C   UNL     1      -0.054 -12.142  -0.045  0.00  0.00    +0.029 A 
ATOM     12  C   UNL     1      -0.179 -13.517  -0.048  0.00  0.00    +0.002 A 
ATOM     13  C   UNL     1      -1.434 -14.099  -0.046  0.00  0.00    +0.001 A 
ATOM     14  C   UNL     1      -2.567 -13.307  -0.043  0.00  0.00    +0.017 A 
ATOM     15  C   UNL     1      -2.448 -11.930  -0.034  0.00  0.00    +0.043 A 
ATOM     16 BR   UNL     1      -3.998 -10.846  -0.020  0.00  0.00    -0.048 Br
ENDBRANCH   7  10
ENDBRANCH   2   5
BRANCH   1  19
ATOM     17  C   UNL     1       0.622  -3.174  -0.021  0.00  0.00    +0.258 C 
ATOM     18  O   UNL     1      -0.578  -2.973  -0.009  0.00  0.00    -0.269 OA
ATOM     19  N   UNL     1       1.094  -4.436  -0.033  0.00  0.00    -0.230 N 
ATOM     20  H   UNL     1       2.051  -4.596  -0.043  0.00  0.00    +0.173 HD
BRANCH  17  27
ATOM     21  C   UNL     1      -0.016   1.346   0.009  0.00  0.00    +0.001 A 
ATOM     22  C   UNL     1       1.158   2.116   0.002  0.00  0.00    +0.002 A 
ATOM     23  C   UNL     1       2.384   1.551  -0.013  0.00  0.00    +0.026 A 
ATOM     24  C   UNL     1       2.495   0.083  -0.022  0.00  0.00    +0.043 A 
ATOM     25  N   UNL     1       3.529  -0.711  -0.037  0.00  0.00    -0.380 N 
ATOM     26  C   UNL     1       3.066  -2.103  -0.040  0.00  0.00    +0.154 C 
ATOM     27  C   UNL     1       1.555  -2.042  -0.024  0.00  0.00    +0.044 C 
ATOM     28  C   UNL     1       1.237  -0.701  -0.013  0.00  0.00    +0.008 A 
ATOM     29  C   UNL     1       0.002  -0.004   0.002  0.00  0.00    +0.010 A 
ATOM     30  H   UNL     1       4.456  -0.427  -0.045  0.00  0.00    +0.160 HD
ENDBRANCH  17  27
ENDBRANCH   1  19
TORSDOF 4
