REMARK  Name = ZINC56489524
REMARK  4 active torsions:
REMARK  status: ('A' for Active; 'I' for Inactive)
REMARK    1  A    between atoms: C_6  and  C_7
REMARK    2  A    between atoms: C_7  and  C_9
REMARK    3  A    between atoms: C_7  and  N_12
REMARK    4  A    between atoms: C_18  and  C_21
REMARK                            x       y       z     vdW  Elec       q    Type
REMARK                         _______ _______ _______ _____ _____    ______ ____
ROOT
ATOM      1  C   UNL     1      -1.293  -0.774   0.009  0.00  0.00    +0.108 C 
ENDROOT
BRANCH   1   7
ATOM      2  C   UNL     1      -0.017   1.378   0.010  0.00  0.00    +0.009 A 
ATOM      3  C   UNL     1       1.170   2.088   0.002  0.00  0.00    +0.050 A 
ATOM      4  C   UNL     1       2.382   1.415  -0.013  0.00  0.00    +0.162 A 
ATOM      5  C   UNL     1       2.401   0.025  -0.018  0.00  0.00    +0.162 A 
ATOM      6  C   UNL     1       1.207  -0.681  -0.011  0.00  0.00    +0.055 A 
ATOM      7  C   UNL     1       0.002  -0.004   0.002  0.00  0.00    -0.023 A 
ATOM      8  O   UNL     1       3.579  -0.656  -0.024  0.00  0.00    -0.485 OA
ATOM      9  C   UNL     1       4.746   0.081  -0.406  0.00  0.00    +0.270 C 
ATOM     10  C   UNL     1       4.733   1.422   0.340  0.00  0.00    +0.270 C 
ATOM     11  O   UNL     1       3.542   2.127  -0.024  0.00  0.00    -0.485 OA
ENDBRANCH   1   7
BRANCH   1  12
ATOM     12  N   UNL     1      -2.246  -0.119   0.908  0.00  0.00    -0.292 N 
ATOM     13  C   UNL     1      -3.241  -0.832   1.472  0.00  0.00    +0.303 C 
ATOM     14  O   UNL     1      -3.347  -2.020   1.234  0.00  0.00    -0.253 OA
ATOM     15  N   UNL     1      -4.117  -0.229   2.299  0.00  0.00    -0.285 N 
ATOM     16  C   UNL     1      -4.109   1.194   2.667  0.00  0.00    +0.110 C 
ATOM     17  C   UNL     1      -5.309   1.431   3.608  0.00  0.00    +0.033 C 
ATOM     18  C   UNL     1      -6.256   0.250   3.269  0.00  0.00    +0.094 C 
ATOM     19  C   UNL     1      -5.247  -0.887   2.981  0.00  0.00    +0.122 C 
ATOM     20  H   UNL     1      -2.162   0.829   1.097  0.00  0.00    +0.151 HD
BRANCH  18  21
ATOM     21  C   UNL     1      -7.137  -0.090   4.443  0.00  0.00    +0.215 C 
ATOM     22  O   UNL     1      -7.041   0.539   5.476  0.00  0.00    -0.276 OA
ATOM     23  N   UNL     1      -8.032  -1.093   4.346  0.00  0.00    -0.329 N 
ATOM     24  H   UNL     1      -8.109  -1.596   3.520  0.00  0.00    +0.145 HD
ATOM     25  H   UNL     1      -8.600  -1.311   5.102  0.00  0.00    +0.145 HD
ENDBRANCH  18  21
ENDBRANCH   1  12
BRANCH   1  26
ATOM     26  C   UNL     1      -1.872  -0.811  -1.407  0.00  0.00    +0.014 C 
ATOM     27  C   UNL     1      -3.158  -0.024  -1.667  0.00  0.00    +0.006 C 
ATOM     28  C   UNL     1      -3.195  -1.552  -1.611  0.00  0.00    +0.006 C 
ENDBRANCH   1  26
TORSDOF 4
