REMARK  Name = ZINC67373733
REMARK  3 active torsions:
REMARK  status: ('A' for Active; 'I' for Inactive)
REMARK    1  A    between atoms: C_13  and  C_16
REMARK    2  A    between atoms: C_16  and  C_18
REMARK    3  A    between atoms: C_16  and  O_25
REMARK                            x       y       z     vdW  Elec       q    Type
REMARK                         _______ _______ _______ _____ _____    ______ ____
ROOT
ATOM      1  C   UNL     1      -0.017   1.373   0.010  0.00  0.00    +0.002 A 
ATOM      2  C   UNL     1       1.170   2.091   0.002  0.00  0.00    +0.004 A 
ATOM      3  C   UNL     1       2.384   1.435  -0.013  0.00  0.00    +0.048 A 
ATOM      4  C   UNL     1       2.421   0.050  -0.021  0.00  0.00    +0.157 A 
ATOM      5  C   UNL     1       1.223  -0.680  -0.013  0.00  0.00    +0.111 A 
ATOM      6  C   UNL     1       0.002  -0.004   0.002  0.00  0.00    +0.031 A 
ATOM      7  N   UNL     1       1.569  -1.996  -0.024  0.00  0.00    -0.195 NA
ATOM      8  C   UNL     1       2.874  -2.087  -0.038  0.00  0.00    +0.291 A 
ATOM      9  O   UNL     1       3.422  -0.859  -0.036  0.00  0.00    -0.424 OA
ATOM     10  N   UNL     1       3.583  -3.267  -0.052  0.00  0.00    -0.285 N 
ATOM     11  C   UNL     1       2.884  -4.560  -0.059  0.00  0.00    +0.110 C 
ATOM     12  C   UNL     1       3.414  -5.412   1.099  0.00  0.00    +0.025 C 
ATOM     13  C   UNL     1       4.937  -5.521   0.992  0.00  0.00    +0.025 C 
ATOM     14  C   UNL     1       5.557  -4.125   1.097  0.00  0.00    +0.025 C 
ATOM     15  C   UNL     1       5.052  -3.258  -0.066  0.00  0.00    +0.110 C 
ENDROOT
BRANCH  13  16
ATOM     16  C   UNL     1       5.466  -6.400   2.126  0.00  0.00    +0.148 C 
BRANCH  16  17
ATOM     17  C   UNL     1       6.966  -6.507   2.022  0.00  0.00    -0.019 A 
ATOM     18  C   UNL     1       7.769  -5.534   2.587  0.00  0.00    +0.007 A 
ATOM     19  C   UNL     1       9.144  -5.631   2.491  0.00  0.00    +0.020 A 
ATOM     20  C   UNL     1       9.717  -6.702   1.830  0.00  0.00    +0.041 A 
ATOM     21  C   UNL     1       8.913  -7.676   1.264  0.00  0.00    +0.020 A 
ATOM     22  C   UNL     1       7.538  -7.580   1.365  0.00  0.00    +0.007 A 
ATOM     23 CL   UNL     1      11.444  -6.824   1.709  0.00  0.00    -0.084 Cl
ENDBRANCH  16  17
BRANCH  16  24
ATOM     24  O   UNL     1       5.116  -5.818   3.384  0.00  0.00    -0.387 OA
ATOM     25  H   UNL     1       5.476  -4.930   3.519  0.00  0.00    +0.210 HD
ENDBRANCH  16  24
ENDBRANCH  13  16
TORSDOF 3
