REMARK  Name = ZINC01754191
REMARK  9 active torsions:
REMARK  status: ('A' for Active; 'I' for Inactive)
REMARK    1  A    between atoms: C_1  and  O_2
REMARK    2  A    between atoms: O_2  and  C_3
REMARK    3  A    between atoms: C_6  and  C_11
REMARK    4  A    between atoms: C_8  and  O_9
REMARK    5  A    between atoms: O_9  and  C_10
REMARK    6  A    between atoms: N_12  and  N_13
REMARK    7  A    between atoms: C_14  and  C_16
REMARK    8  A    between atoms: C_16  and  N_17
REMARK    9  A    between atoms: C_18  and  C_20
REMARK                            x       y       z     vdW  Elec       q    Type
REMARK                         _______ _______ _______ _____ _____    ______ ____
ROOT
ATOM      1  N   UNL     1       3.671   1.218  -0.026  0.00  0.00    -0.206 N 
ATOM      2  C   UNL     1       2.406   0.752  -0.017  0.00  0.00    +0.249 C 
ATOM      3  O   UNL     1       2.201  -0.444  -0.021  0.00  0.00    -0.272 OA
ATOM      4  H   UNL     1       3.835   2.174  -0.023  0.00  0.00    +0.177 HD
ENDROOT
BRANCH   1   6
ATOM      5  C   UNL     1       5.965   0.772  -0.051  0.00  0.00    +0.138 C 
ATOM      6  N   UNL     1       4.748   0.323  -0.042  0.00  0.00    -0.188 NA
BRANCH   5  10
ATOM      7  C   UNL     1       9.227  -1.949  -0.097  0.00  0.00    +0.162 A 
ATOM      8  C   UNL     1       7.926  -2.428  -0.087  0.00  0.00    +0.050 A 
ATOM      9  C   UNL     1       6.864  -1.548  -0.066  0.00  0.00    +0.013 A 
ATOM     10  C   UNL     1       7.099  -0.171  -0.067  0.00  0.00    -0.002 A 
ATOM     11  C   UNL     1       8.410   0.311  -0.077  0.00  0.00    +0.059 A 
ATOM     12  C   UNL     1       9.469  -0.577  -0.091  0.00  0.00    +0.162 A 
BRANCH   7  14
ATOM     13  C   UNL     1       9.951  -4.214  -0.117  0.00  0.00    +0.277 C 
ATOM     14  O   UNL     1      10.270  -2.821  -0.112  0.00  0.00    -0.491 OA
ENDBRANCH   7  14
BRANCH  12  15
ATOM     15  O   UNL     1      10.747  -0.112  -0.101  0.00  0.00    -0.491 OA
ATOM     16  C   UNL     1      10.921   1.306  -0.095  0.00  0.00    +0.277 C 
ENDBRANCH  12  15
ENDBRANCH   5  10
ENDBRANCH   1   6
BRANCH   2  17
ATOM     17  C   UNL     1       1.248   1.716  -0.001  0.00  0.00    +0.202 C 
BRANCH  17  18
ATOM     18  N   UNL     1      -0.011   0.966   0.007  0.00  0.00    -0.303 N 
ATOM     19  C   UNL     1      -1.187   1.624   0.017  0.00  0.00    +0.246 C 
ATOM     20  O   UNL     1      -1.204   2.839   0.023  0.00  0.00    -0.270 OA
ATOM     21  H   UNL     1       0.002  -0.004   0.002  0.00  0.00    +0.150 HD
BRANCH  19  22
ATOM     22  C   UNL     1      -2.456   0.868   0.018  0.00  0.00    +0.055 A 
ATOM     23  C   UNL     1      -2.441  -0.529   0.011  0.00  0.00    +0.016 A 
ATOM     24  C   UNL     1      -3.628  -1.228   0.013  0.00  0.00    +0.021 A 
ATOM     25  C   UNL     1      -4.837  -0.550   0.023  0.00  0.00    +0.042 A 
ATOM     26  C   UNL     1      -4.860   0.834   0.031  0.00  0.00    +0.040 A 
ATOM     27  C   UNL     1      -3.678   1.547   0.034  0.00  0.00    +0.054 A 
ATOM     28 CL   UNL     1      -3.708   3.283   0.051  0.00  0.00    -0.083 Cl
ATOM     29 CL   UNL     1      -6.327  -1.440   0.025  0.00  0.00    -0.083 Cl
ENDBRANCH  19  22
ENDBRANCH  17  18
ENDBRANCH   2  17
TORSDOF 7
