REMARK  Name = ZINC13268581
REMARK  8 active torsions:
REMARK  status: ('A' for Active; 'I' for Inactive)
REMARK    1  A    between atoms: C_1  and  C_2
REMARK    2  A    between atoms: C_2  and  C_3
REMARK    3  A    between atoms: C_6  and  C_9
REMARK    4  A    between atoms: C_11  and  C_29
REMARK    5  A    between atoms: C_12  and  C_19
REMARK    6  A    between atoms: C_22  and  O_25
REMARK    7  A    between atoms: O_25  and  C_26
REMARK    8  A    between atoms: C_26  and  C_27
REMARK                            x       y       z     vdW  Elec       q    Type
REMARK                         _______ _______ _______ _____ _____    ______ ____
ROOT
ATOM      1  C   UNL     1      -0.207   0.307  -0.038  0.00  0.00    +0.170 C 
ATOM      2  C   UNL     1      -0.776  -0.406  -1.235  0.00  0.00    -0.022 C 
ATOM      3  C   UNL     1      -1.779  -1.270  -1.161  0.00  0.00    +0.042 C 
ATOM      4  N   UNL     1      -2.392  -1.596   0.057  0.00  0.00    -0.282 N 
ATOM      5  C   UNL     1      -1.750  -1.185   1.215  0.00  0.00    +0.240 A 
ATOM      6  N   UNL     1      -0.721  -0.298   1.184  0.00  0.00    -0.202 N 
ATOM      7  N   UNL     1      -0.329  -0.136   2.512  0.00  0.00    -0.042 NA
ATOM      8  N   UNL     1      -1.107  -0.889   3.220  0.00  0.00    -0.021 NA
ATOM      9  N   UNL     1      -1.946  -1.508   2.462  0.00  0.00    -0.092 NA
ATOM     10  C   UNL     1      -0.174  -0.125  -2.588  0.00  0.00    +0.043 C 
ATOM     11  H   UNL     1      -3.228  -2.087   0.088  0.00  0.00    +0.155 HD
ENDROOT
BRANCH   1  15
ATOM     12  C   UNL     1      -1.335   4.425  -0.169  0.00  0.00    -0.048 A 
ATOM     13  C   UNL     1       0.002   4.074  -0.175  0.00  0.00    +0.004 A 
ATOM     14  C   UNL     1       0.367   2.741  -0.133  0.00  0.00    +0.006 A 
ATOM     15  C   UNL     1      -0.605   1.760  -0.084  0.00  0.00    -0.019 A 
ATOM     16  C   UNL     1      -1.942   2.110  -0.084  0.00  0.00    +0.006 A 
ATOM     17  C   UNL     1      -2.307   3.443  -0.120  0.00  0.00    +0.004 A 
BRANCH  12  19
ATOM     18  C   UNL     1      -1.887   6.318  -1.673  0.00  0.00    +0.009 C 
ATOM     19  C   UNL     1      -1.733   5.878  -0.216  0.00  0.00    +0.032 C 
ENDBRANCH  12  19
ENDBRANCH   1  15
BRANCH   3  20
ATOM     20  C   UNL     1      -2.268  -1.911  -2.403  0.00  0.00    -0.004 A 
ATOM     21  C   UNL     1      -3.629  -1.895  -2.708  0.00  0.00    +0.013 A 
ATOM     22  C   UNL     1      -4.080  -2.488  -3.869  0.00  0.00    +0.046 A 
ATOM     23  C   UNL     1      -3.183  -3.109  -4.727  0.00  0.00    +0.121 A 
ATOM     24  C   UNL     1      -1.828  -3.131  -4.423  0.00  0.00    +0.046 A 
ATOM     25  C   UNL     1      -1.369  -2.535  -3.268  0.00  0.00    +0.013 A 
BRANCH  23  26
ATOM     26  O   UNL     1      -3.631  -3.697  -5.867  0.00  0.00    -0.481 OA
BRANCH  26  27
ATOM     27  C   UNL     1      -5.037  -3.637  -6.118  0.00  0.00    +0.353 C 
BRANCH  27  28
ATOM     28  C   UNL     1      -5.346  -4.336  -7.417  0.00  0.00    +0.393 C 
ATOM     29  O   UNL     1      -4.453  -4.834  -8.062  0.00  0.00    -0.243 OA
ATOM     30  O   UNL     1      -6.612  -4.405  -7.858  0.00  0.00    -0.243 OA
ENDBRANCH  27  28
ENDBRANCH  26  27
ENDBRANCH  23  26
ENDBRANCH   3  20
TORSDOF 6
