REMARK  Name = ZINC23132935
REMARK  5 active torsions:
REMARK  status: ('A' for Active; 'I' for Inactive)
REMARK    1  A    between atoms: C_3  and  C_14
REMARK    2  A    between atoms: C_5  and  S_7
REMARK    3  A    between atoms: S_7  and  N_10
REMARK    4  A    between atoms: N_10  and  C_11
REMARK    5  A    between atoms: N_16  and  C_17
REMARK                            x       y       z     vdW  Elec       q    Type
REMARK                         _______ _______ _______ _____ _____    ______ ____
ROOT
ATOM      1  C   UNL     1      -1.413   3.527   3.136  0.00  0.00    +0.003 A 
ATOM      2  C   UNL     1      -2.338   2.673   3.700  0.00  0.00    +0.013 A 
ATOM      3  C   UNL     1      -2.559   1.416   3.134  0.00  0.00    +0.039 A 
ATOM      4  C   UNL     1      -1.840   1.032   2.000  0.00  0.00    +0.041 A 
ATOM      5  C   UNL     1      -0.918   1.896   1.447  0.00  0.00    +0.106 A 
ATOM      6  C   UNL     1      -0.700   3.139   2.016  0.00  0.00    +0.028 A 
ENDROOT
BRANCH   3   7
ATOM      7  C   UNL     1      -3.548   0.495   3.732  0.00  0.00    +0.248 C 
ATOM      8  O   UNL     1      -3.738  -0.599   3.238  0.00  0.00    -0.270 OA
ATOM      9  N   UNL     1      -4.240   0.869   4.827  0.00  0.00    -0.282 N 
ATOM     10  H   UNL     1      -4.015   1.826   5.320  0.00  0.00    +0.155 HD
BRANCH   9  11
ATOM     11  C   UNL     1      -5.244   0.039   5.337  0.00  0.00    +0.034 A 
ATOM     12  C   UNL     1      -6.382   0.594   5.909  0.00  0.00    +0.024 A 
ATOM     13  C   UNL     1      -7.374  -0.228   6.405  0.00  0.00    +0.017 A 
ATOM     14  C   UNL     1      -7.231  -1.603   6.344  0.00  0.00    +0.018 A 
ATOM     15  C   UNL     1      -6.096  -2.158   5.780  0.00  0.00    +0.017 A 
ATOM     16  C   UNL     1      -5.103  -1.341   5.276  0.00  0.00    +0.024 A 
ATOM     17 BR   UNL     1      -8.589  -2.724   7.033  0.00  0.00    -0.050 Br
ENDBRANCH   9  11
ENDBRANCH   3   7
BRANCH   5  18
ATOM     18  S   UNL     1      -0.010   1.414   0.016  0.00  0.00    +0.059 S 
ATOM     19  O   UNL     1       0.001  -0.007   0.001  0.00  0.00    -0.153 OA
ATOM     20  O   UNL     1       1.183   2.185   0.013  0.00  0.00    -0.153 OA
BRANCH  18  21
ATOM     21  N   UNL     1      -0.887   1.894  -1.305  0.00  0.00    -0.187 NA
ATOM     22  H   UNL     1      -1.436   1.140  -1.888  0.00  0.00    +0.148 HD
BRANCH  21  23
ATOM     23  C   UNL     1      -1.106   3.319  -1.560  0.00  0.00    +0.077 C 
ATOM     24  C   UNL     1      -2.434   3.727  -2.201  0.00  0.00    +0.022 C 
ATOM     25  C   UNL     1      -1.143   3.778  -3.019  0.00  0.00    +0.022 C 
ENDBRANCH  21  23
ENDBRANCH  18  21
ENDBRANCH   5  18
TORSDOF 5
