REMARK  Name = ZINC26029144
REMARK  6 active torsions:
REMARK  status: ('A' for Active; 'I' for Inactive)
REMARK    1  A    between atoms: C_6  and  C_7
REMARK    2  A    between atoms: C_7  and  N_8
REMARK    3  A    between atoms: C_9  and  C_11
REMARK    4  A    between atoms: C_14  and  C_16
REMARK    5  A    between atoms: C_16  and  S_17
REMARK    6  A    between atoms: S_17  and  C_18
REMARK                            x       y       z     vdW  Elec       q    Type
REMARK                         _______ _______ _______ _____ _____    ______ ____
ROOT
ATOM      1  C   UNL     1       1.171   7.572   6.955  0.00  0.00    +0.142 C 
ENDROOT
BRANCH   1   5
ATOM      2  C   UNL     1       1.176   4.942   3.769  0.00  0.00    +0.187 A 
ATOM      3  N   UNL     1       1.252   4.435   4.996  0.00  0.00    -0.136 NA
ATOM      4  N   UNL     1       1.254   5.199   6.002  0.00  0.00    -0.145 NA
ATOM      5  C   UNL     1       1.182   6.513   5.883  0.00  0.00    +0.113 A 
ATOM      6  S   UNL     1       1.110   6.688   4.155  0.00  0.00    -0.045 S 
BRANCH   2   8
ATOM      7  N   UNL     1       1.224   2.916   2.404  0.00  0.00    -0.305 N 
ATOM      8  C   UNL     1       1.158   4.261   2.463  0.00  0.00    +0.271 C 
ATOM      9  O   UNL     1       1.084   4.912   1.439  0.00  0.00    -0.268 OA
ATOM     10  H   UNL     1       1.292   2.327   3.331  0.00  0.00    +0.149 HD
BRANCH   7  11
ATOM     11  C   UNL     1       1.207   2.238   1.105  0.00  0.00    +0.140 C 
BRANCH  11  17
ATOM     12  C   UNL     1       0.135   0.004   1.460  0.00  0.00    +0.008 A 
ATOM     13  C   UNL     1       0.211  -1.362   1.651  0.00  0.00    +0.038 A 
ATOM     14  C   UNL     1       1.446  -1.986   1.699  0.00  0.00    +0.123 A 
ATOM     15  C   UNL     1       2.603  -1.240   1.555  0.00  0.00    +0.038 A 
ATOM     16  C   UNL     1       2.525   0.126   1.363  0.00  0.00    +0.008 A 
ATOM     17  C   UNL     1       1.291   0.748   1.315  0.00  0.00    -0.030 A 
ATOM     18  F   UNL     1       1.522  -3.322   1.887  0.00  0.00    -0.205 F 
ENDBRANCH  11  17
ENDBRANCH   7  11
ENDBRANCH   2   8
ENDBRANCH   1   5
BRANCH   1  19
ATOM     19  S   UNL     1       2.869   8.084   7.315  0.00  0.00    -0.079 S 
BRANCH  19  20
ATOM     20  C   UNL     1       2.567   9.291   8.563  0.00  0.00    +0.191 A 
ATOM     21  N   UNL     1       1.318   9.545   8.935  0.00  0.00    -0.207 NA
ATOM     22  C   UNL     1       1.030  10.439   9.866  0.00  0.00    +0.129 A 
ATOM     23  C   UNL     1       2.087  11.156  10.493  0.00  0.00    +0.051 A 
ATOM     24  C   UNL     1       2.006  12.181  11.536  0.00  0.00    -0.025 A 
ATOM     25  C   UNL     1       3.168  12.712  11.964  0.00  0.00    -0.004 A 
ATOM     26  S   UNL     1       4.426  11.892  11.022  0.00  0.00    -0.073 S 
ATOM     27  C   UNL     1       3.385  10.835  10.049  0.00  0.00    +0.115 A 
ATOM     28  N   UNL     1       3.592   9.925   9.117  0.00  0.00    -0.215 NA
ATOM     29  C   UNL     1       3.353  13.767  13.012  0.00  0.00    +0.043 C 
ATOM     30  C   UNL     1       1.995  14.433  13.274  0.00  0.00    +0.005 C 
ATOM     31  C   UNL     1       0.939  13.339  13.459  0.00  0.00    +0.005 C 
ATOM     32  C   UNL     1       0.675  12.642  12.124  0.00  0.00    +0.037 C 
ATOM     33  N   UNL     1      -0.285  10.674  10.226  0.00  0.00    -0.343 N 
ATOM     34  H   UNL     1      -0.517  11.420  11.001  0.00  0.00    +0.144 HD
ATOM     35  H   UNL     1      -1.097  10.116   9.738  0.00  0.00    +0.144 HD
ENDBRANCH  19  20
ENDBRANCH   1  19
TORSDOF 6
