REMARK  Name = ZINC36491246
REMARK  13 active torsions:
REMARK  status: ('A' for Active; 'I' for Inactive)
REMARK    1  A    between atoms: C_1  and  C_2
REMARK    2  A    between atoms: C_2  and  C_4
REMARK    3  A    between atoms: N_6  and  C_7
REMARK    4  A    between atoms: N_6  and  C_13
REMARK    5  A    between atoms: C_13  and  C_15
REMARK    6  A    between atoms: C_13  and  C_24
REMARK    7  A    between atoms: C_16  and  O_23
REMARK    8  A    between atoms: C_18  and  O_22
REMARK    9  A    between atoms: C_20  and  O_21
REMARK   10  A    between atoms: N_26  and  C_27
REMARK   11  A    between atoms: C_27  and  C_28
REMARK   12  A    between atoms: C_27  and  C_29
REMARK   13  A    between atoms: C_27  and  C_30
REMARK                            x       y       z     vdW  Elec       q    Type
REMARK                         _______ _______ _______ _____ _____    ______ ____
ROOT
ATOM      1  C   UNL     1      -2.440   1.347   0.021  0.00  0.00    +0.200 C 
ENDROOT
BRANCH   1   2
ATOM      2  C   UNL     1      -1.583   1.702   1.209  0.00  0.00    +0.065 A 
ATOM      3  C   UNL     1      -0.323   1.141   1.348  0.00  0.00    +0.129 A 
ATOM      4  C   UNL     1       0.466   1.468   2.441  0.00  0.00    +0.091 A 
ATOM      5  C   UNL     1      -0.006   2.357   3.394  0.00  0.00    +0.124 A 
ATOM      6  C   UNL     1      -1.266   2.920   3.255  0.00  0.00    +0.091 A 
ATOM      7  C   UNL     1      -2.052   2.596   2.160  0.00  0.00    +0.129 A 
BRANCH   7   8
ATOM      8  O   UNL     1      -3.285   3.151   2.021  0.00  0.00    -0.506 OA
ATOM      9  H   UNL     1      -3.995   2.642   2.435  0.00  0.00    +0.292 HD
ENDBRANCH   7   8
BRANCH   5  10
ATOM     10  O   UNL     1       0.766   2.677   4.466  0.00  0.00    -0.507 OA
ATOM     11  H   UNL     1       1.341   3.442   4.322  0.00  0.00    +0.292 HD
ENDBRANCH   5  10
BRANCH   3  12
ATOM     12  O   UNL     1       0.139   0.269   0.413  0.00  0.00    -0.506 OA
ATOM     13  H   UNL     1       0.690   0.678  -0.268  0.00  0.00    +0.292 HD
ENDBRANCH   3  12
ENDBRANCH   1   2
BRANCH   1  14
ATOM     14  C   UNL     1      -1.681   1.634  -1.249  0.00  0.00    +0.239 C 
ATOM     15  O   UNL     1      -1.423   0.732  -2.018  0.00  0.00    -0.273 OA
ATOM     16  N   UNL     1      -1.290   2.892  -1.531  0.00  0.00    -0.309 N 
ATOM     17  H   UNL     1      -1.497   3.614  -0.916  0.00  0.00    +0.149 HD
BRANCH  16  18
ATOM     18  C   UNL     1      -0.553   3.172  -2.766  0.00  0.00    +0.026 C 
ATOM     19  C   UNL     1      -1.407   2.772  -3.971  0.00  0.00    +0.031 C 
ATOM     20  C   UNL     1      -0.232   4.666  -2.841  0.00  0.00    +0.031 C 
ATOM     21  C   UNL     1       0.749   2.369  -2.775  0.00  0.00    +0.031 C 
ENDBRANCH  16  18
ENDBRANCH   1  14
BRANCH   1  24
ATOM     22  C   UNL     1      -3.650  -0.595  -0.817  0.00  0.00    +0.243 C 
ATOM     23  O   UNL     1      -3.853  -1.794  -0.841  0.00  0.00    -0.270 OA
ATOM     24  N   UNL     1      -2.782  -0.077   0.074  0.00  0.00    -0.279 N 
BRANCH  24  25
ATOM     25  C   UNL     1      -2.180  -0.937   1.097  0.00  0.00    +0.077 C 
ATOM     26  C   UNL     1      -1.358  -2.035   0.420  0.00  0.00    +0.022 C 
ATOM     27  C   UNL     1      -0.730  -2.933   1.488  0.00  0.00    +0.002 C 
ATOM     28  C   UNL     1      -1.835  -3.571   2.332  0.00  0.00    +0.000 C 
ATOM     29  C   UNL     1      -2.658  -2.472   3.009  0.00  0.00    +0.002 C 
ATOM     30  C   UNL     1      -3.285  -1.574   1.942  0.00  0.00    +0.022 C 
ENDBRANCH  24  25
BRANCH  22  32
ATOM     31  C   UNL     1      -4.627   1.723  -1.387  0.00  0.00    +0.048 C 
ATOM     32  C   UNL     1      -4.351   0.289  -1.760  0.00  0.00    +0.004 C 
ATOM     33  C   UNL     1      -4.742  -0.177  -2.943  0.00  0.00    +0.017 C 
ENDBRANCH  22  32
ENDBRANCH   1  24
TORSDOF 9
