REMARK  Name = ZINC39362978
REMARK  9 active torsions:
REMARK  status: ('A' for Active; 'I' for Inactive)
REMARK    1  A    between atoms: C_1  and  O_2
REMARK    2  A    between atoms: O_2  and  C_3
REMARK    3  A    between atoms: C_6  and  C_9
REMARK    4  A    between atoms: C_9  and  C_11
REMARK    5  A    between atoms: C_11  and  S_12
REMARK    6  A    between atoms: S_12  and  C_13
REMARK    7  A    between atoms: C_16  and  C_26
REMARK    8  A    between atoms: N_18  and  C_19
REMARK    9  A    between atoms: C_26  and  C_27
REMARK                            x       y       z     vdW  Elec       q    Type
REMARK                         _______ _______ _______ _____ _____    ______ ____
ROOT
ATOM      1  C   UNL     1       3.193  -6.268  -6.010  0.00  0.00    +0.180 C 
ATOM      2  N   UNL     1       2.710  -6.951  -5.028  0.00  0.00    -0.162 NA
ATOM      3  N   UNL     1       3.087  -8.297  -5.105  0.00  0.00    -0.246 N 
ATOM      4  C   UNL     1       3.916  -8.423  -6.316  0.00  0.00    +0.187 C 
ATOM      5  N   UNL     1       3.943  -7.058  -6.869  0.00  0.00    -0.258 N 
ATOM      6  H   UNL     1       2.850  -9.005  -4.485  0.00  0.00    +0.170 HD
ENDROOT
BRANCH   5   7
ATOM      7  C   UNL     1       4.600  -6.640  -8.031  0.00  0.00    +0.038 A 
ATOM      8  C   UNL     1       4.171  -7.091  -9.273  0.00  0.00    +0.026 A 
ATOM      9  C   UNL     1       4.820  -6.676 -10.419  0.00  0.00    +0.040 A 
ATOM     10  C   UNL     1       5.899  -5.812 -10.331  0.00  0.00    +0.124 A 
ATOM     11  C   UNL     1       6.328  -5.361  -9.094  0.00  0.00    +0.040 A 
ATOM     12  C   UNL     1       5.678  -5.768  -7.946  0.00  0.00    +0.026 A 
ATOM     13  F   UNL     1       6.533  -5.408 -11.453  0.00  0.00    -0.205 F 
ENDBRANCH   5   7
BRANCH   1  14
ATOM     14  S   UNL     1       2.925  -4.541  -6.238  0.00  0.00    -0.081 S 
BRANCH  14  15
ATOM     15  C   UNL     1       1.890  -4.068  -4.826  0.00  0.00    +0.156 C 
BRANCH  15  16
ATOM     16  C   UNL     1       1.583  -2.594  -4.900  0.00  0.00    +0.173 C 
ATOM     17  O   UNL     1       2.019  -1.929  -5.815  0.00  0.00    -0.291 OA
BRANCH  16  21
ATOM     18  C   UNL     1      -0.805  -0.776  -1.911  0.00  0.00    +0.120 A 
ATOM     19  C   UNL     1      -0.305  -0.011  -2.960  0.00  0.00    +0.046 A 
ATOM     20  C   UNL     1       0.468  -0.595  -3.930  0.00  0.00    +0.015 A 
ATOM     21  C   UNL     1       0.755  -1.964  -3.863  0.00  0.00    +0.018 A 
ATOM     22  C   UNL     1       0.249  -2.730  -2.805  0.00  0.00    +0.015 A 
ATOM     23  C   UNL     1      -0.519  -2.135  -1.838  0.00  0.00    +0.046 A 
BRANCH  18  25
ATOM     24  C   UNL     1      -1.825   1.206  -1.090  0.00  0.00    +0.277 C 
ATOM     25  O   UNL     1      -1.570  -0.194  -0.954  0.00  0.00    -0.495 OA
ENDBRANCH  18  25
ENDBRANCH  16  21
ENDBRANCH  15  16
ENDBRANCH  14  15
ENDBRANCH   1  14
BRANCH   4  26
ATOM     26  C   UNL     1       5.327  -8.892  -5.954  0.00  0.00    +0.097 C 
BRANCH  26  27
ATOM     27  C   UNL     1       5.266 -10.299  -5.418  0.00  0.00    +0.029 A 
ATOM     28  N   UNL     1       4.991 -10.520  -4.096  0.00  0.00    -0.311 N 
ATOM     29  C   UNL     1       4.933 -11.772  -3.608  0.00  0.00    +0.327 A 
ATOM     30  O   UNL     1       4.687 -11.946  -2.430  0.00  0.00    -0.247 OA
ATOM     31  N   UNL     1       5.144 -12.836  -4.405  0.00  0.00    -0.275 N 
ATOM     32  C   UNL     1       5.418 -12.661  -5.714  0.00  0.00    +0.254 A 
ATOM     33  O   UNL     1       5.609 -13.623  -6.436  0.00  0.00    -0.268 OA
ATOM     34  C   UNL     1       5.476 -11.349  -6.242  0.00  0.00    +0.091 A 
ATOM     35  H   UNL     1       5.099 -13.732  -4.037  0.00  0.00    +0.173 HD
ATOM     36  H   UNL     1       4.836  -9.766  -3.505  0.00  0.00    +0.170 HD
ENDBRANCH  26  27
ENDBRANCH   4  26
TORSDOF 8
