REMARK  Name = ZINC05041407
REMARK  9 active torsions:
REMARK  status: ('A' for Active; 'I' for Inactive)
REMARK    1  A    between atoms: C_1  and  C_2
REMARK    2  A    between atoms: C_2  and  C_3
REMARK    3  A    between atoms: C_2  and  C_4
REMARK    4  A    between atoms: C_8  and  C_23
REMARK    5  A    between atoms: C_9  and  N_10
REMARK    6  A    between atoms: N_13  and  C_14
REMARK    7  A    between atoms: C_17  and  N_20
REMARK    8  A    between atoms: C_23  and  C_24
REMARK    9  A    between atoms: C_23  and  C_25
REMARK                            x       y       z     vdW  Elec       q    Type
REMARK                         _______ _______ _______ _____ _____    ______ ____
ROOT
ATOM      1  N   UNL     1       2.415  -4.092  -0.307  0.00  0.00    -0.269 N 
ATOM      2  C   UNL     1       2.224  -3.032   0.504  0.00  0.00    +0.308 C 
ATOM      3  O   UNL     1       3.137  -2.622   1.194  0.00  0.00    -0.252 OA
ATOM      4  N   UNL     1       1.021  -2.427   0.549  0.00  0.00    -0.269 N 
ATOM      5  H   UNL     1       1.706  -4.383  -0.901  0.00  0.00    +0.156 HD
ATOM      6  H   UNL     1       0.274  -2.795   0.051  0.00  0.00    +0.156 HD
ENDROOT
BRANCH   1  12
ATOM      7  C   UNL     1       4.815  -4.097  -0.586  0.00  0.00    -0.023 A 
ATOM      8  C   UNL     1       6.020  -4.771  -0.565  0.00  0.00    +0.006 A 
ATOM      9  C   UNL     1       6.055  -6.119  -0.261  0.00  0.00    +0.001 A 
ATOM     10  C   UNL     1       4.884  -6.796   0.027  0.00  0.00    +0.006 A 
ATOM     11  C   UNL     1       3.676  -6.127   0.013  0.00  0.00    -0.023 A 
ATOM     12  C   UNL     1       3.638  -4.773  -0.291  0.00  0.00    +0.042 A 
BRANCH   7  14
ATOM     13  C   UNL     1       5.748  -1.872  -0.014  0.00  0.00    +0.012 C 
ATOM     14  C   UNL     1       4.777  -2.628  -0.922  0.00  0.00    +0.015 C 
ATOM     15  C   UNL     1       5.186  -2.429  -2.383  0.00  0.00    +0.012 C 
ENDBRANCH   7  14
BRANCH  11  16
ATOM     16  C   UNL     1       2.401  -6.866   0.326  0.00  0.00    +0.015 C 
ATOM     17  C   UNL     1       2.207  -8.000  -0.682  0.00  0.00    +0.012 C 
ATOM     18  C   UNL     1       2.483  -7.449   1.739  0.00  0.00    +0.012 C 
ENDBRANCH  11  16
ENDBRANCH   1  12
BRANCH   4  19
ATOM     19  C   UNL     1       0.849  -1.268   1.314  0.00  0.00    +0.035 A 
ATOM     20  C   UNL     1      -0.003  -0.264   0.874  0.00  0.00    +0.025 A 
ATOM     21  C   UNL     1      -0.171   0.879   1.631  0.00  0.00    +0.034 A 
ATOM     22  C   UNL     1       0.508   1.024   2.827  0.00  0.00    +0.126 A 
ATOM     23  C   UNL     1       1.357   0.025   3.268  0.00  0.00    +0.034 A 
ATOM     24  C   UNL     1       1.530  -1.120   2.515  0.00  0.00    +0.025 A 
BRANCH  22  25
ATOM     25  N   UNL     1       0.326   2.249   3.636  0.00  0.00    +0.056 N 
ATOM     26  O   UNL     1      -0.422   3.129   3.249  0.00  0.00    -0.126 OA
ATOM     27  O   UNL     1       0.924   2.378   4.690  0.00  0.00    -0.126 OA
ENDBRANCH  22  25
ENDBRANCH   4  19
TORSDOF 5
