REMARK  Name = ZINC08635961
REMARK  7 active torsions:
REMARK  status: ('A' for Active; 'I' for Inactive)
REMARK    1  A    between atoms: C_4  and  N_7
REMARK    2  A    between atoms: N_7  and  C_8
REMARK    3  A    between atoms: C_8  and  N_10
REMARK    4  A    between atoms: N_10  and  C_11
REMARK    5  A    between atoms: C_11  and  C_12
REMARK    6  A    between atoms: C_20  and  C_22
REMARK    7  A    between atoms: C_22  and  N_70
REMARK                            x       y       z     vdW  Elec       q    Type
REMARK                         _______ _______ _______ _____ _____    ______ ____
ROOT
ATOM      1  C   UNL     1      -0.921  -2.202   0.772  0.00  0.00    -0.051 C 
ATOM      2  C   UNL     1      -2.213  -2.954   1.105  0.00  0.00    -0.010 C 
ATOM      3  C   UNL     1      -2.608  -3.817  -0.100  0.00  0.00    -0.015 C 
ATOM      4  C   UNL     1      -1.463  -4.793  -0.399  0.00  0.00    -0.015 C 
ATOM      5  C   UNL     1      -0.192  -3.991  -0.690  0.00  0.00    -0.078 C 
ATOM      6  C   UNL     1      -1.491  -2.152  -1.582  0.00  0.00    -0.076 C 
ATOM      7  C   UNL     1      -2.800  -2.902  -1.316  0.00  0.00    -0.041 C 
ATOM      8  N   UNL     1      -0.463  -2.541  -0.593  0.00  0.00    +0.383 N 
ATOM      9  H   UNL     1       0.402  -2.025  -0.792  0.00  0.00    -0.081 HD
ENDROOT
BRANCH   1  10
ATOM     10  C   UNL     1      -1.172  -0.695   0.852  0.00  0.00    +0.088 C 
BRANCH  10  11
ATOM     11  N   UNL     1       0.027   0.024   0.416  0.00  0.00    -0.328 N 
ATOM     12  H   UNL     1       0.814  -0.470   0.137  0.00  0.00    +0.148 HD
BRANCH  11  13
ATOM     13  C   UNL     1       0.038   1.372   0.403  0.00  0.00    +0.134 C 
ATOM     14  S   UNL     1      -1.353   2.244   0.889  0.00  0.00    -0.019 S 
BRANCH  13  15
ATOM     15  N   UNL     1       1.142   2.033   0.002  0.00  0.00    -0.297 N 
ATOM     16  H   UNL     1       1.948   1.542  -0.219  0.00  0.00    +0.154 HD
BRANCH  15  20
ATOM     17  C   UNL     1       1.090   6.189  -0.289  0.00  0.00    +0.000 A 
ATOM     18  C   UNL     1       0.554   5.568   0.825  0.00  0.00    +0.002 A 
ATOM     19  C   UNL     1       0.570   4.191   0.924  0.00  0.00    +0.023 A 
ATOM     20  C   UNL     1       1.124   3.429  -0.096  0.00  0.00    +0.033 A 
ATOM     21  C   UNL     1       1.666   4.055  -1.211  0.00  0.00    +0.023 A 
ATOM     22  C   UNL     1       1.643   5.433  -1.306  0.00  0.00    +0.002 A 
ENDBRANCH  15  20
ENDBRANCH  13  15
ENDBRANCH  11  13
ENDBRANCH  10  11
ENDBRANCH   1  10
BRANCH   7  23
ATOM     23  C   UNL     1      -3.917  -1.897  -1.030  0.00  0.00    -0.077 C 
BRANCH  23  37
ATOM     24  C   UNL     1      -5.069   0.027  -1.938  0.00  0.00    -0.074 C 
ATOM     25  C   UNL     1      -5.297   0.886  -3.172  0.00  0.00    -0.007 C 
ATOM     26  C   UNL     1      -5.828   0.042  -4.334  0.00  0.00    +0.011 C 
ATOM     27  C   UNL     1      -4.817  -1.083  -4.586  0.00  0.00    +0.020 C 
ATOM     28  C   UNL     1      -4.731  -1.940  -3.312  0.00  0.00    -0.069 C 
ATOM     29  C   UNL     1      -3.451  -0.480  -4.822  0.00  0.00    +0.023 A 
ATOM     30  C   UNL     1      -2.577  -1.190  -5.584  0.00  0.00    +0.022 A 
ATOM     31  C   UNL     1      -1.275  -0.725  -5.793  0.00  0.00    +0.007 A 
ATOM     32  C   UNL     1      -0.890   0.443  -5.202  0.00  0.00    +0.070 A 
ATOM     33  C   UNL     1      -1.816   1.151  -4.424  0.00  0.00    +0.251 A 
ATOM     34  O   UNL     1      -1.467   2.171  -3.851  0.00  0.00    -0.268 OA
ATOM     35  N   UNL     1      -3.095   0.716  -4.300  0.00  0.00    -0.312 N 
ATOM     36  C   UNL     1      -4.030   1.603  -3.607  0.00  0.00    +0.126 C 
ATOM     37  N   UNL     1      -4.154  -1.091  -2.245  0.00  0.00    +0.380 N 
ATOM     38  H   UNL     1      -3.258  -0.709  -2.571  0.00  0.00    -0.082 HD
ENDBRANCH  23  37
ENDBRANCH   7  23
TORSDOF 7
