REMARK  Name = ZINC14275036
REMARK  7 active torsions:
REMARK  status: ('A' for Active; 'I' for Inactive)
REMARK    1  A    between atoms: C_1  and  C_2
REMARK    2  A    between atoms: C_13  and  N_17
REMARK    3  A    between atoms: N_17  and  C_18
REMARK    4  A    between atoms: C_18  and  N_20
REMARK    5  A    between atoms: C_21  and  C_23
REMARK    6  A    between atoms: C_26  and  O_31
REMARK    7  A    between atoms: O_31  and  C_32
REMARK                            x       y       z     vdW  Elec       q    Type
REMARK                         _______ _______ _______ _____ _____    ______ ____
ROOT
ATOM      1  N   UNL     1       0.146  -9.025   4.501  0.00  0.00    -0.296 N 
ATOM      2  H   UNL     1      -0.569  -9.671   4.394  0.00  0.00    +0.154 HD
ENDROOT
BRANCH   1  15
ATOM      3  C   UNL     1      -0.041   1.520   0.052  0.00  0.00    +0.044 C 
ATOM      4  C   UNL     1      -0.019   0.013   0.037  0.00  0.00    -0.047 A 
ATOM      5  C   UNL     1      -0.019  -0.664  -1.170  0.00  0.00    +0.005 A 
ATOM      6  C   UNL     1       0.001  -2.045  -1.193  0.00  0.00    +0.027 A 
ATOM      7  C   UNL     1       0.021  -2.753  -0.001  0.00  0.00    +0.076 A 
ATOM      8  C   UNL     1       0.021  -2.071   1.217  0.00  0.00    +0.151 A 
ATOM      9  C   UNL     1       0.006  -0.684   1.228  0.00  0.00    +0.051 A 
ATOM     10  O   UNL     1       0.043  -3.003   2.199  0.00  0.00    -0.439 OA
ATOM     11  C   UNL     1       0.056  -4.224   1.648  0.00  0.00    +0.202 C 
ATOM     12  C   UNL     1       0.079  -5.441   2.362  0.00  0.00    +0.079 C 
ATOM     13  C   UNL     1       0.085  -5.437   3.768  0.00  0.00    +0.018 C 
ATOM     14  C   UNL     1       0.107  -6.611   4.455  0.00  0.00    +0.024 C 
ATOM     15  C   UNL     1       0.124  -7.835   3.777  0.00  0.00    +0.036 C 
ATOM     16  C   UNL     1       0.119  -7.872   2.395  0.00  0.00    +0.074 C 
ATOM     17  C   UNL     1       0.090  -6.678   1.667  0.00  0.00    +0.193 C 
ATOM     18  O   UNL     1       0.081  -6.700   0.442  0.00  0.00    -0.287 OA
ATOM     19  N   UNL     1       0.043  -4.110   0.304  0.00  0.00    -0.282 N 
ATOM     20  H   UNL     1       0.048  -4.841  -0.333  0.00  0.00    +0.155 HD
ENDBRANCH   1  15
BRANCH   1  21
ATOM     21  C   UNL     1       1.162  -9.278   5.350  0.00  0.00    +0.141 C 
ATOM     22  S   UNL     1       2.361  -8.088   5.630  0.00  0.00    -0.018 S 
BRANCH  21  23
ATOM     23  N   UNL     1       1.234 -10.468   5.978  0.00  0.00    -0.263 N 
ATOM     24  C   UNL     1       2.250 -10.722   6.827  0.00  0.00    +0.255 C 
ATOM     25  O   UNL     1       3.101  -9.877   7.026  0.00  0.00    -0.270 OA
ATOM     26  H   UNL     1       0.555 -11.142   5.819  0.00  0.00    +0.157 HD
BRANCH  24  27
ATOM     27  C   UNL     1       2.328 -12.022   7.513  0.00  0.00    +0.113 A 
ATOM     28  C   UNL     1       3.026 -13.085   6.926  0.00  0.00    +0.177 A 
ATOM     29  C   UNL     1       3.097 -14.303   7.575  0.00  0.00    +0.204 A 
ATOM     30  C   UNL     1       2.476 -14.474   8.807  0.00  0.00    +0.196 A 
ATOM     31  C   UNL     1       1.782 -13.422   9.394  0.00  0.00    +0.204 A 
ATOM     32  C   UNL     1       1.710 -12.198   8.758  0.00  0.00    +0.177 A 
ATOM     33  F   UNL     1       1.040 -11.175   9.332  0.00  0.00    -0.201 F 
ATOM     34  F   UNL     1       1.181 -13.595  10.592  0.00  0.00    -0.198 F 
ATOM     35  F   UNL     1       3.769 -15.330   7.010  0.00  0.00    -0.198 F 
ATOM     36  F   UNL     1       3.629 -12.921   5.729  0.00  0.00    -0.201 F 
BRANCH  30  37
ATOM     37  O   UNL     1       2.548 -15.674   9.440  0.00  0.00    -0.489 OA
ATOM     38  C   UNL     1       3.648 -15.872  10.331  0.00  0.00    +0.277 C 
ENDBRANCH  30  37
ENDBRANCH  24  27
ENDBRANCH  21  23
ENDBRANCH   1  21
TORSDOF 5
