REMARK  Name = ZINC13096910
REMARK  9 active torsions:
REMARK  status: ('A' for Active; 'I' for Inactive)
REMARK    1  A    between atoms: C_1  and  N_2
REMARK    2  A    between atoms: N_2  and  C_3
REMARK    3  A    between atoms: C_3  and  C_4
REMARK    4  A    between atoms: N_6  and  C_7
REMARK    5  A    between atoms: C_14  and  C_16
REMARK    6  A    between atoms: C_21  and  S_22
REMARK    7  A    between atoms: S_22  and  C_23
REMARK    8  A    between atoms: C_23  and  C_24
REMARK    9  A    between atoms: N_26  and  C_27
REMARK                            x       y       z     vdW  Elec       q    Type
REMARK                         _______ _______ _______ _____ _____    ______ ____
ROOT
ATOM      1  C   UNL     1      -0.270   1.239  -4.265  0.00  0.00    +0.050 A 
ATOM      2  C   UNL     1       0.111   0.329  -5.255  0.00  0.00    +0.014 A 
ATOM      3  C   UNL     1       1.259  -0.415  -5.099  0.00  0.00    +0.001 A 
ATOM      4  C   UNL     1       2.043  -0.266  -3.965  0.00  0.00    +0.001 A 
ATOM      5  C   UNL     1       1.684   0.632  -2.982  0.00  0.00    +0.015 A 
ATOM      6  C   UNL     1       0.525   1.387  -3.117  0.00  0.00    +0.020 A 
ENDROOT
BRANCH   1   9
ATOM      7  C   UNL     1      -1.144   1.998  -6.836  0.00  0.00    +0.133 C 
ATOM      8  N   UNL     1      -1.885   2.440  -5.652  0.00  0.00    -0.292 N 
ATOM      9  C   UNL     1      -1.498   2.038  -4.425  0.00  0.00    +0.248 C 
ATOM     10  O   UNL     1      -2.162   2.335  -3.450  0.00  0.00    -0.270 OA
BRANCH   8  11
ATOM     11  C   UNL     1      -3.047   3.320  -5.802  0.00  0.00    +0.203 C 
BRANCH  11  12
ATOM     12  C   UNL     1      -2.599   4.758  -5.748  0.00  0.00    +0.235 C 
ATOM     13  O   UNL     1      -1.425   5.022  -5.599  0.00  0.00    -0.274 OA
ATOM     14  N   UNL     1      -3.503   5.750  -5.865  0.00  0.00    -0.284 N 
ATOM     15  H   UNL     1      -4.431   5.541  -6.057  0.00  0.00    +0.155 HD
BRANCH  14  16
ATOM     16  C   UNL     1      -3.104   7.083  -5.710  0.00  0.00    +0.034 A 
ATOM     17  C   UNL     1      -3.961   8.001  -5.117  0.00  0.00    +0.025 A 
ATOM     18  C   UNL     1      -3.562   9.314  -4.961  0.00  0.00    +0.022 A 
ATOM     19  C   UNL     1      -2.315   9.717  -5.404  0.00  0.00    +0.041 A 
ATOM     20  C   UNL     1      -1.461   8.805  -6.000  0.00  0.00    +0.022 A 
ATOM     21  C   UNL     1      -1.853   7.490  -6.154  0.00  0.00    +0.025 A 
ATOM     22 CL   UNL     1      -1.819  11.370  -5.212  0.00  0.00    -0.084 Cl
ENDBRANCH  14  16
ENDBRANCH  11  12
ENDBRANCH   8  11
ENDBRANCH   1   9
BRANCH   6  23
ATOM     23  S   UNL     1       0.060   2.530  -1.859  0.00  0.00    -0.115 S 
BRANCH  23  24
ATOM     24  C   UNL     1       1.368   2.366  -0.613  0.00  0.00    +0.170 C 
BRANCH  24  25
ATOM     25  C   UNL     1       1.088   3.303   0.534  0.00  0.00    +0.224 C 
ATOM     26  O   UNL     1       0.104   4.011   0.513  0.00  0.00    -0.275 OA
ATOM     27  N   UNL     1       1.932   3.353   1.584  0.00  0.00    -0.309 N 
ATOM     28  H   UNL     1       2.719   2.787   1.601  0.00  0.00    +0.149 HD
BRANCH  27  29
ATOM     29  C   UNL     1       1.660   4.264   2.699  0.00  0.00    +0.035 C 
ATOM     30  C   UNL     1       1.624   5.704   2.185  0.00  0.00    +0.029 C 
ATOM     31  C   UNL     1       1.340   6.655   3.349  0.00  0.00    -0.008 C 
ATOM     32  C   UNL     1       2.443   6.517   4.401  0.00  0.00    +0.007 C 
ATOM     33  C   UNL     1       2.479   5.076   4.915  0.00  0.00    -0.008 C 
ATOM     34  C   UNL     1       2.763   4.125   3.751  0.00  0.00    +0.029 C 
ATOM     35  C   UNL     1       1.129   4.725   5.543  0.00  0.00    +0.007 C 
ATOM     36  C   UNL     1       0.026   4.863   4.492  0.00  0.00    -0.008 C 
ATOM     37  C   UNL     1      -0.010   6.303   3.977  0.00  0.00    +0.007 C 
ATOM     38  C   UNL     1       0.310   3.912   3.327  0.00  0.00    +0.029 C 
ENDBRANCH  27  29
ENDBRANCH  24  25
ENDBRANCH  23  24
ENDBRANCH   6  23
TORSDOF 8
