REMARK  Name = ZINC23506706
REMARK  10 active torsions:
REMARK  status: ('A' for Active; 'I' for Inactive)
REMARK    1  A    between atoms: C_1  and  C_2
REMARK    2  A    between atoms: C_5  and  S_11
REMARK    3  A    between atoms: C_7  and  N_8
REMARK    4  A    between atoms: S_11  and  N_14
REMARK    5  A    between atoms: N_14  and  C_15
REMARK    6  A    between atoms: C_18  and  C_21
REMARK    7  A    between atoms: N_23  and  C_24
REMARK    8  A    between atoms: N_23  and  C_25
REMARK    9  A    between atoms: C_25  and  C_27
REMARK   10  A    between atoms: C_25  and  C_28
REMARK                            x       y       z     vdW  Elec       q    Type
REMARK                         _______ _______ _______ _____ _____    ______ ____
ROOT
ATOM      1  C   UNL     1       2.266   1.583  -0.469  0.00  0.00    +0.074 A 
ATOM      2  C   UNL     1       3.358   0.751  -0.701  0.00  0.00    +0.027 A 
ATOM      3  C   UNL     1       4.635   1.264  -0.669  0.00  0.00    +0.015 A 
ATOM      4  C   UNL     1       4.835   2.619  -0.391  0.00  0.00    +0.037 A 
ATOM      5  C   UNL     1       3.737   3.451  -0.152  0.00  0.00    +0.015 A 
ATOM      6  C   UNL     1       2.463   2.933  -0.192  0.00  0.00    +0.027 A 
ENDROOT
BRANCH   4   7
ATOM      7  C   UNL     1       6.203   3.170  -0.349  0.00  0.00    +0.247 C 
ATOM      8  O   UNL     1       6.452   4.221  -0.907  0.00  0.00    -0.270 OA
ATOM      9  N   UNL     1       7.176   2.509   0.307  0.00  0.00    -0.294 N 
ATOM     10  C   UNL     1       6.899   1.199   0.903  0.00  0.00    +0.133 C 
BRANCH   9  11
ATOM     11  C   UNL     1       8.512   3.099   0.425  0.00  0.00    +0.103 C 
ATOM     12  C   UNL     1       8.920   3.147   1.899  0.00  0.00    +0.033 C 
BRANCH  11  13
ATOM     13  C   UNL     1       9.501   2.260  -0.343  0.00  0.00    -0.024 A 
ATOM     14  C   UNL     1       9.603   0.905  -0.088  0.00  0.00    +0.008 A 
ATOM     15  C   UNL     1      10.506   0.133  -0.794  0.00  0.00    +0.041 A 
ATOM     16  C   UNL     1      11.318   0.719  -1.750  0.00  0.00    +0.158 A 
ATOM     17  C   UNL     1      11.220   2.079  -2.002  0.00  0.00    +0.159 A 
ATOM     18  C   UNL     1      10.310   2.848  -1.297  0.00  0.00    +0.046 A 
ATOM     19  F   UNL     1      12.011   2.653  -2.934  0.00  0.00    -0.202 F 
ATOM     20  F   UNL     1      12.204  -0.034  -2.437  0.00  0.00    -0.202 F 
ENDBRANCH  11  13
ENDBRANCH   9  11
ENDBRANCH   4   7
BRANCH   1  21
ATOM     21  N   UNL     1       0.977   1.064  -0.508  0.00  0.00    -0.098 NA
BRANCH  21  22
ATOM     22  S   UNL     1       0.525   0.062  -1.747  0.00  0.00    +0.092 S 
ATOM     23  O   UNL     1       1.510  -0.959  -1.823  0.00  0.00    -0.148 OA
ATOM     24  O   UNL     1      -0.854  -0.222  -1.557  0.00  0.00    -0.148 OA
BRANCH  22  29
ATOM     25  C   UNL     1       0.941   3.245  -6.856  0.00  0.00    +0.046 C 
ATOM     26  C   UNL     1       0.837   2.450  -5.580  0.00  0.00    -0.020 A 
ATOM     27  C   UNL     1      -0.309   2.524  -4.811  0.00  0.00    +0.007 A 
ATOM     28  C   UNL     1      -0.407   1.791  -3.643  0.00  0.00    +0.029 A 
ATOM     29  C   UNL     1       0.647   0.992  -3.239  0.00  0.00    +0.113 A 
ATOM     30  C   UNL     1       1.793   0.918  -4.008  0.00  0.00    +0.061 A 
ATOM     31  C   UNL     1       1.888   1.647  -5.179  0.00  0.00    +0.131 A 
BRANCH  31  32
ATOM     32  N   UNL     1       3.115   1.567  -6.003  0.00  0.00    +0.057 N 
ATOM     33  O   UNL     1       4.083   0.951  -5.595  0.00  0.00    -0.126 OA
ATOM     34  O   UNL     1       3.157   2.118  -7.088  0.00  0.00    -0.126 OA
ENDBRANCH  31  32
ENDBRANCH  22  29
ENDBRANCH  21  22
ENDBRANCH   1  21
TORSDOF 7
