REMARK  Name = ZINC66919176
REMARK  11 active torsions:
REMARK  status: ('A' for Active; 'I' for Inactive)
REMARK    1  A    between atoms: C_1  and  C_2
REMARK    2  A    between atoms: N_5  and  C_11
REMARK    3  A    between atoms: C_7  and  C_10
REMARK    4  A    between atoms: C_11  and  C_13
REMARK    5  A    between atoms: C_11  and  C_16
REMARK    6  A    between atoms: C_13  and  C_14
REMARK    7  A    between atoms: C_13  and  C_15
REMARK    8  A    between atoms: N_18  and  C_19
REMARK    9  A    between atoms: C_22  and  N_25
REMARK   10  A    between atoms: C_26  and  O_28
REMARK   11  A    between atoms: O_28  and  C_29
REMARK                            x       y       z     vdW  Elec       q    Type
REMARK                         _______ _______ _______ _____ _____    ______ ____
ROOT
ATOM      1  C   UNL     1      -3.314  -2.732   1.085  0.00  0.00    +0.235 C 
ATOM      2  O   UNL     1      -2.659  -2.342   2.029  0.00  0.00    -0.274 OA
ATOM      3  N   UNL     1      -4.656  -2.813   1.182  0.00  0.00    -0.284 N 
ATOM      4  H   UNL     1      -5.181  -3.103   0.420  0.00  0.00    +0.155 HD
ENDROOT
BRANCH   3   5
ATOM      5  C   UNL     1      -5.292  -2.478   2.385  0.00  0.00    +0.034 A 
ATOM      6  C   UNL     1      -4.774  -1.469   3.187  0.00  0.00    +0.025 A 
ATOM      7  C   UNL     1      -5.402  -1.139   4.371  0.00  0.00    +0.025 A 
ATOM      8  C   UNL     1      -6.550  -1.815   4.761  0.00  0.00    +0.037 A 
ATOM      9  C   UNL     1      -7.067  -2.824   3.959  0.00  0.00    +0.025 A 
ATOM     10  C   UNL     1      -6.443  -3.151   2.772  0.00  0.00    +0.025 A 
BRANCH   8  11
ATOM     11  N   UNL     1      -7.186  -1.481   5.964  0.00  0.00    -0.251 N 
ATOM     12  C   UNL     1      -7.825  -2.430   6.675  0.00  0.00    +0.404 C 
ATOM     13  O   UNL     1      -7.766  -3.593   6.327  0.00  0.00    -0.226 OA
ATOM     14  H   UNL     1      -7.167  -0.565   6.284  0.00  0.00    +0.158 HD
BRANCH  12  15
ATOM     15  O   UNL     1      -8.527  -2.091   7.773  0.00  0.00    -0.453 OA
ATOM     16  C   UNL     1      -9.179  -3.149   8.479  0.00  0.00    +0.282 C 
ENDBRANCH  12  15
ENDBRANCH   8  11
ENDBRANCH   3   5
BRANCH   1  17
ATOM     17  C   UNL     1      -2.627  -3.126  -0.197  0.00  0.00    +0.146 C 
BRANCH  17  21
ATOM     18  C   UNL     1       0.656   0.524   0.148  0.00  0.00    +0.039 C 
ATOM     19  C   UNL     1       0.467  -0.985  -0.018  0.00  0.00    +0.130 C 
ATOM     20  C   UNL     1      -1.028  -1.313  -0.037  0.00  0.00    +0.116 C 
ATOM     21  N   UNL     1      -1.204  -2.771  -0.119  0.00  0.00    -0.286 NA
ATOM     22  C   UNL     1      -0.555  -3.438   1.019  0.00  0.00    +0.116 C 
ATOM     23  C   UNL     1       0.935  -3.088   1.027  0.00  0.00    +0.130 C 
ATOM     24  O   UNL     1       1.087  -1.667   1.075  0.00  0.00    -0.371 OA
ATOM     25  C   UNL     1       1.600  -3.716   2.254  0.00  0.00    +0.039 C 
ENDBRANCH  17  21
BRANCH  17  26
ATOM     26  C   UNL     1      -2.764  -4.636  -0.407  0.00  0.00    +0.009 C 
ATOM     27  C   UNL     1      -4.234  -4.985  -0.647  0.00  0.00    +0.009 C 
ATOM     28  C   UNL     1      -1.934  -5.060  -1.619  0.00  0.00    +0.009 C 
ENDBRANCH  17  26
ENDBRANCH   1  17
TORSDOF 6
