REMARK  Name = ZINC45350340
REMARK  12 active torsions:
REMARK  status: ('A' for Active; 'I' for Inactive)
REMARK    1  A    between atoms: C_1  and  C_2
REMARK    2  A    between atoms: N_8  and  C_9
REMARK    3  A    between atoms: C_9  and  C_10
REMARK    4  A    between atoms: C_11  and  C_15
REMARK    5  A    between atoms: C_18  and  C_21
REMARK    6  A    between atoms: C_21  and  CA_22
REMARK    7  A    between atoms: CA_22  and  C_24
REMARK    8  A    between atoms: CA_22  and  N_27
REMARK    9  A    between atoms: C_28  and  C_30
REMARK   10  A    between atoms: C_31  and  C_38
REMARK   11  A    between atoms: C_33  and  C_37
REMARK   12  A    between atoms: C_35  and  C_36
REMARK                            x       y       z     vdW  Elec       q    Type
REMARK                         _______ _______ _______ _____ _____    ______ ____
ROOT
ATOM      1  C   UNL     1       3.274  -3.182   5.342  0.00  0.00    -0.017 A 
ATOM      2  C   UNL     1       3.423  -3.261   3.959  0.00  0.00    +0.009 A 
ATOM      3  C   UNL     1       4.682  -3.195   3.398  0.00  0.00    +0.004 A 
ATOM      4  C   UNL     1       5.795  -3.050   4.207  0.00  0.00    -0.045 A 
ATOM      5  C   UNL     1       5.653  -2.972   5.581  0.00  0.00    +0.004 A 
ATOM      6  C   UNL     1       4.398  -3.031   6.152  0.00  0.00    +0.009 A 
ENDROOT
BRANCH   1   8
ATOM      7  C   UNL     1       1.102  -4.319   5.710  0.00  0.00    +0.014 A 
ATOM      8  C   UNL     1       1.922  -3.253   5.951  0.00  0.00    -0.006 A 
ATOM      9  C   UNL     1       1.461  -2.235   6.780  0.00  0.00    +0.016 A 
ATOM     10  C   UNL     1       0.224  -2.335   7.316  0.00  0.00    +0.046 A 
ATOM     11  S   UNL     1      -0.350  -3.891   6.656  0.00  0.00    -0.099 S 
BRANCH   7  12
ATOM     12  C   UNL     1       1.355  -5.538   4.861  0.00  0.00    +0.146 C 
BRANCH  12  20
ATOM     13  C   UNL     1       2.609  -9.305   1.616  0.00  0.00    +0.044 C 
ATOM     14  C   UNL     1       2.767  -9.076   3.097  0.00  0.00    -0.046 A 
ATOM     15  C   UNL     1       3.346 -10.043   3.907  0.00  0.00    +0.021 A 
ATOM     16  C   UNL     1       3.478  -9.802   5.260  0.00  0.00    +0.084 A 
ATOM     17  N   UNL     1       3.060  -8.668   5.789  0.00  0.00    -0.350 N 
ATOM     18  C   UNL     1       2.502  -7.721   5.050  0.00  0.00    +0.097 A 
ATOM     19  C   UNL     1       2.344  -7.895   3.679  0.00  0.00    +0.045 A 
ATOM     20  N   UNL     1       2.076  -6.542   5.649  0.00  0.00    -0.326 N 
ATOM     21  H   UNL     1       2.255  -6.382   6.589  0.00  0.00    +0.148 HD
ATOM     22  H   UNL     1       3.164  -8.524   6.742  0.00  0.00    +0.166 HD
ENDBRANCH  12  20
ENDBRANCH   7  12
ENDBRANCH   1   8
BRANCH   4  23
ATOM     23  C   UNL     1       7.168  -2.979   3.589  0.00  0.00    +0.069 C 
BRANCH  23  24
ATOM     24  CA  UNL     1       7.571  -1.514   3.409  0.00  0.00    +0.191 C 
BRANCH  24  25
ATOM     25  N   UNL     1       6.681  -0.879   2.433  0.00  0.00    -0.298 N 
ATOM     26  C   UNL     1       6.510   0.458   2.447  0.00  0.00    +0.245 C 
ATOM     27  O   UNL     1       7.166   1.147   3.204  0.00  0.00    -0.270 OA
ATOM     28  H   UNL     1       6.216  -1.421   1.777  0.00  0.00    +0.150 HD
BRANCH  26  29
ATOM     29  C   UNL     1       5.525   1.086   1.541  0.00  0.00    +0.043 A 
ATOM     30  C   UNL     1       4.233   1.361   1.993  0.00  0.00    -0.038 A 
ATOM     31  C   UNL     1       3.318   1.948   1.143  0.00  0.00    +0.007 A 
ATOM     32  C   UNL     1       3.679   2.263  -0.154  0.00  0.00    -0.050 A 
ATOM     33  C   UNL     1       4.958   1.993  -0.609  0.00  0.00    +0.007 A 
ATOM     34  C   UNL     1       5.884   1.412   0.233  0.00  0.00    -0.038 A 
ATOM     35  C   UNL     1       7.278   1.125  -0.262  0.00  0.00    +0.044 C 
ATOM     36  C   UNL     1       2.675   2.904  -1.077  0.00  0.00    +0.044 C 
ATOM     37  C   UNL     1       3.838   1.017   3.406  0.00  0.00    +0.044 C 
ENDBRANCH  26  29
ENDBRANCH  24  25
BRANCH  24  38
ATOM     38  C   UNL     1       8.992  -1.440   2.916  0.00  0.00    +0.376 C 
ATOM     39  O   UNL     1       9.223  -1.438   1.718  0.00  0.00    -0.244 OA
ATOM     40  OXT UNL     1       9.913  -1.383   3.713  0.00  0.00    -0.244 OA
ENDBRANCH  24  38
ENDBRANCH  23  24
ENDBRANCH   4  23
TORSDOF 8
