REMARK  Name = ZINC39674637
REMARK  7 active torsions:
REMARK  status: ('A' for Active; 'I' for Inactive)
REMARK    1  A    between atoms: C_1  and  C_2
REMARK    2  A    between atoms: C_4  and  C_14
REMARK    3  A    between atoms: C_7  and  C_12
REMARK    4  A    between atoms: C_14  and  C_15
REMARK    5  A    between atoms: C_15  and  N_16
REMARK    6  A    between atoms: C_17  and  C_19
REMARK    7  A    between atoms: C_30  and  C_32
REMARK                            x       y       z     vdW  Elec       q    Type
REMARK                         _______ _______ _______ _____ _____    ______ ____
ROOT
ATOM      1  C   UNL     1       1.375  -1.007  -7.406  0.00  0.00    +0.100 C 
ATOM      2  C   UNL     1       0.059  -1.740  -7.748  0.00  0.00    +0.121 C 
ATOM      3  N   UNL     1       0.251  -2.227  -9.134  0.00  0.00    -0.296 N 
ATOM      4  C   UNL     1       1.663  -2.675  -9.175  0.00  0.00    +0.115 C 
ATOM      5  C   UNL     1       2.426  -1.624  -8.344  0.00  0.00    -0.004 C 
ATOM      6  C   UNL     1       3.531  -2.295  -7.533  0.00  0.00    -0.010 C 
ATOM      7  C   UNL     1       4.593  -2.849  -8.486  0.00  0.00    -0.082 C 
ATOM      8  N   UNL     1       5.147  -1.756  -9.294  0.00  0.00    +0.379 N 
ATOM      9  C   UNL     1       4.096  -1.178 -10.141  0.00  0.00    -0.082 C 
ATOM     10  C   UNL     1       3.013  -0.552  -9.258  0.00  0.00    -0.010 C 
ATOM     11  C   UNL     1      -0.654  -2.256 -10.132  0.00  0.00    +0.252 C 
ATOM     12  O   UNL     1      -0.342  -2.690 -11.224  0.00  0.00    -0.270 OA
ATOM     13  H   UNL     1       5.516  -1.042  -8.684  0.00  0.00    -0.086 HD
ATOM     14  H   UNL     1       5.888  -2.113  -9.877  0.00  0.00    -0.086 HD
ENDROOT
BRANCH  11  15
ATOM     15  C   UNL     1      -2.025  -1.761  -9.900  0.00  0.00    +0.107 A 
ATOM     16  C   UNL     1      -2.338  -0.418 -10.137  0.00  0.00    +0.138 A 
ATOM     17  C   UNL     1      -3.624   0.036  -9.917  0.00  0.00    +0.039 A 
ATOM     18  C   UNL     1      -4.601  -0.831  -9.463  0.00  0.00    +0.006 A 
ATOM     19  C   UNL     1      -4.300  -2.160  -9.226  0.00  0.00    +0.039 A 
ATOM     20  C   UNL     1      -3.021  -2.634  -9.447  0.00  0.00    +0.138 A 
ATOM     21  F   UNL     1      -2.730  -3.933  -9.219  0.00  0.00    -0.205 F 
ATOM     22  F   UNL     1      -1.385   0.431 -10.579  0.00  0.00    -0.205 F 
ENDBRANCH  11  15
BRANCH   1  24
ATOM     23  N   UNL     1       2.466  -0.325  -5.293  0.00  0.00    -0.315 N 
ATOM     24  C   UNL     1       1.751  -1.248  -5.966  0.00  0.00    +0.218 C 
ATOM     25  O   UNL     1       1.411  -2.273  -5.414  0.00  0.00    -0.275 OA
ATOM     26  H   UNL     1       2.739   0.494  -5.735  0.00  0.00    +0.149 HD
BRANCH  23  27
ATOM     27  C   UNL     1       2.832  -0.559  -3.894  0.00  0.00    +0.108 C 
BRANCH  27  28
ATOM     28  C   UNL     1       3.635   0.633  -3.370  0.00  0.00    +0.052 C 
BRANCH  28  31
ATOM     29  C   UNL     1       6.201   1.542  -1.612  0.00  0.00    +0.035 C 
ATOM     30  C   UNL     1       4.804   1.313  -1.032  0.00  0.00    +0.103 C 
ATOM     31  C   UNL     1       4.011   0.392  -1.931  0.00  0.00    -0.037 C 
ATOM     32  C   UNL     1       3.707  -0.696  -1.179  0.00  0.00    +0.000 A 
ATOM     33  C   UNL     1       2.986  -1.882  -1.477  0.00  0.00    +0.028 A 
ATOM     34  C   UNL     1       2.818  -2.849  -0.513  0.00  0.00    +0.052 A 
ATOM     35  C   UNL     1       3.371  -2.686   0.827  0.00  0.00    +0.021 A 
ATOM     36  C   UNL     1       4.065  -1.581   1.167  0.00  0.00    +0.027 A 
ATOM     37  C   UNL     1       4.272  -0.518   0.177  0.00  0.00    +0.043 A 
ATOM     38  N   UNL     1       4.899   0.631   0.263  0.00  0.00    -0.378 N 
ATOM     39  H   UNL     1       5.351   0.973   1.050  0.00  0.00    +0.160 HD
BRANCH  34  40
ATOM     40  C   UNL     1       2.087  -4.039  -0.832  0.00  0.00    +0.099 C 
ATOM     41  N   UNL     1       1.508  -4.983  -1.084  0.00  0.00    -0.191 NA
ENDBRANCH  34  40
ENDBRANCH  28  31
ENDBRANCH  27  28
ENDBRANCH  23  27
ENDBRANCH   1  24
TORSDOF 6
