REMARK  Name = ZINC22068798
REMARK  12 active torsions:
REMARK  status: ('A' for Active; 'I' for Inactive)
REMARK    1  A    between atoms: C_1  and  C_2
REMARK    2  A    between atoms: C_2  and  C_4
REMARK    3  A    between atoms: C_2  and  O_14
REMARK    4  A    between atoms: N_6  and  C_7
REMARK    5  A    between atoms: C_7  and  C_8
REMARK    6  A    between atoms: C_7  and  C_9
REMARK    7  A    between atoms: C_7  and  C_11
REMARK    8  A    between atoms: C_11  and  C_12
REMARK    9  A    between atoms: C_11  and  C_13
REMARK   10  A    between atoms: O_14  and  C_15
REMARK   11  A    between atoms: C_15  and  C_17
REMARK   12  A    between atoms: C_19  and  C_23
REMARK                            x       y       z     vdW  Elec       q    Type
REMARK                         _______ _______ _______ _____ _____    ______ ____
ROOT
ATOM      1  C   UNL     1       2.024  -0.663   1.045  0.00  0.00    +0.358 C 
ATOM      2  O   UNL     1       2.581  -0.429  -0.009  0.00  0.00    -0.243 OA
ENDROOT
BRANCH   1   3
ATOM      3  C   UNL     1       2.800  -1.148   2.196  0.00  0.00    +0.143 A 
ATOM      4  C   UNL     1       4.162  -1.381   2.236  0.00  0.00    +0.064 A 
ATOM      5  C   UNL     1       4.423  -1.831   3.543  0.00  0.00    +0.093 A 
ATOM      6  N   UNL     1       3.279  -1.849   4.193  0.00  0.00    -0.173 NA
ATOM      7  N   UNL     1       2.318  -1.453   3.438  0.00  0.00    -0.270 N 
ATOM      8  H   UNL     1       1.390  -1.382   3.709  0.00  0.00    +0.189 HD
BRANCH   5   9
ATOM      9  C   UNL     1       5.749  -2.216   4.089  0.00  0.00    +0.002 A 
ATOM     10  C   UNL     1       6.884  -2.144   3.285  0.00  0.00    +0.011 A 
ATOM     11  C   UNL     1       8.114  -2.503   3.798  0.00  0.00    +0.016 A 
ATOM     12  C   UNL     1       8.220  -2.936   5.108  0.00  0.00    +0.018 A 
ATOM     13  C   UNL     1       7.095  -3.010   5.911  0.00  0.00    +0.016 A 
ATOM     14  C   UNL     1       5.862  -2.647   5.410  0.00  0.00    +0.011 A 
ATOM     15 BR   UNL     1       9.908  -3.428   5.804  0.00  0.00    -0.050 Br
ENDBRANCH   5   9
ENDBRANCH   1   3
BRANCH   1  16
ATOM     16  O   UNL     1       0.693  -0.477   1.160  0.00  0.00    -0.448 OA
BRANCH  16  18
ATOM     17  C   UNL     1      -0.019   1.526   0.010  0.00  0.00    +0.062 C 
ATOM     18  C   UNL     1       0.002  -0.004   0.002  0.00  0.00    +0.259 C 
BRANCH  18  19
ATOM     19  C   UNL     1      -1.412  -0.526   0.013  0.00  0.00    +0.255 C 
ATOM     20  O   UNL     1      -1.818  -1.157   0.965  0.00  0.00    -0.272 OA
ATOM     21  N   UNL     1      -2.225  -0.290  -1.036  0.00  0.00    -0.294 N 
ATOM     22  H   UNL     1      -1.900   0.215  -1.798  0.00  0.00    +0.150 HD
BRANCH  21  23
ATOM     23  C   UNL     1      -3.599  -0.798  -1.026  0.00  0.00    +0.121 C 
ATOM     24  C   UNL     1      -4.353  -0.204   0.166  0.00  0.00    +0.048 C 
BRANCH  23  25
ATOM     25  C   UNL     1      -4.301  -0.395  -2.324  0.00  0.00    +0.020 C 
ATOM     26  C   UNL     1      -5.693  -1.029  -2.369  0.00  0.00    +0.010 C 
ATOM     27  C   UNL     1      -4.432   1.128  -2.382  0.00  0.00    +0.010 C 
ENDBRANCH  23  25
BRANCH  23  28
ATOM     28  C   UNL     1      -3.580  -2.265  -0.913  0.00  0.00    +0.088 C 
ATOM     29  N   UNL     1      -3.565  -3.398  -0.826  0.00  0.00    -0.194 NA
ENDBRANCH  23  28
ENDBRANCH  21  23
ENDBRANCH  18  19
ENDBRANCH  16  18
ENDBRANCH   1  16
TORSDOF 8
