REMARK  Name = ZINC25510896
REMARK  11 active torsions:
REMARK  status: ('A' for Active; 'I' for Inactive)
REMARK    1  A    between atoms: C_1  and  C_2
REMARK    2  A    between atoms: C_2  and  C_3
REMARK    3  A    between atoms: C_8  and  N_9
REMARK    4  A    between atoms: C_10  and  C_12
REMARK    5  A    between atoms: C_12  and  N_13
REMARK    6  A    between atoms: C_19  and  C_21
REMARK    7  A    between atoms: C_21  and  S_22
REMARK    8  A    between atoms: S_22  and  C_23
REMARK    9  A    between atoms: C_26  and  C_29
REMARK   10  A    between atoms: N_27  and  N_28
REMARK   11  A    between atoms: C_32  and  C_35
REMARK                            x       y       z     vdW  Elec       q    Type
REMARK                         _______ _______ _______ _____ _____    ______ ____
ROOT
ATOM      1  N   UNL     1       0.447  -0.242  -0.001  0.00  0.00    +0.387 N 
ATOM      2  C   UNL     1       0.848  -0.739  -1.324  0.00  0.00    -0.059 C 
ATOM      3  C   UNL     1       0.967  -2.266  -1.278  0.00  0.00    +0.089 C 
ATOM      4  N   UNL     1      -0.296  -2.817  -0.763  0.00  0.00    -0.304 N 
ATOM      5  C   UNL     1      -0.834  -2.271   0.491  0.00  0.00    +0.089 C 
ATOM      6  C   UNL     1      -0.881  -0.743   0.376  0.00  0.00    -0.059 C 
ATOM      7  C   UNL     1      -0.943  -3.797  -1.425  0.00  0.00    +0.226 C 
ATOM      8  O   UNL     1      -1.984  -4.240  -0.986  0.00  0.00    -0.275 OA
ATOM      9  H   UNL     1       1.170  -0.626   0.734  0.00  0.00    -0.081 HD
ENDROOT
BRANCH   1  10
ATOM     10  C   UNL     1       0.489   1.226   0.045  0.00  0.00    +0.019 C 
BRANCH  10  12
ATOM     11  N   UNL     1       2.196   3.010  -0.091  0.00  0.00    -0.287 N 
ATOM     12  C   UNL     1       1.914   1.693  -0.104  0.00  0.00    +0.201 C 
ATOM     13  O   UNL     1       2.807   0.882  -0.236  0.00  0.00    -0.278 OA
ATOM     14  H   UNL     1       1.396   3.742   0.094  0.00  0.00    +0.155 HD
BRANCH  11  20
ATOM     15  C   UNL     1       3.738   4.642  -0.982  0.00  0.00    -0.026 A 
ATOM     16  C   UNL     1       5.033   5.070  -1.200  0.00  0.00    +0.005 A 
ATOM     17  C   UNL     1       6.098   4.312  -0.750  0.00  0.00    +0.000 A 
ATOM     18  C   UNL     1       5.871   3.122  -0.082  0.00  0.00    +0.002 A 
ATOM     19  C   UNL     1       4.579   2.691   0.142  0.00  0.00    +0.023 A 
ATOM     20  C   UNL     1       3.507   3.447  -0.313  0.00  0.00    +0.036 A 
BRANCH  15  22
ATOM     21  C   UNL     1       2.081   6.371  -0.339  0.00  0.00    +0.009 C 
ATOM     22  C   UNL     1       2.577   5.469  -1.472  0.00  0.00    +0.033 C 
ENDBRANCH  15  22
ENDBRANCH  11  20
ENDBRANCH  10  12
ENDBRANCH   1  10
BRANCH   7  23
ATOM     23  C   UNL     1      -0.374  -4.343  -2.709  0.00  0.00    +0.173 C 
BRANCH  23  24
ATOM     24  S   UNL     1      -1.465  -5.638  -3.350  0.00  0.00    -0.075 S 
BRANCH  24  25
ATOM     25  C   UNL     1      -0.585  -6.084  -4.810  0.00  0.00    +0.209 A 
ATOM     26  N   UNL     1       0.542  -5.556  -5.232  0.00  0.00    -0.121 NA
ATOM     27  N   UNL     1       0.909  -6.119  -6.328  0.00  0.00    -0.127 NA
ATOM     28  C   UNL     1       0.034  -7.033  -6.677  0.00  0.00    +0.182 A 
ATOM     29  N   UNL     1      -0.950  -7.039  -5.715  0.00  0.00    -0.224 N 
BRANCH  28  30
ATOM     30  C   UNL     1       0.094  -7.893  -7.878  0.00  0.00    +0.021 A 
ATOM     31  C   UNL     1       1.299  -8.060  -8.561  0.00  0.00    +0.012 A 
ATOM     32  C   UNL     1       1.350  -8.869  -9.678  0.00  0.00    +0.004 A 
ATOM     33  C   UNL     1       0.206  -9.505 -10.127  0.00  0.00    -0.050 A 
ATOM     34  C   UNL     1      -0.994  -9.339  -9.458  0.00  0.00    +0.004 A 
ATOM     35  C   UNL     1      -1.056  -8.538  -8.337  0.00  0.00    +0.012 A 
ATOM     36  C   UNL     1       0.267 -10.382 -11.351  0.00  0.00    +0.044 C 
ENDBRANCH  28  30
BRANCH  29  37
ATOM     37  N   UNL     1      -2.059  -7.834  -5.675  0.00  0.00    -0.295 N 
ATOM     38  H   UNL     1      -2.239  -8.569  -6.473  0.00  0.00    +0.163 HD
ATOM     39  H   UNL     1      -2.774  -7.739  -4.843  0.00  0.00    +0.163 HD
ENDBRANCH  29  37
ENDBRANCH  24  25
ENDBRANCH  23  24
ENDBRANCH   7  23
TORSDOF 9
