REMARK  Name = ZINC08145689
REMARK  7 active torsions:
REMARK  status: ('A' for Active; 'I' for Inactive)
REMARK    1  A    between atoms: C_4  and  C_7
REMARK    2  A    between atoms: C_10  and  C_13
REMARK    3  A    between atoms: N_15  and  C_16
REMARK    4  A    between atoms: C_16  and  C_17
REMARK    5  A    between atoms: C_17  and  N_18
REMARK    6  A    between atoms: N_18  and  C_19
REMARK    7  A    between atoms: C_24  and  N_25
REMARK                            x       y       z     vdW  Elec       q    Type
REMARK                         _______ _______ _______ _____ _____    ______ ____
ROOT
ATOM      1  C   UNL     1      -0.011   1.198  -0.131  0.00  0.00    +0.244 C 
ATOM      2  O   UNL     1       0.002  -0.002   0.067  0.00  0.00    -0.270 OA
ATOM      3  N   UNL     1       1.148   1.884  -0.186  0.00  0.00    -0.310 N 
ATOM      4  H   UNL     1       1.137   2.841  -0.344  0.00  0.00    +0.149 HD
ENDROOT
BRANCH   1   8
ATOM      5  C   UNL     1      -3.708   3.224  -0.666  0.00  0.00    -0.018 A 
ATOM      6  C   UNL     1      -3.694   1.847  -0.439  0.00  0.00    +0.009 A 
ATOM      7  C   UNL     1      -2.497   1.190  -0.265  0.00  0.00    +0.013 A 
ATOM      8  C   UNL     1      -1.296   1.902  -0.317  0.00  0.00    +0.037 A 
ATOM      9  C   UNL     1      -1.312   3.281  -0.538  0.00  0.00    +0.013 A 
ATOM     10  C   UNL     1      -2.510   3.936  -0.717  0.00  0.00    +0.009 A 
BRANCH   5  14
ATOM     11  C   UNL     1      -7.407   5.250  -1.201  0.00  0.00    +0.000 A 
ATOM     12  C   UNL     1      -6.220   5.958  -1.252  0.00  0.00    +0.001 A 
ATOM     13  C   UNL     1      -5.016   5.306  -1.080  0.00  0.00    +0.008 A 
ATOM     14  C   UNL     1      -4.999   3.930  -0.852  0.00  0.00    -0.018 A 
ATOM     15  C   UNL     1      -6.198   3.221  -0.807  0.00  0.00    +0.008 A 
ATOM     16  C   UNL     1      -7.396   3.885  -0.976  0.00  0.00    +0.001 A 
ENDBRANCH   5  14
ENDBRANCH   1   8
BRANCH   3  17
ATOM     17  C   UNL     1       2.422   1.185  -0.008  0.00  0.00    +0.123 C 
BRANCH  17  18
ATOM     18  C   UNL     1       3.573   2.187  -0.116  0.00  0.00    +0.120 C 
BRANCH  18  19
ATOM     19  N   UNL     1       4.848   1.488   0.063  0.00  0.00    -0.341 N 
ATOM     20  H   UNL     1       4.859   0.531   0.220  0.00  0.00    +0.146 HD
BRANCH  19  21
ATOM     21  C   UNL     1       6.049   2.199   0.005  0.00  0.00    +0.058 A 
ATOM     22  C   UNL     1       6.033   3.584  -0.098  0.00  0.00    +0.025 A 
ATOM     23  C   UNL     1       7.222   4.285  -0.148  0.00  0.00    +0.002 A 
ATOM     24  C   UNL     1       8.428   3.608  -0.108  0.00  0.00    +0.002 A 
ATOM     25  C   UNL     1       8.447   2.229  -0.011  0.00  0.00    +0.034 A 
ATOM     26  C   UNL     1       7.261   1.523   0.046  0.00  0.00    +0.147 A 
BRANCH  26  27
ATOM     27  N   UNL     1       7.283   0.046   0.149  0.00  0.00    +0.058 N 
ATOM     28  O   UNL     1       8.134  -0.505   0.824  0.00  0.00    -0.126 OA
ATOM     29  O   UNL     1       6.449  -0.618  -0.441  0.00  0.00    -0.126 OA
ENDBRANCH  26  27
ENDBRANCH  19  21
ENDBRANCH  18  19
ENDBRANCH  17  18
ENDBRANCH   3  17
TORSDOF 7
