REMARK  Name = ZINC63363061
REMARK  7 active torsions:
REMARK  status: ('A' for Active; 'I' for Inactive)
REMARK    1  A    between atoms: C_1  and  C_2
REMARK    2  A    between atoms: C_4  and  C_36
REMARK    3  A    between atoms: C_5  and  N_9
REMARK    4  A    between atoms: C_6  and  C_8
REMARK    5  A    between atoms: C_12  and  C_19
REMARK    6  A    between atoms: C_26  and  O_31
REMARK    7  A    between atoms: O_31  and  C_32
REMARK                            x       y       z     vdW  Elec       q    Type
REMARK                         _______ _______ _______ _____ _____    ______ ____
ROOT
ATOM      1  N   UNL     1       0.060  -4.174   0.045  0.00  0.00    -0.228 N 
ATOM      2  C   UNL     1      -1.101  -4.858   0.043  0.00  0.00    +0.270 A 
ATOM      3  O   UNL     1      -2.164  -4.264   0.106  0.00  0.00    -0.267 OA
ATOM      4  C   UNL     1      -1.079  -6.262  -0.032  0.00  0.00    +0.101 A 
ATOM      5  C   UNL     1       0.123  -6.902  -0.102  0.00  0.00    +0.263 A 
ATOM      6  N   UNL     1       1.281  -6.167  -0.098  0.00  0.00    -0.274 N 
ATOM      7  H   UNL     1       2.138  -6.618  -0.147  0.00  0.00    +0.173 HD
ATOM      8  C   UNL     1       1.235  -4.824  -0.030  0.00  0.00    +0.337 A 
ATOM      9  O   UNL     1       2.272  -4.188  -0.032  0.00  0.00    -0.246 OA
ATOM     10  O   UNL     1       0.172  -8.249  -0.175  0.00  0.00    -0.267 OA
ENDROOT
BRANCH   4  11
ATOM     11  C   UNL     1      -2.365  -7.047  -0.035  0.00  0.00    +0.121 C 
ATOM     12  C   UNL     1      -2.418  -7.944  -1.274  0.00  0.00    +0.128 C 
ATOM     13  C   UNL     1      -1.306  -8.973  -1.104  0.00  0.00    -0.035 C 
ATOM     14  C   UNL     1      -0.562  -8.907  -2.198  0.00  0.00    +0.003 A 
ATOM     15  C   UNL     1       0.591  -9.698  -2.655  0.00  0.00    +0.055 A 
ATOM     16  C   UNL     1       1.139  -9.346  -3.850  0.00  0.00    +0.121 A 
ATOM     17  C   UNL     1       0.669  -8.292  -4.648  0.00  0.00    +0.047 A 
ATOM     18  C   UNL     1      -0.388  -7.503  -4.326  0.00  0.00    +0.029 A 
ATOM     19  C   UNL     1      -1.068  -7.790  -3.057  0.00  0.00    +0.043 A 
ATOM     20  N   UNL     1      -2.120  -7.218  -2.508  0.00  0.00    -0.376 N 
ATOM     21  C   UNL     1      -1.152  -9.768   0.171  0.00  0.00    +0.048 C 
ATOM     22  C   UNL     1      -1.241  -8.752   1.324  0.00  0.00    +0.086 C 
ATOM     23  N   UNL     1      -2.426  -7.904   1.160  0.00  0.00    -0.307 NA
ATOM     24  H   UNL     1      -2.597  -7.355   1.989  0.00  0.00    +0.123 HD
ATOM     25  H   UNL     1      -2.611  -6.454  -2.849  0.00  0.00    +0.160 HD
BRANCH  16  26
ATOM     26  O   UNL     1       2.206 -10.059  -4.298  0.00  0.00    -0.495 OA
ATOM     27  C   UNL     1       2.764  -9.671  -5.555  0.00  0.00    +0.277 C 
ENDBRANCH  16  26
ENDBRANCH   4  11
BRANCH   1  32
ATOM     28  C   UNL     1      -0.013   1.493   0.348  0.00  0.00    +0.044 C 
ATOM     29  C   UNL     1       0.006  -0.012   0.268  0.00  0.00    -0.050 A 
ATOM     30  C   UNL     1      -0.025  -0.637  -0.965  0.00  0.00    +0.008 A 
ATOM     31  C   UNL     1      -0.008  -2.016  -1.042  0.00  0.00    -0.026 A 
ATOM     32  C   UNL     1       0.042  -2.775   0.120  0.00  0.00    +0.060 A 
ATOM     33  C   UNL     1       0.074  -2.143   1.357  0.00  0.00    -0.026 A 
ATOM     34  C   UNL     1       0.061  -0.764   1.427  0.00  0.00    +0.008 A 
ATOM     35  C   UNL     1       0.129  -2.963   2.620  0.00  0.00    +0.046 C 
ATOM     36  C   UNL     1      -0.043  -2.697  -2.386  0.00  0.00    +0.046 C 
ENDBRANCH   1  32
TORSDOF 3
