REMARK  Name = ZINC25036536
REMARK  5 active torsions:
REMARK  status: ('A' for Active; 'I' for Inactive)
REMARK    1  A    between atoms: C_1  and  C_2
REMARK    2  A    between atoms: C_2  and  C_4
REMARK    3  A    between atoms: C_2  and  N_19
REMARK    4  A    between atoms: N_6  and  C_7
REMARK    5  A    between atoms: C_22  and  C_25
REMARK                            x       y       z     vdW  Elec       q    Type
REMARK                         _______ _______ _______ _____ _____    ______ ____
ROOT
ATOM      1  C   UNL     1      -1.758   0.623   3.345  0.00  0.00    -0.004 C 
ATOM      2  C   UNL     1      -2.786   1.414   2.534  0.00  0.00    +0.016 C 
ENDROOT
BRANCH   2   3
ATOM      3  N   UNL     1      -2.340   1.510   1.138  0.00  0.00    +0.387 N 
ATOM      4  C   UNL     1      -0.975   2.048   1.057  0.00  0.00    -0.077 C 
ATOM      5  C   UNL     1      -0.492   1.998  -0.394  0.00  0.00    -0.009 C 
ATOM      6  C   UNL     1      -1.439   2.820  -1.272  0.00  0.00    +0.041 C 
ATOM      7  C   UNL     1      -2.860   2.269  -1.132  0.00  0.00    -0.009 C 
ATOM      8  C   UNL     1      -3.276   2.312   0.340  0.00  0.00    -0.077 C 
ATOM      9  H   UNL     1      -2.326   0.494   0.716  0.00  0.00    -0.081 HD
BRANCH   6  10
ATOM     10  C   UNL     1      -1.001   2.725  -2.711  0.00  0.00    +0.082 A 
ATOM     11  N   UNL     1      -0.639   3.688  -3.511  0.00  0.00    -0.244 NA
ATOM     12  C   UNL     1      -0.266   3.467  -4.789  0.00  0.00    +0.080 A 
ATOM     13  C   UNL     1       0.149   4.397  -5.768  0.00  0.00    +0.049 A 
ATOM     14  C   UNL     1       0.493   3.977  -7.028  0.00  0.00    +0.043 A 
ATOM     15  C   UNL     1       0.446   2.635  -7.382  0.00  0.00    +0.021 A 
ATOM     16  C   UNL     1       0.045   1.699  -6.448  0.00  0.00    +0.018 A 
ATOM     17  C   UNL     1      -0.301   2.110  -5.184  0.00  0.00    +0.039 A 
ATOM     18  S   UNL     1      -0.852   1.306  -3.700  0.00  0.00    -0.072 S 
ATOM     19 CL   UNL     1       0.997   5.149  -8.205  0.00  0.00    -0.083 Cl
ENDBRANCH   6  10
ENDBRANCH   2   3
BRANCH   2  20
ATOM     20  C   UNL     1      -4.118   0.710   2.589  0.00  0.00    +0.203 C 
ATOM     21  O   UNL     1      -4.423  -0.079   1.720  0.00  0.00    -0.277 OA
ATOM     22  N   UNL     1      -4.970   0.959   3.604  0.00  0.00    -0.287 N 
ATOM     23  H   UNL     1      -4.732   1.737   4.343  0.00  0.00    +0.155 HD
BRANCH  22  24
ATOM     24  C   UNL     1      -6.157   0.225   3.716  0.00  0.00    +0.035 A 
ATOM     25  C   UNL     1      -6.650  -0.110   4.973  0.00  0.00    +0.025 A 
ATOM     26  C   UNL     1      -7.820  -0.833   5.090  0.00  0.00    +0.029 A 
ATOM     27  C   UNL     1      -8.507  -1.228   3.952  0.00  0.00    +0.067 A 
ATOM     28  C   UNL     1      -8.015  -0.893   2.689  0.00  0.00    +0.069 A 
ATOM     29  C   UNL     1      -6.843  -0.163   2.574  0.00  0.00    +0.051 A 
ATOM     30  N   UNL     1      -8.906  -1.420   1.757  0.00  0.00    -0.306 N 
ATOM     31  H   UNL     1      -8.723  -1.281   0.681  0.00  0.00    +0.170 HD
ATOM     32  C   UNL     1      -9.896  -2.045   2.422  0.00  0.00    +0.325 A 
ATOM     33  O   UNL     1     -10.839  -2.613   1.903  0.00  0.00    -0.247 OA
ATOM     34  N   UNL     1      -9.684  -1.947   3.748  0.00  0.00    -0.306 N 
ATOM     35  H   UNL     1     -10.257  -2.321   4.610  0.00  0.00    +0.170 HD
ENDBRANCH  22  24
ENDBRANCH   2  20
TORSDOF 4
