REMARK  Name = ZINC20609360
REMARK  5 active torsions:
REMARK  status: ('A' for Active; 'I' for Inactive)
REMARK    1  A    between atoms: C_1  and  C_2
REMARK    2  A    between atoms: C_2  and  O_3
REMARK    3  A    between atoms: O_3  and  C_4
REMARK    4  A    between atoms: C_4  and  C_6
REMARK    5  A    between atoms: C_7  and  C_24
REMARK                            x       y       z     vdW  Elec       q    Type
REMARK                         _______ _______ _______ _____ _____    ______ ____
ROOT
ATOM      1  C   UNL     1      -0.896   3.036   0.027  0.00  0.00    +0.079 C 
ATOM      2  C   UNL     1      -1.153   1.712   0.016  0.00  0.00    +0.019 C 
ATOM      3  N   UNL     1      -0.011   0.966   0.007  0.00  0.00    -0.288 N 
ATOM      4  C   UNL     1       1.098   1.734   0.001  0.00  0.00    +0.238 C 
ATOM      5  O   UNL     1       2.250   1.357  -0.011  0.00  0.00    -0.274 OA
ATOM      6  C   UNL     1       0.607   3.160   0.013  0.00  0.00    +0.151 C 
ATOM      7  C   UNL     1       1.109   3.906   1.215  0.00  0.00    -0.011 A 
ATOM      8  C   UNL     1       0.995   3.701   2.572  0.00  0.00    +0.006 A 
ATOM      9  C   UNL     1       1.581   4.586   3.459  0.00  0.00    +0.000 A 
ATOM     10  C   UNL     1       2.287   5.679   2.987  0.00  0.00    +0.001 A 
ATOM     11  C   UNL     1       2.410   5.895   1.631  0.00  0.00    +0.012 A 
ATOM     12  C   UNL     1       1.820   5.007   0.727  0.00  0.00    +0.024 A 
ATOM     13  C   UNL     1       1.789   4.989  -0.749  0.00  0.00    +0.162 A 
ATOM     14  C   UNL     1       1.086   3.917  -1.192  0.00  0.00    +0.113 A 
ATOM     15  N   UNL     1       1.091   3.950  -2.534  0.00  0.00    -0.198 NA
ATOM     16  C   UNL     1       1.770   5.001  -2.929  0.00  0.00    +0.286 A 
ATOM     17  O   UNL     1       2.213   5.662  -1.848  0.00  0.00    -0.424 OA
ATOM     18  N   UNL     1       1.992   5.367  -4.240  0.00  0.00    -0.313 N 
ATOM     19  C   UNL     1      -2.541   1.125   0.019  0.00  0.00    +0.061 C 
ATOM     20  H   UNL     1      -0.072  -0.133   0.006  0.00  0.00    +0.155 HD
ATOM     21  H   UNL     1       2.577   6.271  -4.468  0.00  0.00    +0.147 HD
ATOM     22  H   UNL     1       1.584   4.755  -5.059  0.00  0.00    +0.147 HD
ENDROOT
BRANCH   1  23
ATOM     23  C   UNL     1      -1.840   4.090   0.042  0.00  0.00    +0.338 C 
ATOM     24  O   UNL     1      -3.031   3.840   0.052  0.00  0.00    -0.245 OA
BRANCH  23  25
ATOM     25  O   UNL     1      -1.420   5.372   0.044  0.00  0.00    -0.462 OA
BRANCH  25  27
ATOM     26  C   UNL     1      -1.764   7.764   0.060  0.00  0.00    +0.048 C 
ATOM     27  C   UNL     1      -2.427   6.385   0.059  0.00  0.00    +0.229 C 
ENDBRANCH  25  27
ENDBRANCH  23  25
ENDBRANCH   1  23
TORSDOF 3
