REMARK  Name = ZINC64928185
REMARK  8 active torsions:
REMARK  status: ('A' for Active; 'I' for Inactive)
REMARK    1  A    between atoms: C_1  and  C_2
REMARK    2  A    between atoms: C_2  and  C_3
REMARK    3  A    between atoms: N_5  and  C_6
REMARK    4  A    between atoms: C_9  and  S_12
REMARK    5  A    between atoms: S_12  and  N_15
REMARK    6  A    between atoms: C_24  and  C_26
REMARK    7  A    between atoms: C_26  and  C_27
REMARK    8  A    between atoms: N_29  and  C_30
REMARK                            x       y       z     vdW  Elec       q    Type
REMARK                         _______ _______ _______ _____ _____    ______ ____
ROOT
ATOM      1  N   UNL     1      -8.301  -3.386  -2.063  0.00  0.00    -0.168 NA
ATOM      2  C   UNL     1      -8.976  -2.440  -2.969  0.00  0.00    +0.115 C 
ATOM      3  C   UNL     1      -7.967  -2.006  -4.031  0.00  0.00    +0.052 C 
ATOM      4  C   UNL     1      -7.249  -3.198  -4.607  0.00  0.00    -0.041 A 
ATOM      5  C   UNL     1      -6.633  -3.044  -5.843  0.00  0.00    +0.004 A 
ATOM      6  C   UNL     1      -5.950  -4.093  -6.423  0.00  0.00    +0.000 A 
ATOM      7  C   UNL     1      -5.875  -5.309  -5.770  0.00  0.00    +0.000 A 
ATOM      8  C   UNL     1      -6.489  -5.466  -4.544  0.00  0.00    +0.005 A 
ATOM      9  C   UNL     1      -7.181  -4.413  -3.962  0.00  0.00    -0.025 A 
ATOM     10  C   UNL     1      -7.846  -4.657  -2.635  0.00  0.00    +0.119 C 
ENDROOT
BRANCH   1  11
ATOM     11  S   UNL     1      -8.061  -3.025  -0.465  0.00  0.00    +0.061 S 
ATOM     12  O   UNL     1      -7.442  -4.163   0.119  0.00  0.00    -0.153 OA
ATOM     13  O   UNL     1      -9.286  -2.491   0.019  0.00  0.00    -0.153 OA
BRANCH  11  17
ATOM     14  C   UNL     1      -5.027   0.333  -0.291  0.00  0.00    +0.033 A 
ATOM     15  C   UNL     1      -6.383   0.623  -0.366  0.00  0.00    +0.025 A 
ATOM     16  C   UNL     1      -7.306  -0.403  -0.419  0.00  0.00    +0.030 A 
ATOM     17  C   UNL     1      -6.880  -1.719  -0.398  0.00  0.00    +0.106 A 
ATOM     18  C   UNL     1      -5.531  -2.011  -0.323  0.00  0.00    +0.030 A 
ATOM     19  C   UNL     1      -4.603  -0.990  -0.276  0.00  0.00    +0.025 A 
BRANCH  14  22
ATOM     20  C   UNL     1      -2.899   1.235  -0.855  0.00  0.00    +0.217 C 
ATOM     21  O   UNL     1      -2.607   0.185  -1.387  0.00  0.00    -0.275 OA
ATOM     22  N   UNL     1      -4.089   1.370  -0.238  0.00  0.00    -0.286 N 
ATOM     23  H   UNL     1      -4.296   2.186   0.244  0.00  0.00    +0.155 HD
BRANCH  20  25
ATOM     24  C   UNL     1      -0.667   1.976  -1.642  0.00  0.00    +0.013 C 
ATOM     25  C   UNL     1      -1.931   2.390  -0.885  0.00  0.00    +0.093 C 
ENDBRANCH  20  25
ENDBRANCH  14  22
ENDBRANCH  11  17
ENDBRANCH   1  11
BRANCH  10  26
ATOM     26  C   UNL     1      -9.046  -5.585  -2.835  0.00  0.00    +0.121 C 
BRANCH  26  27
ATOM     27  C   UNL     1      -9.615  -5.966  -1.493  0.00  0.00    +0.219 C 
ATOM     28  O   UNL     1      -9.121  -5.524  -0.477  0.00  0.00    -0.275 OA
ATOM     29  N   UNL     1     -10.673  -6.798  -1.422  0.00  0.00    -0.285 N 
ATOM     30  H   UNL     1     -11.028  -7.202  -2.229  0.00  0.00    +0.155 HD
BRANCH  29  31
ATOM     31  C   UNL     1     -11.260  -7.079  -0.183  0.00  0.00    +0.033 A 
ATOM     32  C   UNL     1     -12.635  -7.248  -0.086  0.00  0.00    +0.025 A 
ATOM     33  C   UNL     1     -13.211  -7.526   1.138  0.00  0.00    +0.022 A 
ATOM     34  C   UNL     1     -12.420  -7.636   2.268  0.00  0.00    +0.041 A 
ATOM     35  C   UNL     1     -11.049  -7.468   2.174  0.00  0.00    +0.022 A 
ATOM     36  C   UNL     1     -10.467  -7.196   0.952  0.00  0.00    +0.025 A 
ATOM     37 CL   UNL     1     -13.147  -7.984   3.805  0.00  0.00    -0.084 Cl
ENDBRANCH  29  31
ENDBRANCH  26  27
ENDBRANCH  10  26
TORSDOF 7
