REMARK  Name = ZINC25447055
REMARK  8 active torsions:
REMARK  status: ('A' for Active; 'I' for Inactive)
REMARK    1  A    between atoms: C_1  and  C_2
REMARK    2  A    between atoms: C_3  and  C_13
REMARK    3  A    between atoms: C_4  and  C_12
REMARK    4  A    between atoms: C_13  and  C_14
REMARK    5  A    between atoms: C_19  and  C_22
REMARK    6  A    between atoms: C_22  and  C_23
REMARK    7  A    between atoms: C_22  and  C_24
REMARK    8  A    between atoms: C_22  and  C_25
REMARK                            x       y       z     vdW  Elec       q    Type
REMARK                         _______ _______ _______ _____ _____    ______ ____
ROOT
ATOM      1  C   UNL     1       5.521   1.956  -0.040  0.00  0.00    +0.066 C 
ATOM      2  C   UNL     1       4.017   1.877  -0.026  0.00  0.00    +0.047 A 
ATOM      3  C   UNL     1       3.258   3.053  -0.012  0.00  0.00    +0.004 A 
ATOM      4  C   UNL     1       1.902   2.968   0.000  0.00  0.00    +0.049 A 
ATOM      5  N   UNL     1       1.318   1.741  -0.001  0.00  0.00    -0.199 N 
ATOM      6  C   UNL     1       2.088   0.612  -0.015  0.00  0.00    +0.255 A 
ATOM      7  N   UNL     1       3.422   0.705  -0.027  0.00  0.00    -0.216 NA
ATOM      8  N   UNL     1       1.263  -0.430  -0.012  0.00  0.00    -0.176 NA
ATOM      9  C   UNL     1       0.002  -0.004   0.002  0.00  0.00    +0.234 A 
ATOM     10  N   UNL     1      -0.016   1.313   0.009  0.00  0.00    -0.128 NA
ATOM     11  N   UNL     1      -1.123  -0.824   0.008  0.00  0.00    -0.326 N 
ATOM     12  C   UNL     1       1.058   4.216   0.015  0.00  0.00    +0.066 C 
ATOM     13  H   UNL     1      -2.129  -0.377   0.020  0.00  0.00    +0.145 HD
ATOM     14  H   UNL     1      -1.008  -1.917   0.001  0.00  0.00    +0.145 HD
ENDROOT
BRANCH   3  15
ATOM     15  C   UNL     1       3.937   4.399  -0.011  0.00  0.00    +0.134 C 
BRANCH  15  16
ATOM     16  C   UNL     1       4.150   4.855  -1.431  0.00  0.00    +0.223 C 
ATOM     17  O   UNL     1       3.787   4.157  -2.353  0.00  0.00    -0.275 OA
ATOM     18  N   UNL     1       4.745   6.040  -1.675  0.00  0.00    -0.264 N 
ATOM     19  C   UNL     1       4.942   6.461  -2.985  0.00  0.00    +0.165 A 
ATOM     20  N   UNL     1       5.493   7.576  -3.423  0.00  0.00    -0.229 NA
ATOM     21  C   UNL     1       5.608   7.821  -4.714  0.00  0.00    +0.056 A 
ATOM     22  C   UNL     1       5.133   6.902  -5.590  0.00  0.00    +0.072 A 
ATOM     23  S   UNL     1       4.518   5.658  -4.465  0.00  0.00    -0.060 S 
ATOM     24  H   UNL     1       5.075   6.673  -0.839  0.00  0.00    +0.157 HD
BRANCH  21  25
ATOM     25  C   UNL     1       6.246   9.096  -5.203  0.00  0.00    +0.005 C 
ATOM     26  C   UNL     1       5.160  10.049  -5.706  0.00  0.00    +0.017 C 
ATOM     27  C   UNL     1       7.012   9.756  -4.055  0.00  0.00    +0.017 C 
ATOM     28  C   UNL     1       7.213   8.776  -6.345  0.00  0.00    +0.017 C 
ENDBRANCH  21  25
ENDBRANCH  15  16
ENDBRANCH   3  15
TORSDOF 3
