REMARK  Name = ZINC16046951
REMARK  8 active torsions:
REMARK  status: ('A' for Active; 'I' for Inactive)
REMARK    1  A    between atoms: C_1  and  C_2
REMARK    2  A    between atoms: C_2  and  N_3
REMARK    3  A    between atoms: N_3  and  C_4
REMARK    4  A    between atoms: C_10  and  C_12
REMARK    5  A    between atoms: C_12  and  N_13
REMARK    6  A    between atoms: C_16  and  C_21
REMARK    7  A    between atoms: C_19  and  O_20
REMARK    8  A    between atoms: C_21  and  C_22
REMARK                            x       y       z     vdW  Elec       q    Type
REMARK                         _______ _______ _______ _____ _____    ______ ____
ROOT
ATOM      1  N   UNL     1      -2.026  -0.790  -3.684  0.00  0.00    -0.215 N 
ATOM      2  C   UNL     1      -2.128   0.093  -4.700  0.00  0.00    +0.248 C 
ATOM      3  O   UNL     1      -1.815   1.264  -4.693  0.00  0.00    -0.273 OA
ATOM      4  C   UNL     1      -2.718  -0.698  -5.851  0.00  0.00    +0.201 C 
ATOM      5  N   UNL     1      -2.893  -2.050  -5.297  0.00  0.00    -0.223 NA
ATOM      6  C   UNL     1      -2.475  -2.027  -4.072  0.00  0.00    +0.286 C 
ENDROOT
BRANCH   6   7
ATOM      7  O   UNL     1      -2.485  -3.106  -3.259  0.00  0.00    -0.481 OA
ATOM      8  H   UNL     1      -2.830  -3.908  -3.675  0.00  0.00    +0.295 HD
ENDBRANCH   6   7
BRANCH   1   9
ATOM      9  C   UNL     1      -1.502  -0.473  -2.354  0.00  0.00    +0.214 C 
BRANCH   9  11
ATOM     10  N   UNL     1       0.688  -0.476  -1.203  0.00  0.00    -0.297 N 
ATOM     11  C   UNL     1      -0.013  -0.705  -2.332  0.00  0.00    +0.234 C 
ATOM     12  O   UNL     1       0.555  -1.096  -3.330  0.00  0.00    -0.274 OA
BRANCH  10  13
ATOM     13  C   UNL     1       2.135  -0.701  -1.182  0.00  0.00    +0.076 C 
ATOM     14  C   UNL     1       2.806   0.198  -2.222  0.00  0.00    +0.022 C 
ATOM     15  C   UNL     1       4.318  -0.036  -2.200  0.00  0.00    +0.002 C 
ATOM     16  C   UNL     1       4.612  -1.502  -2.528  0.00  0.00    +0.000 C 
ATOM     17  C   UNL     1       3.941  -2.401  -1.488  0.00  0.00    +0.002 C 
ATOM     18  C   UNL     1       2.429  -2.167  -1.510  0.00  0.00    +0.022 C 
ENDBRANCH  10  13
BRANCH  10  20
ATOM     19  C   UNL     1      -0.019   1.526   0.010  0.00  0.00    +0.024 C 
ATOM     20  C   UNL     1       0.002  -0.004   0.002  0.00  0.00    +0.105 C 
ENDBRANCH  10  20
ENDBRANCH   9  11
ENDBRANCH   1   9
BRANCH   4  21
ATOM     21  C   UNL     1      -1.752  -0.721  -7.038  0.00  0.00    +0.073 C 
BRANCH  21  22
ATOM     22  C   UNL     1      -2.410  -1.406  -8.208  0.00  0.00    -0.020 A 
ATOM     23  C   UNL     1      -2.297  -2.701  -8.541  0.00  0.00    +0.087 A 
ATOM     24  N   UNL     1      -3.037  -2.960  -9.663  0.00  0.00    -0.360 N 
ATOM     25  H   UNL     1      -3.111  -3.826 -10.094  0.00  0.00    +0.165 HD
ATOM     26  C   UNL     1      -3.659  -1.808 -10.090  0.00  0.00    +0.047 A 
ATOM     27  C   UNL     1      -3.299  -0.786  -9.193  0.00  0.00    +0.003 A 
ATOM     28  C   UNL     1      -3.793   0.507  -9.376  0.00  0.00    +0.010 A 
ATOM     29  C   UNL     1      -4.628   0.772 -10.425  0.00  0.00    +0.001 A 
ATOM     30  C   UNL     1      -4.989  -0.234 -11.310  0.00  0.00    +0.002 A 
ATOM     31  C   UNL     1      -4.506  -1.515 -11.153  0.00  0.00    +0.026 A 
ENDBRANCH  21  22
ENDBRANCH   4  21
TORSDOF 7
