REMARK  Name = ZINC16855886
REMARK  10 active torsions:
REMARK  status: ('A' for Active; 'I' for Inactive)
REMARK    1  A    between atoms: C_1  and  C_2
REMARK    2  A    between atoms: C_4  and  C_17
REMARK    3  A    between atoms: C_5  and  C_9
REMARK    4  A    between atoms: C_9  and  C_10
REMARK    5  A    between atoms: C_10  and  S_11
REMARK    6  A    between atoms: S_11  and  C_13
REMARK    7  A    between atoms: C_13  and  C_14
REMARK    8  A    between atoms: C_14  and  C_16
REMARK    9  A    between atoms: C_18  and  C_19
REMARK   10  A    between atoms: C_22  and  N_25
REMARK                            x       y       z     vdW  Elec       q    Type
REMARK                         _______ _______ _______ _____ _____    ______ ____
ROOT
ATOM      1  C   UNL     1      -0.018   1.503   0.010  0.00  0.00    +0.086 C 
ATOM      2  C   UNL     1       0.002  -0.004   0.002  0.00  0.00    +0.107 A 
ATOM      3  N   UNL     1       0.005  -0.632  -1.140  0.00  0.00    -0.234 NA
ATOM      4  C   UNL     1       0.023  -1.978  -1.198  0.00  0.00    +0.074 A 
ATOM      5  C   UNL     1       0.039  -2.713  -0.018  0.00  0.00    +0.043 A 
ATOM      6  C   UNL     1       0.035  -2.019   1.202  0.00  0.00    +0.255 A 
ATOM      7  N   UNL     1       0.022  -0.670   1.181  0.00  0.00    -0.311 N 
ATOM      8  O   UNL     1       0.048  -2.624   2.262  0.00  0.00    -0.267 OA
ATOM      9  H   UNL     1       0.024  -0.174   2.015  0.00  0.00    +0.170 HD
ENDROOT
BRANCH   4  10
ATOM     10  C   UNL     1       0.026  -2.664  -2.497  0.00  0.00    +0.029 C 
ATOM     11  C   UNL     1       0.010  -1.947  -3.636  0.00  0.00    +0.010 C 
BRANCH  11  12
ATOM     12  C   UNL     1       0.013  -2.634  -4.939  0.00  0.00    -0.025 A 
ATOM     13  C   UNL     1       0.026  -4.030  -4.997  0.00  0.00    +0.010 A 
ATOM     14  C   UNL     1       0.028  -4.667  -6.220  0.00  0.00    +0.033 A 
ATOM     15  C   UNL     1       0.018  -3.926  -7.389  0.00  0.00    +0.126 A 
ATOM     16  C   UNL     1       0.005  -2.543  -7.340  0.00  0.00    +0.033 A 
ATOM     17  C   UNL     1      -0.004  -1.893  -6.124  0.00  0.00    +0.010 A 
BRANCH  15  18
ATOM     18  N   UNL     1       0.020  -4.616  -8.698  0.00  0.00    +0.056 N 
ATOM     19  O   UNL     1       0.032  -5.824  -8.745  0.00  0.00    -0.126 OA
ATOM     20  O   UNL     1       0.011  -3.972  -9.721  0.00  0.00    -0.126 OA
ENDBRANCH  15  18
ENDBRANCH  11  12
ENDBRANCH   4  10
BRANCH   5  21
ATOM     21  C   UNL     1       0.059  -4.220  -0.048  0.00  0.00    +0.056 C 
BRANCH  21  22
ATOM     22  C   UNL     1       1.503  -4.713   0.060  0.00  0.00    +0.109 C 
BRANCH  22  23
ATOM     23  S   UNL     1       1.527  -6.527   0.024  0.00  0.00    +0.026 S 
ATOM     24  O   UNL     1       0.831  -7.032   1.155  0.00  0.00    -0.257 OA
BRANCH  23  25
ATOM     25  C   UNL     1       3.287  -6.945   0.159  0.00  0.00    +0.133 C 
BRANCH  25  26
ATOM     26  C   UNL     1       3.450  -8.443   0.141  0.00  0.00    -0.068 C 
ATOM     27  C   UNL     1       3.901  -9.040  -0.934  0.00  0.00    +0.008 C 
ATOM     28  C   UNL     1       3.093  -9.255   1.360  0.00  0.00    +0.039 C 
ENDBRANCH  25  26
ENDBRANCH  23  25
ENDBRANCH  22  23
ENDBRANCH  21  22
ENDBRANCH   5  21
TORSDOF 8
