REMARK  Name = ZINC38315974
REMARK  11 active torsions:
REMARK  status: ('A' for Active; 'I' for Inactive)
REMARK    1  A    between atoms: C_1  and  C_2
REMARK    2  A    between atoms: C_7  and  O_8
REMARK    3  A    between atoms: O_8  and  C_9
REMARK    4  A    between atoms: C_9  and  C_11
REMARK    5  A    between atoms: C_9  and  C_12
REMARK    6  A    between atoms: N_14  and  C_15
REMARK    7  A    between atoms: C_18  and  C_21
REMARK    8  A    between atoms: C_21  and  C_32
REMARK    9  A    between atoms: N_22  and  N_23
REMARK   10  A    between atoms: C_24  and  C_26
REMARK   11  A    between atoms: C_26  and  C_31
REMARK                            x       y       z     vdW  Elec       q    Type
REMARK                         _______ _______ _______ _____ _____    ______ ____
ROOT
ATOM      1  C   UNL     1       0.719   1.277   6.479  0.00  0.00    +0.034 A 
ATOM      2  C   UNL     1       1.363   2.507   6.412  0.00  0.00    +0.024 A 
ATOM      3  C   UNL     1       1.981   3.025   7.529  0.00  0.00    +0.011 A 
ATOM      4  C   UNL     1       1.959   2.311   8.731  0.00  0.00    -0.002 A 
ATOM      5  C   UNL     1       1.310   1.075   8.794  0.00  0.00    +0.011 A 
ATOM      6  C   UNL     1       0.690   0.567   7.674  0.00  0.00    +0.024 A 
ENDROOT
BRANCH   1   9
ATOM      7  C   UNL     1       0.672   0.889   4.134  0.00  0.00    +0.258 C 
ATOM      8  O   UNL     1       1.777   1.381   4.041  0.00  0.00    -0.271 OA
ATOM      9  N   UNL     1       0.093   0.755   5.343  0.00  0.00    -0.282 N 
ATOM     10  H   UNL     1      -0.758   0.297   5.426  0.00  0.00    +0.155 HD
BRANCH   7  11
ATOM     11  C   UNL     1      -0.053   0.426   2.896  0.00  0.00    +0.256 C 
ATOM     12  C   UNL     1      -1.308   1.277   2.693  0.00  0.00    +0.062 C 
BRANCH  11  13
ATOM     13  O   UNL     1       0.805   0.565   1.762  0.00  0.00    -0.480 OA
BRANCH  13  20
ATOM     14  C   UNL     1       2.492   0.822  -0.489  0.00  0.00    +0.047 C 
ATOM     15  C   UNL     1       1.349  -0.159  -0.438  0.00  0.00    -0.007 A 
ATOM     16  C   UNL     1       1.095  -0.982  -1.518  0.00  0.00    +0.027 A 
ATOM     17  C   UNL     1       0.046  -1.882  -1.472  0.00  0.00    +0.041 A 
ATOM     18  C   UNL     1      -0.752  -1.960  -0.344  0.00  0.00    +0.023 A 
ATOM     19  C   UNL     1      -0.502  -1.139   0.738  0.00  0.00    +0.047 A 
ATOM     20  C   UNL     1       0.554  -0.239   0.696  0.00  0.00    +0.125 A 
ATOM     21 CL   UNL     1      -0.271  -2.915  -2.831  0.00  0.00    -0.084 Cl
ENDBRANCH  13  20
ENDBRANCH  11  13
ENDBRANCH   7  11
ENDBRANCH   1   9
BRANCH   4  22
ATOM     22  C   UNL     1       2.620   2.861   9.929  0.00  0.00    +0.063 C 
ATOM     23  N   UNL     1       3.818   3.353   9.841  0.00  0.00    -0.185 NA
ATOM     24  C   UNL     1       1.904   2.852  11.255  0.00  0.00    +0.068 C 
BRANCH  23  25
ATOM     25  N   UNL     1       4.546   3.216   8.652  0.00  0.00    -0.206 N 
ATOM     26  C   UNL     1       5.799   3.706   8.569  0.00  0.00    +0.241 C 
ATOM     27  O   UNL     1       6.296   4.265   9.524  0.00  0.00    -0.273 OA
ATOM     28  H   UNL     1       4.148   2.769   7.889  0.00  0.00    +0.177 HD
BRANCH  26  29
ATOM     29  C   UNL     1       6.582   3.558   7.291  0.00  0.00    +0.081 C 
ATOM     30  C   UNL     1       6.874   4.830   6.490  0.00  0.00    +0.058 C 
ATOM     31  C   UNL     1       7.999   4.135   7.260  0.00  0.00    +0.133 C 
ATOM     32 CL   UNL     1       9.239   3.246   6.299  0.00  0.00    -0.100 Cl
ATOM     33 CL   UNL     1       8.604   4.939   8.756  0.00  0.00    -0.100 Cl
ATOM     34  C   UNL     1       6.326   2.271   6.504  0.00  0.00    +0.024 C 
ENDBRANCH  26  29
ENDBRANCH  23  25
ENDBRANCH   4  22
TORSDOF 7
