REMARK  Name = ZINC08636254
REMARK  10 active torsions:
REMARK  status: ('A' for Active; 'I' for Inactive)
REMARK    1  A    between atoms: C_1  and  C_2
REMARK    2  A    between atoms: C_5  and  S_8
REMARK    3  A    between atoms: S_8  and  N_11
REMARK    4  A    between atoms: N_11  and  C_12
REMARK    5  A    between atoms: C_12  and  C_13
REMARK    6  A    between atoms: C_21  and  C_23
REMARK    7  A    between atoms: C_23  and  N_74
REMARK    8  A    between atoms: N_26  and  C_29
REMARK    9  A    between atoms: C_34  and  O_35
REMARK   10  A    between atoms: O_35  and  C_36
REMARK                            x       y       z     vdW  Elec       q    Type
REMARK                         _______ _______ _______ _____ _____    ______ ____
ROOT
ATOM      1  C   UNL     1       5.093  -6.548  -2.628  0.00  0.00    -0.053 C 
ATOM      2  C   UNL     1       5.093  -7.222  -1.254  0.00  0.00    -0.011 C 
ATOM      3  C   UNL     1       3.784  -8.005  -1.087  0.00  0.00    -0.015 C 
ATOM      4  C   UNL     1       3.688  -9.043  -2.212  0.00  0.00    -0.015 C 
ATOM      5  C   UNL     1       3.728  -8.317  -3.560  0.00  0.00    -0.078 C 
ATOM      6  C   UNL     1       2.679  -6.357  -2.597  0.00  0.00    -0.077 C 
ATOM      7  C   UNL     1       2.609  -7.028  -1.221  0.00  0.00    -0.041 C 
ATOM      8  N   UNL     1       3.845  -6.857  -3.357  0.00  0.00    +0.383 N 
ATOM      9  H   UNL     1       3.869  -6.394  -4.272  0.00  0.00    -0.081 HD
ENDROOT
BRANCH   1  10
ATOM     10  C   UNL     1       5.204  -5.032  -2.454  0.00  0.00    +0.090 C 
BRANCH  10  11
ATOM     11  N   UNL     1       5.082  -4.379  -3.760  0.00  0.00    -0.191 NA
ATOM     12  H   UNL     1       5.171  -4.901  -4.572  0.00  0.00    +0.148 HD
BRANCH  11  13
ATOM     13  S   UNL     1       4.792  -2.751  -3.848  0.00  0.00    +0.058 S 
ATOM     14  O   UNL     1       4.755  -2.420  -5.229  0.00  0.00    -0.153 OA
ATOM     15  O   UNL     1       3.707  -2.483  -2.971  0.00  0.00    -0.153 OA
BRANCH  13  20
ATOM     16  C   UNL     1       9.610   0.048  -1.533  0.00  0.00    +0.044 C 
ATOM     17  C   UNL     1       8.407  -0.651  -2.111  0.00  0.00    -0.050 A 
ATOM     18  C   UNL     1       8.359  -0.941  -3.462  0.00  0.00    +0.005 A 
ATOM     19  C   UNL     1       7.255  -1.583  -3.992  0.00  0.00    +0.029 A 
ATOM     20  C   UNL     1       6.199  -1.934  -3.172  0.00  0.00    +0.105 A 
ATOM     21  C   UNL     1       6.245  -1.639  -1.822  0.00  0.00    +0.029 A 
ATOM     22  C   UNL     1       7.351  -1.002  -1.291  0.00  0.00    +0.005 A 
ENDBRANCH  13  20
ENDBRANCH  11  13
ENDBRANCH  10  11
ENDBRANCH   1  10
BRANCH   7  23
ATOM     23  C   UNL     1       2.700  -5.963  -0.127  0.00  0.00    -0.077 C 
BRANCH  23  29
ATOM     24  C   UNL     1       0.341  -5.790   0.391  0.00  0.00    -0.060 C 
ATOM     25  C   UNL     1      -0.893  -4.896   0.247  0.00  0.00    +0.086 C 
ATOM     26  N   UNL     1      -0.651  -3.618   0.931  0.00  0.00    -0.331 N 
ATOM     27  C   UNL     1       0.517  -2.932   0.362  0.00  0.00    +0.086 C 
ATOM     28  C   UNL     1       1.751  -3.826   0.506  0.00  0.00    -0.060 C 
ATOM     29  N   UNL     1       1.503  -5.098  -0.205  0.00  0.00    +0.382 N 
ATOM     30  H   UNL     1       1.301  -4.896  -1.191  0.00  0.00    -0.082 HD
BRANCH  26  31
ATOM     31  C   UNL     1      -1.786  -2.800   0.882  0.00  0.00    +0.072 A 
ATOM     32  C   UNL     1      -2.309  -2.409  -0.342  0.00  0.00    +0.027 A 
ATOM     33  C   UNL     1      -3.427  -1.597  -0.387  0.00  0.00    +0.002 A 
ATOM     34  C   UNL     1      -4.029  -1.178   0.784  0.00  0.00    +0.004 A 
ATOM     35  C   UNL     1      -3.516  -1.568   2.008  0.00  0.00    +0.047 A 
ATOM     36  C   UNL     1      -2.397  -2.382   2.062  0.00  0.00    +0.141 A 
BRANCH  36  37
ATOM     37  O   UNL     1      -1.891  -2.767   3.265  0.00  0.00    -0.493 OA
ATOM     38  C   UNL     1      -2.566  -2.295   4.433  0.00  0.00    +0.277 C 
ENDBRANCH  36  37
ENDBRANCH  26  31
ENDBRANCH  23  29
ENDBRANCH   7  23
TORSDOF 8
