REMARK  Name = ZINC28580065
REMARK  10 active torsions:
REMARK  status: ('A' for Active; 'I' for Inactive)
REMARK    1  A    between atoms: C_1  and  C_2
REMARK    2  A    between atoms: C_6  and  C_8
REMARK    3  A    between atoms: N_10  and  C_11
REMARK    4  A    between atoms: C_11  and  C_13
REMARK    5  A    between atoms: C_11  and  C_16
REMARK    6  A    between atoms: C_13  and  C_14
REMARK    7  A    between atoms: C_13  and  C_15
REMARK    8  A    between atoms: N_18  and  N_19
REMARK    9  A    between atoms: C_20  and  C_22
REMARK   10  A    between atoms: C_22  and  C_23
REMARK                            x       y       z     vdW  Elec       q    Type
REMARK                         _______ _______ _______ _____ _____    ______ ____
ROOT
ATOM      1  C   UNL     1       2.193   8.017  -0.879  0.00  0.00    +0.250 C 
ATOM      2  O   UNL     1       2.993   7.265  -1.395  0.00  0.00    -0.272 OA
ATOM      3  N   UNL     1       2.439   9.341  -0.842  0.00  0.00    -0.233 N 
ATOM      4  H   UNL     1       1.678  10.031  -0.448  0.00  0.00    +0.173 HD
ENDROOT
BRANCH   3   5
ATOM      5  N   UNL     1       3.664   9.839  -1.305  0.00  0.00    -0.234 N 
ATOM      6  C   UNL     1       3.910  11.164  -1.268  0.00  0.00    +0.230 C 
ATOM      7  O   UNL     1       3.071  11.925  -0.834  0.00  0.00    -0.274 OA
ATOM      8  H   UNL     1       4.425   9.149  -1.698  0.00  0.00    +0.173 HD
BRANCH   6   9
ATOM      9  C   UNL     1       5.227  11.700  -1.766  0.00  0.00    +0.104 C 
BRANCH   9  10
ATOM     10  C   UNL     1       5.249  13.222  -1.613  0.00  0.00    -0.020 C 
ATOM     11  C   UNL     1       4.109  13.833  -2.430  0.00  0.00    +0.011 C 
ATOM     12  C   UNL     1       4.131  15.355  -2.278  0.00  0.00    -0.010 C 
ATOM     13  C   UNL     1       5.468  15.899  -2.783  0.00  0.00    +0.007 C 
ATOM     14  C   UNL     1       6.609  15.288  -1.966  0.00  0.00    -0.010 C 
ATOM     15  C   UNL     1       6.587  13.766  -2.119  0.00  0.00    +0.011 C 
ATOM     16  C   UNL     1       6.433  15.656  -0.491  0.00  0.00    +0.007 C 
ATOM     17  C   UNL     1       5.096  15.112   0.014  0.00  0.00    -0.010 C 
ATOM     18  C   UNL     1       3.955  15.722  -0.803  0.00  0.00    +0.007 C 
ATOM     19  C   UNL     1       5.074  13.589  -0.138  0.00  0.00    +0.011 C 
ENDBRANCH   9  10
ENDBRANCH   6   9
ENDBRANCH   3   5
BRANCH   1  20
ATOM     20  C   UNL     1       0.923   7.469  -0.280  0.00  0.00    +0.163 C 
BRANCH  20  23
ATOM     21  C   UNL     1      -0.591   5.647  -0.851  0.00  0.00    +0.245 C 
ATOM     22  O   UNL     1      -1.512   6.321  -0.436  0.00  0.00    -0.270 OA
ATOM     23  N   UNL     1       0.667   6.130  -0.818  0.00  0.00    -0.300 N 
ATOM     24  H   UNL     1       1.501   5.520  -1.194  0.00  0.00    +0.150 HD
BRANCH  21  30
ATOM     25  C   UNL     1      -3.789   1.989  -1.987  0.00  0.00    +0.044 C 
ATOM     26  C   UNL     1      -2.385   2.533  -1.941  0.00  0.00    -0.050 A 
ATOM     27  C   UNL     1      -1.332   1.765  -2.409  0.00  0.00    +0.003 A 
ATOM     28  C   UNL     1      -0.040   2.259  -2.376  0.00  0.00    +0.001 A 
ATOM     29  C   UNL     1       0.207   3.519  -1.871  0.00  0.00    +0.013 A 
ATOM     30  C   UNL     1      -0.849   4.296  -1.393  0.00  0.00    +0.037 A 
ATOM     31  C   UNL     1      -2.150   3.792  -1.429  0.00  0.00    +0.016 A 
ENDBRANCH  21  30
ENDBRANCH  20  23
BRANCH  20  32
ATOM     32  C   UNL     1       1.069   7.389   1.241  0.00  0.00    +0.012 C 
ATOM     33  C   UNL     1      -0.258   6.943   1.858  0.00  0.00    +0.009 C 
ATOM     34  C   UNL     1       2.162   6.378   1.595  0.00  0.00    +0.009 C 
ENDBRANCH  20  32
ENDBRANCH   1  20
TORSDOF 7
