REMARK  Name = ZINC24576356
REMARK  7 active torsions:
REMARK  status: ('A' for Active; 'I' for Inactive)
REMARK    1  A    between atoms: C_1  and  C_2
REMARK    2  A    between atoms: C_2  and  C_4
REMARK    3  A    between atoms: C_2  and  N_25
REMARK    4  A    between atoms: N_6  and  C_7
REMARK    5  A    between atoms: C_10  and  N_13
REMARK    6  A    between atoms: N_13  and  S_14
REMARK    7  A    between atoms: S_14  and  C_17
REMARK                            x       y       z     vdW  Elec       q    Type
REMARK                         _______ _______ _______ _____ _____    ______ ____
ROOT
ATOM      1  C   UNL     1       0.132   1.254  -0.198  0.00  0.00    +0.034 A 
ATOM      2  C   UNL     1       1.361   1.772   0.187  0.00  0.00    +0.025 A 
ATOM      3  C   UNL     1       2.456   0.939   0.305  0.00  0.00    +0.026 A 
ATOM      4  C   UNL     1       2.327  -0.418   0.039  0.00  0.00    +0.048 A 
ATOM      5  C   UNL     1       1.098  -0.937  -0.346  0.00  0.00    +0.026 A 
ATOM      6  C   UNL     1       0.003  -0.103  -0.464  0.00  0.00    +0.025 A 
ENDROOT
BRANCH   1   9
ATOM      7  C   UNL     1      -2.211   1.643  -0.029  0.00  0.00    +0.242 C 
ATOM      8  O   UNL     1      -2.351   0.530   0.433  0.00  0.00    -0.273 OA
ATOM      9  N   UNL     1      -0.978   2.100  -0.323  0.00  0.00    -0.284 N 
ATOM     10  H   UNL     1      -0.842   3.139  -0.660  0.00  0.00    +0.155 HD
BRANCH   7  12
ATOM     11  C   UNL     1      -3.293   3.798   0.546  0.00  0.00    +0.042 C 
ATOM     12  C   UNL     1      -3.416   2.514  -0.276  0.00  0.00    +0.191 C 
BRANCH  12  13
ATOM     13  N   UNL     1      -4.628   1.793   0.122  0.00  0.00    -0.240 N 
ATOM     14  C   UNL     1      -5.153   1.720   1.357  0.00  0.00    +0.219 A 
ATOM     15  N   UNL     1      -6.235   0.987   1.296  0.00  0.00    -0.223 NA
ATOM     16  C   UNL     1      -6.428   0.570   0.045  0.00  0.00    +0.245 A 
ATOM     17  N   UNL     1      -5.470   1.038  -0.711  0.00  0.00    -0.158 NA
ENDBRANCH  12  13
ENDBRANCH   7  12
ENDBRANCH   1   9
BRANCH   4  18
ATOM     18  N   UNL     1       3.436  -1.262   0.158  0.00  0.00    -0.216 N 
ATOM     19  H   UNL     1       3.342  -2.223   0.685  0.00  0.00    +0.174 HD
BRANCH  18  20
ATOM     20  S   UNL     1       4.891  -0.815  -0.494  0.00  0.00    +0.072 S 
ATOM     21  O   UNL     1       5.172   0.489  -0.005  0.00  0.00    -0.150 OA
ATOM     22  O   UNL     1       5.777  -1.909  -0.298  0.00  0.00    -0.150 OA
BRANCH  20  23
ATOM     23  C   UNL     1       4.657  -0.662  -2.234  0.00  0.00    +0.111 A 
ATOM     24  C   UNL     1       4.945  -1.728  -3.066  0.00  0.00    +0.032 A 
ATOM     25  C   UNL     1       4.757  -1.612  -4.430  0.00  0.00    +0.043 A 
ATOM     26  C   UNL     1       4.291  -0.424  -4.966  0.00  0.00    +0.159 A 
ATOM     27  C   UNL     1       4.008   0.647  -4.132  0.00  0.00    +0.160 A 
ATOM     28  C   UNL     1       4.192   0.526  -2.766  0.00  0.00    +0.070 A 
ATOM     29  F   UNL     1       3.553   1.808  -4.653  0.00  0.00    -0.202 F 
ATOM     30  F   UNL     1       4.112  -0.308  -6.300  0.00  0.00    -0.202 F 
ENDBRANCH  20  23
ENDBRANCH  18  20
ENDBRANCH   4  18
TORSDOF 6
