REMARK  Name = ZINC44874368
REMARK  7 active torsions:
REMARK  status: ('A' for Active; 'I' for Inactive)
REMARK    1  A    between atoms: C_4  and  S_7
REMARK    2  A    between atoms: S_7  and  N_10
REMARK    3  A    between atoms: C_12  and  C_21
REMARK    4  A    between atoms: N_23  and  C_24
REMARK    5  A    between atoms: C_24  and  C_25
REMARK    6  A    between atoms: C_28  and  C_31
REMARK    7  A    between atoms: C_31  and  N_32
REMARK                            x       y       z     vdW  Elec       q    Type
REMARK                         _______ _______ _______ _____ _____    ______ ____
ROOT
ATOM      1  N   UNL     1       4.378  -1.079   1.536  0.00  0.00    -0.195 N 
ATOM      2  C   UNL     1       5.192  -0.089   2.262  0.00  0.00    +0.186 C 
ATOM      3  C   UNL     1       6.242  -0.860   3.075  0.00  0.00    +0.277 C 
ATOM      4  O   UNL     1       5.570  -1.760   3.959  0.00  0.00    -0.476 OA
ATOM      5  C   UNL     1       4.603  -2.559   3.435  0.00  0.00    +0.144 A 
ATOM      6  C   UNL     1       3.986  -2.235   2.228  0.00  0.00    +0.093 A 
ATOM      7  C   UNL     1       2.995  -3.053   1.709  0.00  0.00    +0.028 A 
ATOM      8  C   UNL     1       2.614  -4.193   2.394  0.00  0.00    +0.002 A 
ATOM      9  C   UNL     1       3.221  -4.516   3.592  0.00  0.00    +0.004 A 
ATOM     10  C   UNL     1       4.221  -3.707   4.111  0.00  0.00    +0.047 A 
ENDROOT
BRANCH   3  11
ATOM     11  C   UNL     1       7.074   0.110   3.874  0.00  0.00    +0.256 C 
ATOM     12  O   UNL     1       7.031   0.091   5.086  0.00  0.00    -0.272 OA
ATOM     13  N   UNL     1       7.867   0.998   3.241  0.00  0.00    -0.308 N 
ATOM     14  H   UNL     1       7.901   1.012   2.272  0.00  0.00    +0.149 HD
BRANCH  13  15
ATOM     15  C   UNL     1       8.676   1.940   4.018  0.00  0.00    +0.139 C 
BRANCH  15  16
ATOM     16  C   UNL     1       9.465   2.816   3.079  0.00  0.00    -0.030 A 
ATOM     17  C   UNL     1      10.725   2.426   2.664  0.00  0.00    +0.005 A 
ATOM     18  C   UNL     1      11.449   3.230   1.804  0.00  0.00    +0.002 A 
ATOM     19  C   UNL     1      10.913   4.423   1.357  0.00  0.00    -0.064 A 
ATOM     20  C   UNL     1       9.653   4.813   1.771  0.00  0.00    +0.002 A 
ATOM     21  C   UNL     1       8.927   4.007   2.628  0.00  0.00    +0.005 A 
BRANCH  19  22
ATOM     22  C   UNL     1      11.702   5.300   0.419  0.00  0.00    -0.043 C 
BRANCH  22  23
ATOM     23  N   UNL     1      11.400   4.928  -0.969  0.00  0.00    +0.382 N 
ATOM     24  C   UNL     1      11.866   3.559  -1.220  0.00  0.00    -0.078 C 
ATOM     25  C   UNL     1      11.481   3.138  -2.640  0.00  0.00    -0.019 C 
ATOM     26  C   UNL     1      12.134   4.092  -3.644  0.00  0.00    -0.004 C 
ATOM     27  C   UNL     1      11.700   5.526  -3.327  0.00  0.00    -0.019 C 
ATOM     28  C   UNL     1      12.076   5.859  -1.881  0.00  0.00    -0.078 C 
ATOM     29  H   UNL     1      10.404   4.976  -1.120  0.00  0.00    -0.081 HD
ENDBRANCH  22  23
ENDBRANCH  19  22
ENDBRANCH  15  16
ENDBRANCH  13  15
ENDBRANCH   3  11
BRANCH   1  30
ATOM     30  S   UNL     1       3.934  -0.832  -0.041  0.00  0.00    +0.075 S 
ATOM     31  O   UNL     1       3.674  -2.114  -0.595  0.00  0.00    -0.150 OA
ATOM     32  O   UNL     1       4.890   0.060  -0.597  0.00  0.00    -0.150 OA
BRANCH  30  36
ATOM     33  C   UNL     1      -0.017   1.378   0.010  0.00  0.00    +0.000 A 
ATOM     34  C   UNL     1       1.171   2.086   0.002  0.00  0.00    +0.002 A 
ATOM     35  C   UNL     1       2.377   1.411  -0.013  0.00  0.00    +0.029 A 
ATOM     36  C   UNL     1       2.396   0.029  -0.020  0.00  0.00    +0.109 A 
ATOM     37  C   UNL     1       1.208  -0.679  -0.012  0.00  0.00    +0.029 A 
ATOM     38  C   UNL     1       0.002  -0.004   0.002  0.00  0.00    +0.002 A 
ENDBRANCH  30  36
ENDBRANCH   1  30
TORSDOF 7
