REMARK  Name = ZINC39629656
REMARK  6 active torsions:
REMARK  status: ('A' for Active; 'I' for Inactive)
REMARK    1  A    between atoms: C_4  and  C_7
REMARK    2  A    between atoms: C_7  and  N_8
REMARK    3  A    between atoms: C_9  and  C_11
REMARK    4  A    between atoms: C_22  and  C_24
REMARK    5  A    between atoms: C_29  and  S_30
REMARK    6  A    between atoms: S_30  and  C_31
REMARK                            x       y       z     vdW  Elec       q    Type
REMARK                         _______ _______ _______ _____ _____    ______ ____
ROOT
ATOM      1  C   UNL     1       5.759  -1.850   2.984  0.00  0.00    +0.100 C 
ATOM      2  C   UNL     1       4.697  -2.663   3.759  0.00  0.00    +0.121 C 
ATOM      3  N   UNL     1       5.134  -4.073   3.626  0.00  0.00    -0.296 N 
ATOM      4  C   UNL     1       6.610  -4.015   3.750  0.00  0.00    +0.115 C 
ATOM      5  C   UNL     1       7.014  -2.740   2.983  0.00  0.00    -0.004 C 
ATOM      6  C   UNL     1       7.412  -3.090   1.553  0.00  0.00    -0.010 C 
ATOM      7  C   UNL     1       8.694  -3.927   1.576  0.00  0.00    -0.082 C 
ATOM      8  N   UNL     1       9.765  -3.167   2.232  0.00  0.00    +0.379 N 
ATOM      9  C   UNL     1       9.414  -2.914   3.634  0.00  0.00    -0.082 C 
ATOM     10  C   UNL     1       8.162  -2.035   3.698  0.00  0.00    -0.010 C 
ATOM     11  C   UNL     1       4.363  -5.162   3.435  0.00  0.00    +0.249 C 
ATOM     12  O   UNL     1       3.167  -5.036   3.256  0.00  0.00    -0.270 OA
ATOM     13  H   UNL     1      10.624  -3.695   2.192  0.00  0.00    -0.086 HD
ATOM     14  H   UNL     1       9.893  -2.287   1.755  0.00  0.00    -0.086 HD
ENDROOT
BRANCH  11  15
ATOM     15  C   UNL     1       4.970  -6.505   3.444  0.00  0.00    +0.069 A 
ATOM     16  C   UNL     1       6.041  -6.797   4.295  0.00  0.00    +0.017 A 
ATOM     17  C   UNL     1       6.575  -8.073   4.266  0.00  0.00    +0.020 A 
ATOM     18  C   UNL     1       6.041  -9.016   3.405  0.00  0.00    +0.112 A 
ATOM     19  N   UNL     1       5.032  -8.722   2.610  0.00  0.00    -0.248 NA
ATOM     20  C   UNL     1       4.479  -7.517   2.601  0.00  0.00    +0.114 A 
BRANCH  20  21
ATOM     21  S   UNL     1       3.127  -7.182   1.523  0.00  0.00    -0.069 S 
BRANCH  21  22
ATOM     22  C   UNL     1       2.959  -8.658   0.576  0.00  0.00    +0.014 A 
ATOM     23  C   UNL     1       2.049  -9.634   0.964  0.00  0.00    +0.015 A 
ATOM     24  C   UNL     1       1.920 -10.790   0.219  0.00  0.00    +0.001 A 
ATOM     25  C   UNL     1       2.696 -10.977  -0.910  0.00  0.00    +0.000 A 
ATOM     26  C   UNL     1       3.603 -10.008  -1.298  0.00  0.00    +0.001 A 
ATOM     27  C   UNL     1       3.733  -8.847  -0.562  0.00  0.00    +0.015 A 
ENDBRANCH  21  22
ENDBRANCH  20  21
ENDBRANCH  11  15
BRANCH   1  29
ATOM     28  N   UNL     1       5.686  -0.477   0.928  0.00  0.00    -0.311 N 
ATOM     29  C   UNL     1       5.296  -1.595   1.573  0.00  0.00    +0.218 C 
ATOM     30  O   UNL     1       4.574  -2.394   1.017  0.00  0.00    -0.275 OA
ATOM     31  H   UNL     1       6.263   0.163   1.373  0.00  0.00    +0.149 HD
BRANCH  28  32
ATOM     32  C   UNL     1       5.236  -0.228  -0.444  0.00  0.00    +0.139 C 
BRANCH  32  36
ATOM     33  C   UNL     1       6.855   3.476  -1.825  0.00  0.00    +0.000 A 
ATOM     34  C   UNL     1       7.555   2.300  -2.020  0.00  0.00    +0.000 A 
ATOM     35  C   UNL     1       7.031   1.102  -1.573  0.00  0.00    +0.005 A 
ATOM     36  C   UNL     1       5.807   1.079  -0.930  0.00  0.00    -0.030 A 
ATOM     37  C   UNL     1       5.108   2.255  -0.734  0.00  0.00    +0.005 A 
ATOM     38  C   UNL     1       5.631   3.454  -1.183  0.00  0.00    +0.000 A 
ENDBRANCH  32  36
ENDBRANCH  28  32
ENDBRANCH   1  29
TORSDOF 6
