REMARK  Name = ZINC13345723
REMARK  7 active torsions:
REMARK  status: ('A' for Active; 'I' for Inactive)
REMARK    1  A    between atoms: C_1  and  C_2
REMARK    2  A    between atoms: C_2  and  N_3
REMARK    3  A    between atoms: C_14  and  N_16
REMARK    4  A    between atoms: N_16  and  S_17
REMARK    5  A    between atoms: S_17  and  C_20
REMARK    6  A    between atoms: C_23  and  C_26
REMARK    7  A    between atoms: C_27  and  C_28
REMARK                            x       y       z     vdW  Elec       q    Type
REMARK                         _______ _______ _______ _____ _____    ______ ____
ROOT
ATOM      1  N   UNL     1       3.079   4.319  -1.587  0.00  0.00    -0.216 N 
ATOM      2  H   UNL     1       3.877   3.910  -1.956  0.00  0.00    +0.174 HD
ENDROOT
BRANCH   1  14
ATOM      3  N   UNL     1      -0.110   7.340  -4.973  0.00  0.00    -0.340 N 
ATOM      4  C   UNL     1      -0.150   6.537  -6.098  0.00  0.00    +0.050 A 
ATOM      5  C   UNL     1      -0.775   6.685  -7.333  0.00  0.00    +0.026 A 
ATOM      6  C   UNL     1      -0.646   5.706  -8.294  0.00  0.00    +0.002 A 
ATOM      7  C   UNL     1       0.105   4.567  -8.044  0.00  0.00    +0.001 A 
ATOM      8  C   UNL     1       0.732   4.403  -6.827  0.00  0.00    +0.010 A 
ATOM      9  C   UNL     1       0.609   5.385  -5.847  0.00  0.00    +0.008 A 
ATOM     10  C   UNL     1       1.135   5.520  -4.476  0.00  0.00    +0.009 A 
ATOM     11  C   UNL     1       0.659   6.745  -3.986  0.00  0.00    +0.050 A 
ATOM     12  C   UNL     1       0.999   7.145  -2.697  0.00  0.00    +0.028 A 
ATOM     13  C   UNL     1       1.796   6.342  -1.911  0.00  0.00    +0.026 A 
ATOM     14  C   UNL     1       2.269   5.126  -2.396  0.00  0.00    +0.049 A 
ATOM     15  C   UNL     1       1.945   4.716  -3.678  0.00  0.00    +0.035 A 
BRANCH   3  17
ATOM     16  C   UNL     1       0.157   9.747  -5.315  0.00  0.00    +0.027 C 
ATOM     17  C   UNL     1      -0.783   8.635  -4.844  0.00  0.00    +0.119 C 
ENDBRANCH   3  17
ENDBRANCH   1  14
BRANCH   1  18
ATOM     18  S   UNL     1       2.672   4.062  -0.003  0.00  0.00    +0.072 S 
ATOM     19  O   UNL     1       2.395   5.338   0.557  0.00  0.00    -0.150 OA
ATOM     20  O   UNL     1       3.660   3.193   0.534  0.00  0.00    -0.150 OA
BRANCH  18  21
ATOM     21  C   UNL     1       1.154   3.167   0.008  0.00  0.00    +0.109 A 
ATOM     22  C   UNL     1       1.171   1.783   0.001  0.00  0.00    +0.029 A 
ATOM     23  C   UNL     1      -0.013   1.076   0.008  0.00  0.00    +0.010 A 
ATOM     24  C   UNL     1      -1.232   1.760   0.017  0.00  0.00    -0.025 A 
ATOM     25  C   UNL     1      -1.240   3.159   0.030  0.00  0.00    +0.010 A 
ATOM     26  C   UNL     1      -0.049   3.852   0.022  0.00  0.00    +0.029 A 
BRANCH  24  27
ATOM     27  C   UNL     1      -2.500   1.013   0.019  0.00  0.00    +0.015 C 
ATOM     28  C   UNL     1      -3.674   1.677   0.028  0.00  0.00    +0.096 C 
BRANCH  28  29
ATOM     29  C   UNL     1      -4.934   0.934   0.030  0.00  0.00    +0.380 C 
ATOM     30  O   UNL     1      -4.923  -0.282   0.024  0.00  0.00    -0.241 OA
ATOM     31  O   UNL     1      -6.109   1.598   0.040  0.00  0.00    -0.241 OA
ENDBRANCH  28  29
ENDBRANCH  24  27
ENDBRANCH  18  21
ENDBRANCH   1  18
TORSDOF 6
