REMARK  Name = ZINC44841508
REMARK  6 active torsions:
REMARK  status: ('A' for Active; 'I' for Inactive)
REMARK    1  A    between atoms: C_1  and  C_2
REMARK    2  A    between atoms: C_2  and  C_3
REMARK    3  A    between atoms: C_9  and  C_11
REMARK    4  A    between atoms: C_11  and  C_13
REMARK    5  A    between atoms: C_11  and  C_14
REMARK    6  A    between atoms: C_14  and  N_16
REMARK                            x       y       z     vdW  Elec       q    Type
REMARK                         _______ _______ _______ _____ _____    ______ ____
ROOT
ATOM      1  C   UNL     1       1.008  -0.743   1.063  0.00  0.00    +0.076 C 
ATOM      2  C   UNL     1       1.180  -2.274   0.972  0.00  0.00    +0.024 C 
ATOM      3  C   UNL     1       2.658  -2.483   1.394  0.00  0.00    +0.021 C 
ATOM      4  C   UNL     1       3.335  -1.228   0.791  0.00  0.00    +0.108 C 
ATOM      5  N   UNL     1       2.347  -0.144   0.966  0.00  0.00    -0.298 N 
ATOM      6  C   UNL     1       2.624   1.174   1.026  0.00  0.00    +0.225 C 
ATOM      7  O   UNL     1       1.740   1.970   1.264  0.00  0.00    -0.275 OA
ENDROOT
BRANCH   1   9
ATOM      8  C   UNL     1      -0.158   1.243   0.095  0.00  0.00    +0.006 C 
ATOM      9  C   UNL     1       0.132  -0.248  -0.089  0.00  0.00    +0.019 C 
ENDBRANCH   1   9
BRANCH   6  10
ATOM     10  C   UNL     1       4.033   1.659   0.797  0.00  0.00    +0.123 C 
ATOM     11  C   UNL     1       4.226   3.010   1.488  0.00  0.00    +0.024 C 
BRANCH  10  12
ATOM     12  C   UNL     1       4.277   1.812  -0.682  0.00  0.00    +0.058 C 
ATOM     13  S   UNL     1       3.041   1.905  -1.691  0.00  0.00    -0.040 S 
BRANCH  12  14
ATOM     14  N   UNL     1       5.538   1.871  -1.154  0.00  0.00    -0.355 N 
ATOM     15  H   UNL     1       6.288   1.814  -0.542  0.00  0.00    +0.143 HD
ATOM     16  H   UNL     1       5.696   1.969  -2.106  0.00  0.00    +0.143 HD
ENDBRANCH  12  14
ENDBRANCH  10  12
ENDBRANCH   6  10
TORSDOF 4
