REMARK  Name = ZINC62564671
REMARK  8 active torsions:
REMARK  status: ('A' for Active; 'I' for Inactive)
REMARK    1  A    between atoms: C_1  and  C_2
REMARK    2  A    between atoms: N_6  and  C_23
REMARK    3  A    between atoms: C_9  and  S_14
REMARK    4  A    between atoms: S_14  and  N_17
REMARK    5  A    between atoms: N_17  and  C_18
REMARK    6  A    between atoms: C_18  and  C_19
REMARK    7  A    between atoms: C_19  and  C_21
REMARK    8  A    between atoms: C_19  and  O_22
REMARK                            x       y       z     vdW  Elec       q    Type
REMARK                         _______ _______ _______ _____ _____    ______ ____
ROOT
ATOM      1  C   UNL     1      -0.019   1.526   0.010  0.00  0.00    +0.062 C 
ATOM      2  C   UNL     1       0.002  -0.004   0.002  0.00  0.00    +0.256 C 
ATOM      3  C   UNL     1       0.706  -0.490  -1.239  0.00  0.00    +0.260 C 
ATOM      4  O   UNL     1       0.074  -0.718  -2.249  0.00  0.00    -0.271 OA
ATOM      5  N   UNL     1       2.045  -0.669  -1.223  0.00  0.00    -0.268 N 
ATOM      6  C   UNL     1       2.748  -0.433  -0.033  0.00  0.00    +0.080 A 
ATOM      7  C   UNL     1       4.126  -0.291  -0.041  0.00  0.00    +0.055 A 
ATOM      8  C   UNL     1       4.800  -0.060   1.144  0.00  0.00    +0.107 A 
ATOM      9  C   UNL     1       4.102   0.032   2.335  0.00  0.00    +0.032 A 
ATOM     10  C   UNL     1       2.726  -0.108   2.349  0.00  0.00    +0.049 A 
ATOM     11  C   UNL     1       2.045  -0.340   1.167  0.00  0.00    +0.143 A 
ATOM     12  O   UNL     1       0.692  -0.477   1.161  0.00  0.00    -0.478 OA
ATOM     13  C   UNL     1       2.752  -1.105  -2.430  0.00  0.00    +0.138 C 
ENDROOT
BRANCH   8  14
ATOM     14  S   UNL     1       6.552   0.121   1.137  0.00  0.00    +0.059 S 
ATOM     15  O   UNL     1       7.000  -0.213   2.444  0.00  0.00    -0.153 OA
ATOM     16  O   UNL     1       7.025  -0.548  -0.024  0.00  0.00    -0.153 OA
BRANCH  14  17
ATOM     17  N   UNL     1       6.878   1.730   0.922  0.00  0.00    -0.188 NA
ATOM     18  H   UNL     1       7.329   2.030   0.117  0.00  0.00    +0.148 HD
BRANCH  17  19
ATOM     19  C   UNL     1       6.485   2.700   1.947  0.00  0.00    +0.136 C 
BRANCH  19  20
ATOM     20  C   UNL     1       7.211   4.025   1.700  0.00  0.00    +0.127 C 
ATOM     21  C   UNL     1       6.898   4.997   2.839  0.00  0.00    +0.039 C 
BRANCH  20  22
ATOM     22  O   UNL     1       6.772   4.585   0.461  0.00  0.00    -0.391 OA
ATOM     23  H   UNL     1       7.191   5.428   0.240  0.00  0.00    +0.210 HD
ENDBRANCH  20  22
ENDBRANCH  19  20
ENDBRANCH  17  19
ENDBRANCH  14  17
ENDBRANCH   8  14
TORSDOF 5
