REMARK  Name = ZINC59384882
REMARK  8 active torsions:
REMARK  status: ('A' for Active; 'I' for Inactive)
REMARK    1  A    between atoms: C_1  and  C_2
REMARK    2  A    between atoms: C_2  and  O_3
REMARK    3  A    between atoms: O_3  and  C_4
REMARK    4  A    between atoms: C_7  and  C_10
REMARK    5  A    between atoms: N_11  and  N_12
REMARK    6  A    between atoms: C_13  and  C_15
REMARK    7  A    between atoms: C_16  and  C_30
REMARK    8  A    between atoms: C_21  and  C_23
REMARK                            x       y       z     vdW  Elec       q    Type
REMARK                         _______ _______ _______ _____ _____    ______ ____
ROOT
ATOM      1  C   UNL     1      -4.911  -9.835   0.049  0.00  0.00    +0.057 C 
ATOM      2  C   UNL     1      -6.161 -10.344   0.044  0.00  0.00    +0.017 C 
ATOM      3  N   UNL     1      -6.373 -11.694   0.032  0.00  0.00    -0.300 N 
ATOM      4  C   UNL     1      -5.387 -12.600   0.026  0.00  0.00    +0.135 C 
ATOM      5  S   UNL     1      -5.792 -14.263   0.012  0.00  0.00    -0.019 S 
ATOM      6  N   UNL     1      -4.087 -12.245   0.030  0.00  0.00    -0.315 N 
ATOM      7  C   UNL     1      -3.752 -10.811   0.037  0.00  0.00    +0.141 C 
ATOM      8  C   UNL     1      -7.342  -9.409   0.050  0.00  0.00    +0.061 C 
ATOM      9  H   UNL     1      -7.289 -12.013   0.029  0.00  0.00    +0.154 HD
ATOM     10  H   UNL     1      -3.389 -12.918   0.025  0.00  0.00    +0.149 HD
ENDROOT
BRANCH   7  11
ATOM     11  C   UNL     1      -2.913 -10.520  -1.181  0.00  0.00    -0.004 A 
ATOM     12  C   UNL     1      -3.159 -11.188  -2.366  0.00  0.00    +0.007 A 
ATOM     13  C   UNL     1      -2.389 -10.922  -3.482  0.00  0.00    +0.000 A 
ATOM     14  C   UNL     1      -1.373  -9.987  -3.415  0.00  0.00    +0.001 A 
ATOM     15  C   UNL     1      -1.126  -9.319  -2.231  0.00  0.00    +0.020 A 
ATOM     16  C   UNL     1      -1.900  -9.581  -1.114  0.00  0.00    +0.046 A 
ATOM     17 CL   UNL     1      -1.594  -8.737   0.372  0.00  0.00    -0.083 Cl
ENDBRANCH   7  11
BRANCH   1  19
ATOM     18  N   UNL     1      -4.785  -7.730  -1.083  0.00  0.00    -0.203 N 
ATOM     19  C   UNL     1      -4.690  -8.437   0.061  0.00  0.00    +0.263 C 
ATOM     20  O   UNL     1      -4.414  -7.872   1.104  0.00  0.00    -0.269 OA
ATOM     21  H   UNL     1      -5.075  -8.166  -1.900  0.00  0.00    +0.178 HD
BRANCH  18  23
ATOM     22  C   UNL     1      -4.647  -5.664  -2.169  0.00  0.00    +0.138 C 
ATOM     23  N   UNL     1      -4.464  -6.366  -1.093  0.00  0.00    -0.187 NA
BRANCH  22  27
ATOM     24  C   UNL     1      -3.977  -1.472  -2.108  0.00  0.00    +0.121 A 
ATOM     25  C   UNL     1      -4.393  -2.090  -3.280  0.00  0.00    +0.046 A 
ATOM     26  C   UNL     1      -4.611  -3.450  -3.305  0.00  0.00    +0.013 A 
ATOM     27  C   UNL     1      -4.414  -4.208  -2.148  0.00  0.00    -0.005 A 
ATOM     28  C   UNL     1      -3.996  -3.583  -0.970  0.00  0.00    +0.013 A 
ATOM     29  C   UNL     1      -3.775  -2.223  -0.957  0.00  0.00    +0.046 A 
BRANCH  24  30
ATOM     30  O   UNL     1      -3.763  -0.131  -2.088  0.00  0.00    -0.492 OA
BRANCH  30  32
ATOM     31  C   UNL     1      -3.699   2.067  -3.091  0.00  0.00    +0.048 C 
ATOM     32  C   UNL     1      -3.990   0.580  -3.307  0.00  0.00    +0.225 C 
ENDBRANCH  30  32
ENDBRANCH  24  30
ENDBRANCH  22  27
ENDBRANCH  18  23
ENDBRANCH   1  19
TORSDOF 6
