REMARK  Name = ZINC19376351
REMARK  5 active torsions:
REMARK  status: ('A' for Active; 'I' for Inactive)
REMARK    1  A    between atoms: N_15  and  C_18
REMARK    2  A    between atoms: C_18  and  C_19
REMARK    3  A    between atoms: C_19  and  C_21
REMARK    4  A    between atoms: C_19  and  O_30
REMARK    5  A    between atoms: C_32  and  O_34
REMARK                            x       y       z     vdW  Elec       q    Type
REMARK                         _______ _______ _______ _____ _____    ______ ____
ROOT
ATOM      1  C   UNL     1      -3.627   1.784   0.040  0.00  0.00    +0.001 A 
ATOM      2  C   UNL     1      -3.622   3.177   0.051  0.00  0.00    +0.001 A 
ATOM      3  C   UNL     1      -2.453   3.874   0.047  0.00  0.00    +0.012 A 
ATOM      4  C   UNL     1      -1.232   3.181   0.033  0.00  0.00    +0.024 A 
ATOM      5  C   UNL     1      -1.236   1.766   0.018  0.00  0.00    -0.014 A 
ATOM      6  C   UNL     1      -2.463   1.079   0.026  0.00  0.00    +0.008 A 
ATOM      7  C   UNL     1      -0.013   1.076   0.008  0.00  0.00    +0.009 A 
ATOM      8  C   UNL     1       1.153   1.775   0.001  0.00  0.00    +0.010 A 
ATOM      9  C   UNL     1       1.167   3.172   0.011  0.00  0.00    +0.023 A 
ATOM     10  C   UNL     1      -0.001   3.876   0.031  0.00  0.00    +0.135 A 
ATOM     11  O   UNL     1      -0.027   5.233   0.052  0.00  0.00    -0.485 OA
ATOM     12  C   UNL     1       1.160   5.933  -0.314  0.00  0.00    +0.110 C 
ATOM     13  C   UNL     1       1.401   5.799  -1.819  0.00  0.00    +0.029 C 
ATOM     14  C   UNL     1       0.251   6.468  -2.576  0.00  0.00    -0.075 C 
ATOM     15  N   UNL     1       0.172   7.884  -2.196  0.00  0.00    +0.382 N 
ATOM     16  C   UNL     1      -0.112   8.034  -0.763  0.00  0.00    -0.075 C 
ATOM     17  C   UNL     1       1.026   7.412   0.051  0.00  0.00    +0.029 C 
ATOM     18  C   UNL     1       2.340   5.322   0.451  0.00  0.00    +0.084 C 
ATOM     19  C   UNL     1       2.505   3.871  -0.005  0.00  0.00    +0.152 C 
ATOM     20  H   UNL     1       1.153   8.340  -2.392  0.00  0.00    -0.082 HD
ENDROOT
BRANCH  19  21
ATOM     21  O   UNL     1       3.404   3.195   0.876  0.00  0.00    -0.387 OA
ATOM     22  H   UNL     1       4.434   3.561   0.998  0.00  0.00    +0.210 HD
ENDBRANCH  19  21
BRANCH  15  23
ATOM     23  C   UNL     1      -0.828   8.592  -3.007  0.00  0.00    -0.042 C 
BRANCH  23  24
ATOM     24  C   UNL     1      -0.369   8.626  -4.466  0.00  0.00    +0.128 C 
BRANCH  24  25
ATOM     25  C   UNL     1      -1.394   9.352  -5.298  0.00  0.00    -0.020 A 
ATOM     26  C   UNL     1      -1.363  10.732  -5.389  0.00  0.00    +0.009 A 
ATOM     27  C   UNL     1      -2.298  11.401  -6.151  0.00  0.00    +0.046 A 
ATOM     28  C   UNL     1      -3.290  10.694  -6.825  0.00  0.00    +0.124 A 
ATOM     29  C   UNL     1      -3.310   9.309  -6.727  0.00  0.00    -0.002 A 
ATOM     30  C   UNL     1      -2.373   8.642  -5.969  0.00  0.00    +0.013 A 
ATOM     31  C   UNL     1      -4.474   8.820  -7.568  0.00  0.00    +0.080 C 
ATOM     32  C   UNL     1      -4.796  10.069  -8.423  0.00  0.00    +0.234 C 
ATOM     33  O   UNL     1      -4.308  11.148  -7.607  0.00  0.00    -0.491 OA
ENDBRANCH  24  25
BRANCH  24  34
ATOM     34  O   UNL     1       0.885   9.306  -4.555  0.00  0.00    -0.389 OA
ATOM     35  H   UNL     1       1.375   9.431  -5.532  0.00  0.00    +0.210 HD
ENDBRANCH  24  34
ENDBRANCH  23  24
ENDBRANCH  15  23
TORSDOF 5
