REMARK  Name = ZINC43553909
REMARK  13 active torsions:
REMARK  status: ('A' for Active; 'I' for Inactive)
REMARK    1  A    between atoms: C_1  and  C_2
REMARK    2  A    between atoms: C_5  and  N_8
REMARK    3  A    between atoms: C_9  and  O_11
REMARK    4  A    between atoms: O_11  and  C_12
REMARK    5  A    between atoms: C_16  and  C_40
REMARK    6  A    between atoms: C_19  and  C_20
REMARK    7  A    between atoms: C_19  and  C_21
REMARK    8  A    between atoms: C_21  and  O_22
REMARK    9  A    between atoms: C_25  and  O_39
REMARK   10  A    between atoms: C_27  and  C_29
REMARK   11  A    between atoms: C_29  and  C_30
REMARK   12  A    between atoms: N_32  and  C_33
REMARK   13  A    between atoms: C_33  and  C_34
REMARK                            x       y       z     vdW  Elec       q    Type
REMARK                         _______ _______ _______ _____ _____    ______ ____
ROOT
ATOM      1  C   UNL     1       1.462  -7.444   2.767  0.00  0.00    +0.186 C 
ATOM      2  C   UNL     1       2.820  -8.109   2.947  0.00  0.00    +0.046 C 
ATOM      3  C   UNL     1       3.207  -8.848   1.664  0.00  0.00    +0.011 C 
ATOM      4  C   UNL     1       2.189  -9.957   1.390  0.00  0.00    -0.023 C 
ATOM      5  C   UNL     1       0.792  -9.371   1.270  0.00  0.00    +0.007 C 
ATOM      6  C   UNL     1       0.372  -8.449   2.397  0.00  0.00    +0.031 C 
ATOM      7  C   UNL     1      -0.079  -9.209   3.645  0.00  0.00    +0.017 C 
ATOM      8  C   UNL     1      -0.225 -10.488   1.032  0.00  0.00    +0.007 C 
ATOM      9  C   UNL     1       0.114 -11.177  -0.295  0.00  0.00    +0.032 C 
ATOM     10  C   UNL     1       1.523 -11.760  -0.240  0.00  0.00    +0.119 C 
ATOM     11  C   UNL     1       2.561 -10.693   0.098  0.00  0.00    +0.032 C 
ATOM     12  C   UNL     1       2.280 -10.983   2.530  0.00  0.00    +0.012 C 
ENDROOT
BRANCH  10  13
ATOM     13  O   UNL     1       1.841 -12.326  -1.521  0.00  0.00    -0.391 OA
ATOM     14  H   UNL     1       1.243 -13.034  -1.797  0.00  0.00    +0.210 HD
ENDBRANCH  10  13
BRANCH   1  15
ATOM     15  O   UNL     1       1.549  -6.445   1.744  0.00  0.00    -0.446 OA
BRANCH  15  17
ATOM     16  N   UNL     1       2.007  -4.219   1.217  0.00  0.00    -0.251 N 
ATOM     17  C   UNL     1       1.906  -5.205   2.130  0.00  0.00    +0.405 C 
ATOM     18  O   UNL     1       2.137  -4.976   3.300  0.00  0.00    -0.226 OA
ATOM     19  H   UNL     1       1.757  -4.384   0.294  0.00  0.00    +0.158 HD
BRANCH  16  24
ATOM     20  C   UNL     1       3.901   0.898   2.770  0.00  0.00    +0.044 C 
ATOM     21  C   UNL     1       3.398  -0.461   2.357  0.00  0.00    -0.050 A 
ATOM     22  C   UNL     1       2.627  -1.206   3.231  0.00  0.00    +0.005 A 
ATOM     23  C   UNL     1       2.165  -2.452   2.856  0.00  0.00    +0.023 A 
ATOM     24  C   UNL     1       2.474  -2.956   1.600  0.00  0.00    +0.036 A 
ATOM     25  C   UNL     1       3.247  -2.205   0.724  0.00  0.00    +0.023 A 
ATOM     26  C   UNL     1       3.702  -0.958   1.103  0.00  0.00    +0.005 A 
ENDBRANCH  16  24
ENDBRANCH  15  17
ENDBRANCH   1  15
BRANCH   6  27
ATOM     27  C   UNL     1      -0.841  -7.621   1.907  0.00  0.00    +0.166 C 
BRANCH  27  28
ATOM     28  O   UNL     1      -1.280  -6.753   2.955  0.00  0.00    -0.394 OA
ATOM     29  H   UNL     1      -2.039  -6.203   2.718  0.00  0.00    +0.209 HD
ENDBRANCH  27  28
ENDBRANCH   6  27
BRANCH  11  30
ATOM     30  C   UNL     1       2.720  -9.731  -1.075  0.00  0.00    +0.102 C 
BRANCH  30  31
ATOM     31  C   UNL     1       3.439 -10.427  -2.202  0.00  0.00    +0.214 C 
ATOM     32  O   UNL     1       3.920 -11.526  -2.027  0.00  0.00    -0.276 OA
ATOM     33  N   UNL     1       3.546  -9.828  -3.404  0.00  0.00    -0.308 N 
ATOM     34  H   UNL     1       3.162  -8.949  -3.545  0.00  0.00    +0.149 HD
BRANCH  33  35
ATOM     35  C   UNL     1       4.245 -10.505  -4.500  0.00  0.00    +0.178 C 
BRANCH  35  36
ATOM     36  C   UNL     1       4.224  -9.629  -5.726  0.00  0.00    +0.122 A 
ATOM     37  C   UNL     1       5.155  -8.715  -6.055  0.00  0.00    +0.046 A 
ATOM     38  C   UNL     1       4.740  -8.130  -7.274  0.00  0.00    +0.041 A 
ATOM     39  C   UNL     1       3.582  -8.721  -7.616  0.00  0.00    +0.195 A 
ATOM     40  O   UNL     1       3.277  -9.633  -6.678  0.00  0.00    -0.466 OA
ENDBRANCH  35  36
ENDBRANCH  33  35
ENDBRANCH  30  31
ENDBRANCH  11  30
TORSDOF 10
