REMARK  Name = ZINC36092076
REMARK  12 active torsions:
REMARK  status: ('A' for Active; 'I' for Inactive)
REMARK    1  A    between atoms: C_1  and  C_2
REMARK    2  A    between atoms: C_2  and  C_3
REMARK    3  A    between atoms: C_3  and  C_4
REMARK    4  A    between atoms: C_4  and  N_5
REMARK    5  A    between atoms: N_5  and  C_6
REMARK    6  A    between atoms: N_5  and  C_10
REMARK    7  A    between atoms: C_6  and  C_7
REMARK    8  A    between atoms: C_7  and  C_8
REMARK    9  A    between atoms: C_8  and  C_9
REMARK   10  A    between atoms: C_10  and  C_11
REMARK   11  A    between atoms: C_15  and  C_25
REMARK   12  A    between atoms: C_16  and  O_17
REMARK                            x       y       z     vdW  Elec       q    Type
REMARK                         _______ _______ _______ _____ _____    ______ ____
ROOT
ATOM      1  C   UNL     1      -0.367  -4.217  -2.849  0.00  0.00    +0.203 C 
ATOM      2  O   UNL     1      -1.170  -3.308  -2.749  0.00  0.00    -0.277 OA
ATOM      3  N   UNL     1      -0.792  -5.460  -3.047  0.00  0.00    -0.257 N 
ATOM      4  C   UNL     1      -2.099  -5.711  -3.136  0.00  0.00    +0.204 A 
ATOM      5  C   UNL     1      -2.530  -7.037  -3.340  0.00  0.00    +0.082 A 
ATOM      6  C   UNL     1      -3.894  -7.304  -3.433  0.00  0.00    +0.140 A 
ATOM      7  C   UNL     1      -4.823  -6.173  -3.311  0.00  0.00    +0.059 A 
ATOM      8  C   UNL     1      -6.205  -6.365  -3.394  0.00  0.00    +0.015 A 
ATOM      9  C   UNL     1      -7.046  -5.294  -3.276  0.00  0.00    +0.001 A 
ATOM     10  C   UNL     1      -6.537  -4.019  -3.076  0.00  0.00    +0.004 A 
ATOM     11  C   UNL     1      -5.176  -3.809  -2.992  0.00  0.00    +0.047 A 
ATOM     12  C   UNL     1      -4.302  -4.884  -3.108  0.00  0.00    +0.141 A 
ATOM     13  O   UNL     1      -2.969  -4.696  -3.023  0.00  0.00    -0.440 OA
ATOM     14  H   UNL     1      -0.152  -6.184  -3.127  0.00  0.00    +0.158 HD
ENDROOT
BRANCH   5  15
ATOM     15  C   UNL     1      -1.542  -8.136  -3.456  0.00  0.00    -0.009 A 
ATOM     16  C   UNL     1      -0.744  -8.476  -2.365  0.00  0.00    +0.011 A 
ATOM     17  C   UNL     1       0.174  -9.500  -2.477  0.00  0.00    +0.039 A 
ATOM     18  C   UNL     1       0.304 -10.189  -3.672  0.00  0.00    +0.123 A 
ATOM     19  C   UNL     1      -0.487  -9.854  -4.759  0.00  0.00    +0.039 A 
ATOM     20  C   UNL     1      -1.413  -8.836  -4.655  0.00  0.00    +0.011 A 
ATOM     21  F   UNL     1       1.205 -11.190  -3.778  0.00  0.00    -0.205 F 
ENDBRANCH   5  15
BRANCH   6  22
ATOM     22  O   UNL     1      -4.348  -8.562  -3.629  0.00  0.00    -0.505 OA
ATOM     23  H   UNL     1      -5.311  -8.630  -3.677  0.00  0.00    +0.292 HD
ENDBRANCH   6  22
BRANCH   1  24
ATOM     24  C   UNL     1       1.109  -3.932  -2.748  0.00  0.00    +0.019 C 
BRANCH  24  25
ATOM     25  N   UNL     1       1.317  -2.495  -2.531  0.00  0.00    +0.385 N 
ATOM     26  H   UNL     1       0.856  -1.974  -3.261  0.00  0.00    -0.081 HD
BRANCH  25  27
ATOM     27  C   UNL     1       0.758  -2.111  -1.228  0.00  0.00    -0.078 C 
BRANCH  27  28
ATOM     28  C   UNL     1       0.841  -0.592  -1.065  0.00  0.00    -0.019 C 
BRANCH  28  30
ATOM     29  C   UNL     1       0.222   1.340   0.394  0.00  0.00    +0.004 C 
ATOM     30  C   UNL     1       0.139  -0.179   0.231  0.00  0.00    -0.005 C 
ENDBRANCH  28  30
ENDBRANCH  27  28
ENDBRANCH  25  27
BRANCH  25  31
ATOM     31  C   UNL     1       2.756  -2.199  -2.552  0.00  0.00    -0.078 C 
BRANCH  31  32
ATOM     32  C   UNL     1       3.310  -2.463  -3.954  0.00  0.00    -0.019 C 
BRANCH  32  33
ATOM     33  C   UNL     1       4.776  -2.030  -4.013  0.00  0.00    -0.005 C 
ATOM     34  C   UNL     1       5.330  -2.294  -5.414  0.00  0.00    +0.004 C 
ENDBRANCH  32  33
ENDBRANCH  31  32
ENDBRANCH  25  31
ENDBRANCH  24  25
ENDBRANCH   1  24
TORSDOF 10
