REMARK  Name = ZINC35187003
REMARK  6 active torsions:
REMARK  status: ('A' for Active; 'I' for Inactive)
REMARK    1  A    between atoms: C_1  and  C_2
REMARK    2  A    between atoms: C_2  and  C_3
REMARK    3  A    between atoms: C_2  and  C_4
REMARK    4  A    between atoms: C_4  and  C_6
REMARK    5  A    between atoms: C_4  and  N_16
REMARK    6  A    between atoms: C_12  and  O_15
REMARK                            x       y       z     vdW  Elec       q    Type
REMARK                         _______ _______ _______ _____ _____    ______ ____
ROOT
ATOM      1  C   UNL     1      -1.352  -0.575   0.132  0.00  0.00    +0.163 C 
ENDROOT
BRANCH   1   2
ATOM      2  C   UNL     1      -1.212  -2.069   0.262  0.00  0.00    +0.236 C 
ATOM      3  O   UNL     1      -1.654  -2.797  -0.603  0.00  0.00    -0.274 OA
ATOM      4  N   UNL     1      -0.597  -2.598   1.338  0.00  0.00    -0.297 N 
ATOM      5  C   UNL     1       0.037  -1.730   2.339  0.00  0.00    +0.108 C 
ATOM      6  C   UNL     1      -0.516  -2.087   3.722  0.00  0.00    +0.021 C 
ATOM      7  C   UNL     1      -0.321  -3.583   3.975  0.00  0.00    +0.034 C 
ATOM      8  C   UNL     1      -1.093  -4.385   2.924  0.00  0.00    +0.132 C 
ATOM      9  C   UNL     1      -0.552  -4.053   1.535  0.00  0.00    +0.139 C 
BRANCH   8  10
ATOM     10  O   UNL     1      -0.936  -5.782   3.179  0.00  0.00    -0.390 OA
ATOM     11  H   UNL     1      -1.260  -6.062   4.046  0.00  0.00    +0.210 HD
ENDBRANCH   8  10
ENDBRANCH   1   2
BRANCH   1  12
ATOM     12  N   UNL     1      -2.603  -0.259  -0.562  0.00  0.00    -0.288 N 
ATOM     13  C   UNL     1      -3.200   0.934  -0.367  0.00  0.00    +0.298 C 
ATOM     14  O   UNL     1      -2.699   1.748   0.384  0.00  0.00    -0.253 OA
ATOM     15  N   UNL     1      -4.351   1.224  -1.006  0.00  0.00    -0.313 N 
ATOM     16  H   UNL     1      -3.002  -0.909  -1.161  0.00  0.00    +0.151 HD
ATOM     17  H   UNL     1      -4.750   0.574  -1.605  0.00  0.00    +0.146 HD
ATOM     18  H   UNL     1      -4.780   2.082  -0.866  0.00  0.00    +0.146 HD
ENDBRANCH   1  12
BRANCH   1  20
ATOM     19  C   UNL     1      -0.274   1.506  -0.736  0.00  0.00    +0.009 C 
ATOM     20  C   UNL     1      -0.172  -0.019  -0.667  0.00  0.00    +0.012 C 
ATOM     21  C   UNL     1       1.139  -0.412   0.018  0.00  0.00    +0.009 C 
ENDBRANCH   1  20
TORSDOF 4
