REMARK  Name = ZINC33058996
REMARK  13 active torsions:
REMARK  status: ('A' for Active; 'I' for Inactive)
REMARK    1  A    between atoms: C_1  and  C_2
REMARK    2  A    between atoms: C_4  and  C_38
REMARK    3  A    between atoms: C_5  and  C_9
REMARK    4  A    between atoms: C_6  and  C_8
REMARK    5  A    between atoms: C_10  and  C_11
REMARK    6  A    between atoms: C_12  and  S_17
REMARK    7  A    between atoms: C_13  and  C_16
REMARK    8  A    between atoms: S_17  and  N_20
REMARK    9  A    between atoms: C_23  and  C_26
REMARK   10  A    between atoms: N_28  and  C_29
REMARK   11  A    between atoms: C_32  and  C_35
REMARK   12  A    between atoms: C_35  and  C_36
REMARK   13  A    between atoms: C_35  and  C_37
REMARK                            x       y       z     vdW  Elec       q    Type
REMARK                         _______ _______ _______ _____ _____    ______ ____
ROOT
ATOM      1  S   UNL     1      -6.479   7.166   8.096  0.00  0.00    +0.066 S 
ATOM      2  O   UNL     1      -7.472   6.364   8.722  0.00  0.00    -0.153 OA
ATOM      3  O   UNL     1      -5.950   8.336   8.704  0.00  0.00    -0.153 OA
ENDROOT
BRANCH   1   5
ATOM      4  C   UNL     1      -6.802   8.760   5.786  0.00  0.00    +0.187 A 
ATOM      5  C   UNL     1      -7.141   7.662   6.540  0.00  0.00    +0.174 A 
ATOM      6  C   UNL     1      -8.144   7.029   5.781  0.00  0.00    +0.107 A 
ATOM      7  N   UNL     1      -8.309   7.748   4.706  0.00  0.00    -0.081 NA
ATOM      8  O   UNL     1      -7.576   8.709   4.685  0.00  0.00    -0.353 OA
ATOM      9  C   UNL     1      -8.883   5.767   6.142  0.00  0.00    +0.071 C 
BRANCH   4  11
ATOM     10  C   UNL     1      -5.580  10.803   5.267  0.00  0.00    +0.012 C 
ATOM     11  C   UNL     1      -5.800   9.778   6.113  0.00  0.00    +0.051 C 
BRANCH  10  16
ATOM     12  C   UNL     1      -1.650  14.799   6.548  0.00  0.00    +0.044 C 
ATOM     13  C   UNL     1      -2.680  13.751   6.212  0.00  0.00    -0.050 A 
ATOM     14  C   UNL     1      -2.666  13.146   4.968  0.00  0.00    +0.007 A 
ATOM     15  C   UNL     1      -3.606  12.187   4.653  0.00  0.00    -0.043 A 
ATOM     16  C   UNL     1      -4.574  11.826   5.595  0.00  0.00    -0.019 A 
ATOM     17  C   UNL     1      -4.585  12.446   6.848  0.00  0.00    -0.043 A 
ATOM     18  C   UNL     1      -3.635  13.400   7.150  0.00  0.00    +0.007 A 
ATOM     19  C   UNL     1      -5.627  12.069   7.868  0.00  0.00    +0.044 C 
ATOM     20  C   UNL     1      -3.589  11.529   3.297  0.00  0.00    +0.044 C 
ENDBRANCH  10  16
ENDBRANCH   4  11
ENDBRANCH   1   5
BRANCH   1  21
ATOM     21  N   UNL     1      -5.193   6.170   7.786  0.00  0.00    -0.176 NA
ATOM     22  C   UNL     1      -3.839   6.721   7.636  0.00  0.00    +0.110 C 
ATOM     23  C   UNL     1      -3.255   6.241   6.304  0.00  0.00    +0.030 C 
ATOM     24  C   UNL     1      -3.322   4.713   6.244  0.00  0.00    +0.078 C 
ATOM     25  C   UNL     1      -4.782   4.261   6.323  0.00  0.00    +0.030 C 
ATOM     26  C   UNL     1      -5.383   4.719   7.655  0.00  0.00    +0.110 C 
BRANCH  24  27
ATOM     27  C   UNL     1      -2.717   4.234   4.950  0.00  0.00    +0.220 C 
ATOM     28  O   UNL     1      -2.276   5.036   4.154  0.00  0.00    -0.275 OA
ATOM     29  N   UNL     1      -2.667   2.915   4.676  0.00  0.00    -0.285 N 
ATOM     30  H   UNL     1      -3.143   2.194   5.357  0.00  0.00    +0.155 HD
BRANCH  29  31
ATOM     31  C   UNL     1      -2.007   2.464   3.528  0.00  0.00    +0.033 A 
ATOM     32  C   UNL     1      -0.888   3.138   3.057  0.00  0.00    +0.023 A 
ATOM     33  C   UNL     1      -0.240   2.690   1.923  0.00  0.00    +0.006 A 
ATOM     34  C   UNL     1      -0.705   1.571   1.256  0.00  0.00    -0.045 A 
ATOM     35  C   UNL     1      -1.822   0.901   1.719  0.00  0.00    +0.006 A 
ATOM     36  C   UNL     1      -2.472   1.341   2.856  0.00  0.00    +0.023 A 
BRANCH  34  37
ATOM     37  C   UNL     1       0.004   1.085   0.018  0.00  0.00    +0.013 C 
ATOM     38  C   UNL     1      -0.965   1.106  -1.166  0.00  0.00    +0.012 C 
ATOM     39  C   UNL     1       0.503  -0.344   0.243  0.00  0.00    +0.012 C 
ENDBRANCH  34  37
ENDBRANCH  29  31
ENDBRANCH  24  27
ENDBRANCH   1  21
TORSDOF 7
