REMARK  Name = ZINC36579529
REMARK  19 active torsions:
REMARK  status: ('A' for Active; 'I' for Inactive)
REMARK    1  A    between atoms: C_1  and  C_2
REMARK    2  A    between atoms: C_2  and  C_3
REMARK    3  A    between atoms: C_2  and  C_4
REMARK    4  A    between atoms: C_2  and  C_5
REMARK    5  A    between atoms: C_5  and  C_6
REMARK    6  A    between atoms: C_6  and  C_7
REMARK    7  A    between atoms: C_6  and  C_8
REMARK    8  A    between atoms: C_6  and  N_9
REMARK    9  A    between atoms: C_10  and  C_12
REMARK   10  A    between atoms: C_12  and  C_14
REMARK   11  A    between atoms: C_12  and  N_19
REMARK   12  A    between atoms: N_19  and  C_38
REMARK   13  A    between atoms: C_20  and  C_22
REMARK   14  A    between atoms: C_28  and  O_30
REMARK   15  A    between atoms: O_30  and  C_31
REMARK   16  A    between atoms: C_31  and  C_32
REMARK   17  A    between atoms: C_38  and  C_39
REMARK   18  A    between atoms: C_38  and  C_40
REMARK   19  A    between atoms: C_38  and  C_41
REMARK                            x       y       z     vdW  Elec       q    Type
REMARK                         _______ _______ _______ _____ _____    ______ ____
ROOT
ATOM      1  N   UNL     1       6.004  -0.203  -4.418  0.00  0.00    -0.277 N 
ATOM      2  C   UNL     1       6.590   1.009  -4.497  0.00  0.00    +0.238 C 
ATOM      3  O   UNL     1       5.913   1.999  -4.678  0.00  0.00    -0.274 OA
ENDROOT
BRANCH   2   4
ATOM      4  C   UNL     1       8.085   1.133  -4.359  0.00  0.00    +0.165 C 
ATOM      5  C   UNL     1       8.438   1.710  -2.972  0.00  0.00    +0.033 C 
ATOM      6  C   UNL     1       9.630   2.654  -3.281  0.00  0.00    +0.021 C 
ATOM      7  C   UNL     1       9.236   3.208  -4.673  0.00  0.00    +0.112 C 
ATOM      8  N   UNL     1       8.604   2.068  -5.369  0.00  0.00    -0.256 N 
ATOM      9  C   UNL     1       8.517   1.909  -6.704  0.00  0.00    +0.404 C 
ATOM     10  O   UNL     1       7.972   0.925  -7.165  0.00  0.00    -0.226 OA
BRANCH   9  11
ATOM     11  O   UNL     1       9.034   2.840  -7.528  0.00  0.00    -0.445 OA
BRANCH  11  12
ATOM     12  C   UNL     1       8.906   2.607  -8.932  0.00  0.00    +0.269 C 
BRANCH  12  13
ATOM     13  C   UNL     1       9.539   3.746  -9.690  0.00  0.00    -0.010 A 
ATOM     14  C   UNL     1       8.783   4.851 -10.034  0.00  0.00    +0.007 A 
ATOM     15  C   UNL     1       9.363   5.896 -10.729  0.00  0.00    +0.000 A 
ATOM     16  C   UNL     1      10.699   5.835 -11.080  0.00  0.00    +0.000 A 
ATOM     17  C   UNL     1      11.454   4.730 -10.735  0.00  0.00    +0.000 A 
ATOM     18  C   UNL     1      10.876   3.688 -10.037  0.00  0.00    +0.007 A 
ENDBRANCH  12  13
ENDBRANCH  11  12
ENDBRANCH   9  11
ENDBRANCH   2   4
BRANCH   1  19
ATOM     19  C   UNL     1       6.796  -1.375  -4.040  0.00  0.00    +0.030 C 
ATOM     20  C   UNL     1       7.623  -1.841  -5.239  0.00  0.00    +0.031 C 
ATOM     21  C   UNL     1       7.732  -1.008  -2.886  0.00  0.00    +0.031 C 
ATOM     22  C   UNL     1       5.859  -2.502  -3.598  0.00  0.00    +0.031 C 
ENDBRANCH   1  19
BRANCH   1  23
ATOM     23  C   UNL     1       4.576  -0.346  -4.712  0.00  0.00    +0.229 C 
BRANCH  23  24
ATOM     24  C   UNL     1       4.396  -1.268  -5.891  0.00  0.00    +0.134 A 
ATOM     25  C   UNL     1       3.565  -1.064  -6.929  0.00  0.00    +0.047 A 
ATOM     26  C   UNL     1       3.715  -2.170  -7.797  0.00  0.00    +0.041 A 
ATOM     27  C   UNL     1       4.628  -2.984  -7.237  0.00  0.00    +0.195 A 
ATOM     28  O   UNL     1       5.041  -2.429  -6.085  0.00  0.00    -0.465 OA
ENDBRANCH  23  24
BRANCH  23  30
ATOM     29  N   UNL     1       2.592  -1.334  -3.613  0.00  0.00    -0.308 N 
ATOM     30  C   UNL     1       3.872  -0.923  -3.511  0.00  0.00    +0.242 C 
ATOM     31  O   UNL     1       4.457  -1.018  -2.453  0.00  0.00    -0.273 OA
ATOM     32  H   UNL     1       2.125  -1.259  -4.459  0.00  0.00    +0.149 HD
BRANCH  29  33
ATOM     33  C   UNL     1       1.908  -1.895  -2.445  0.00  0.00    +0.030 C 
ATOM     34  C   UNL     1       2.002  -0.911  -1.278  0.00  0.00    +0.031 C 
ATOM     35  C   UNL     1       2.570  -3.217  -2.052  0.00  0.00    +0.031 C 
BRANCH  33  36
ATOM     36  C   UNL     1       0.437  -2.143  -2.787  0.00  0.00    +0.031 C 
BRANCH  36  38
ATOM     37  C   UNL     1       0.180  -1.085  -5.036  0.00  0.00    +0.010 C 
ATOM     38  C   UNL     1      -0.121  -0.936  -3.543  0.00  0.00    -0.036 C 
ATOM     39  C   UNL     1       0.533   0.343  -3.016  0.00  0.00    +0.010 C 
ATOM     40  C   UNL     1      -1.635  -0.858  -3.333  0.00  0.00    +0.010 C 
ENDBRANCH  36  38
ENDBRANCH  33  36
ENDBRANCH  29  33
ENDBRANCH  23  30
ENDBRANCH   1  23
TORSDOF 11
