REMARK  Name = ZINC39689114
REMARK  5 active torsions:
REMARK  status: ('A' for Active; 'I' for Inactive)
REMARK    1  A    between atoms: C_3  and  C_9
REMARK    2  A    between atoms: C_13  and  C_22
REMARK    3  A    between atoms: N_24  and  C_25
REMARK    4  A    between atoms: C_25  and  C_26
REMARK    5  A    between atoms: N_29  and  C_32
REMARK                            x       y       z     vdW  Elec       q    Type
REMARK                         _______ _______ _______ _____ _____    ______ ____
ROOT
ATOM      1  C   UNL     1       3.458   2.114   0.056  0.00  0.00    +0.249 C 
ATOM      2  O   UNL     1       4.498   1.484   0.067  0.00  0.00    -0.270 OA
ATOM      3  N   UNL     1       3.484   3.453  -0.091  0.00  0.00    -0.296 N 
ATOM      4  C   UNL     1       2.343   4.397  -0.023  0.00  0.00    +0.121 C 
ATOM      5  C   UNL     1       2.899   5.628   0.727  0.00  0.00    +0.100 C 
ATOM      6  C   UNL     1       4.419   5.571   0.503  0.00  0.00    -0.004 C 
ATOM      7  C   UNL     1       4.661   4.317  -0.350  0.00  0.00    +0.115 C 
ATOM      8  C   UNL     1       5.146   5.441   1.838  0.00  0.00    -0.010 C 
ATOM      9  C   UNL     1       6.657   5.444   1.594  0.00  0.00    -0.082 C 
ATOM     10  N   UNL     1       7.044   6.690   0.922  0.00  0.00    +0.379 N 
ATOM     11  C   UNL     1       6.414   6.763  -0.401  0.00  0.00    -0.082 C 
ATOM     12  C   UNL     1       4.892   6.816  -0.241  0.00  0.00    -0.010 C 
ATOM     13  H   UNL     1       6.746   7.477   1.479  0.00  0.00    -0.086 HD
ATOM     14  H   UNL     1       8.047   6.717   0.818  0.00  0.00    -0.086 HD
ENDROOT
BRANCH   1  17
ATOM     15  C   UNL     1      -0.167   1.221  -0.329  0.00  0.00    +0.039 A 
ATOM     16  C   UNL     1       1.035   1.881  -0.468  0.00  0.00    +0.019 A 
ATOM     17  C   UNL     1       2.168   1.412   0.202  0.00  0.00    +0.072 A 
ATOM     18  C   UNL     1       2.075   0.275   1.011  0.00  0.00    +0.138 A 
ATOM     19  C   UNL     1       0.864  -0.377   1.143  0.00  0.00    +0.077 A 
ATOM     20  C   UNL     1      -0.255   0.094   0.475  0.00  0.00    +0.126 A 
ATOM     21  F   UNL     1      -1.437  -0.547   0.607  0.00  0.00    -0.205 F 
ATOM     22  F   UNL     1       3.166  -0.185   1.662  0.00  0.00    -0.205 F 
ENDBRANCH   1  17
BRANCH   5  23
ATOM     23  C   UNL     1       2.328   6.897   0.147  0.00  0.00    +0.218 C 
ATOM     24  O   UNL     1       2.035   6.948  -1.029  0.00  0.00    -0.275 OA
ATOM     25  N   UNL     1       2.144   7.974   0.935  0.00  0.00    -0.315 N 
ATOM     26  H   UNL     1       2.378   7.934   1.875  0.00  0.00    +0.149 HD
BRANCH  25  27
ATOM     27  C   UNL     1       1.589   9.208   0.371  0.00  0.00    +0.107 C 
BRANCH  27  28
ATOM     28  C   UNL     1       1.483  10.268   1.470  0.00  0.00    +0.003 C 
ATOM     29  C   UNL     1       0.463   9.818   2.519  0.00  0.00    -0.014 C 
ATOM     30  C   UNL     1       0.303  10.917   3.571  0.00  0.00    -0.078 C 
ATOM     31  N   UNL     1      -0.165  12.151   2.929  0.00  0.00    +0.382 N 
ATOM     32  C   UNL     1       0.842  12.627   1.972  0.00  0.00    -0.078 C 
ATOM     33  C   UNL     1       1.022  11.594   0.858  0.00  0.00    -0.014 C 
ATOM     34  H   UNL     1      -1.030  11.968   2.442  0.00  0.00    -0.081 HD
BRANCH  31  35
ATOM     35  C   UNL     1      -0.391  13.180   3.953  0.00  0.00    -0.069 C 
ATOM     36  C   UNL     1      -1.010  14.450   3.318  0.00  0.00    -0.015 C 
ATOM     37  C   UNL     1      -1.716  15.123   4.520  0.00  0.00    -0.002 C 
ATOM     38  C   UNL     1      -2.296  13.944   5.328  0.00  0.00    -0.002 C 
ATOM     39  C   UNL     1      -1.453  12.708   4.967  0.00  0.00    -0.015 C 
ENDBRANCH  31  35
ENDBRANCH  27  28
ENDBRANCH  25  27
ENDBRANCH   5  23
TORSDOF 5
