REMARK  Name = ZINC04237000
REMARK  12 active torsions:
REMARK  status: ('A' for Active; 'I' for Inactive)
REMARK    1  A    between atoms: C_1  and  C_2
REMARK    2  A    between atoms: C_5  and  O_38
REMARK    3  A    between atoms: C_7  and  C_35
REMARK    4  A    between atoms: C_7  and  C_36
REMARK    5  A    between atoms: C_17  and  C_19
REMARK    6  A    between atoms: C_19  and  C_20
REMARK    7  A    between atoms: C_20  and  C_21
REMARK    8  A    between atoms: C_20  and  C_22
REMARK    9  A    between atoms: C_20  and  C_23
REMARK   10  A    between atoms: C_24  and  C_26
REMARK   11  A    between atoms: C_26  and  C_27
REMARK   12  A    between atoms: C_36  and  O_37
REMARK                            x       y       z     vdW  Elec       q    Type
REMARK                         _______ _______ _______ _____ _____    ______ ____
ROOT
ATOM      1  C   UNL     1       3.748   2.638   1.103  0.00  0.00    +0.012 C 
ATOM      2  C   UNL     1       3.642   1.476   0.113  0.00  0.00    -0.019 C 
ATOM      3  C   UNL     1       3.456   2.025  -1.305  0.00  0.00    +0.010 C 
ATOM      4  C   UNL     1       4.676   2.842  -1.723  0.00  0.00    +0.032 C 
ATOM      5  C   UNL     1       5.908   1.932  -1.706  0.00  0.00    +0.123 C 
ATOM      6  C   UNL     1       6.122   1.422  -0.282  0.00  0.00    +0.021 C 
ATOM      7  C   UNL     1       4.906   0.615   0.183  0.00  0.00    +0.011 C 
ATOM      8  C   UNL     1       5.159   0.215   1.650  0.00  0.00    +0.049 C 
ATOM      9  C   UNL     1       3.883  -0.256   2.251  0.00  0.00    +0.015 A 
ATOM     10  C   UNL     1       2.626  -0.100   1.761  0.00  0.00    +0.058 A 
ATOM     11  N   UNL     1       1.644  -0.616   2.497  0.00  0.00    -0.229 NA
ATOM     12  C   UNL     1       1.873  -1.244   3.631  0.00  0.00    +0.165 A 
ATOM     13  S   UNL     1       3.604  -1.148   3.758  0.00  0.00    -0.057 S 
ATOM     14  N   UNL     1       0.965  -1.833   4.503  0.00  0.00    -0.265 N 
ATOM     15  C   UNL     1       1.402  -2.435   5.627  0.00  0.00    +0.219 C 
ATOM     16  O   UNL     1       2.588  -2.463   5.878  0.00  0.00    -0.275 OA
ATOM     17  C   UNL     1       2.406   0.630   0.445  0.00  0.00    +0.054 C 
ATOM     18  C   UNL     1       7.365   0.531  -0.245  0.00  0.00    +0.016 C 
ATOM     19  H   UNL     1       0.016  -1.811   4.303  0.00  0.00    +0.157 HD
ENDROOT
BRANCH   5  20
ATOM     20  O   UNL     1       7.056   2.671  -2.128  0.00  0.00    -0.391 OA
ATOM     21  H   UNL     1       6.984   3.035  -3.021  0.00  0.00    +0.210 HD
ENDBRANCH   5  20
BRANCH  15  22
ATOM     22  C   UNL     1       0.417  -3.073   6.572  0.00  0.00    +0.102 C 
BRANCH  22  23
ATOM     23  C   UNL     1       1.168  -3.680   7.758  0.00  0.00    -0.029 C 
ATOM     24  C   UNL     1       1.939  -2.580   8.491  0.00  0.00    +0.011 C 
ATOM     25  C   UNL     1       0.168  -4.329   8.718  0.00  0.00    +0.011 C 
ATOM     26  C   UNL     1       2.150  -4.740   7.252  0.00  0.00    +0.011 C 
ENDBRANCH  22  23
ENDBRANCH  15  22
BRANCH  17  27
ATOM     27  C   UNL     1       1.182   1.540   0.565  0.00  0.00    +0.106 C 
BRANCH  27  28
ATOM     28  C   UNL     1      -0.060   0.698   0.699  0.00  0.00    +0.219 C 
ATOM     29  O   UNL     1       0.025  -0.512   0.698  0.00  0.00    -0.275 OA
ATOM     30  N   UNL     1      -1.266   1.288   0.814  0.00  0.00    -0.265 N 
ATOM     31  C   UNL     1      -2.412   0.511   0.932  0.00  0.00    +0.164 A 
ATOM     32  N   UNL     1      -3.667   0.898   1.053  0.00  0.00    -0.233 NA
ATOM     33  C   UNL     1      -4.646   0.020   1.155  0.00  0.00    +0.120 A 
ATOM     34  C   UNL     1      -4.336  -1.299   1.132  0.00  0.00    +0.068 A 
ATOM     35  S   UNL     1      -2.560  -1.219   0.950  0.00  0.00    -0.061 S 
ATOM     36  H   UNL     1      -1.334   2.256   0.815  0.00  0.00    +0.157 HD
ENDBRANCH  27  28
ENDBRANCH  17  27
BRANCH   6  37
ATOM     37  C   UNL     1       6.329   2.613   0.656  0.00  0.00    +0.165 C 
BRANCH  37  38
ATOM     38  O   UNL     1       7.561   3.263   0.337  0.00  0.00    -0.394 OA
ATOM     39  H   UNL     1       7.757   4.029   0.894  0.00  0.00    +0.209 HD
ENDBRANCH  37  38
ENDBRANCH   6  37
TORSDOF 7
