REMARK  Name = ZINC34923608
REMARK  9 active torsions:
REMARK  status: ('A' for Active; 'I' for Inactive)
REMARK    1  A    between atoms: C_1  and  C_2
REMARK    2  A    between atoms: C_3  and  C_26
REMARK    3  A    between atoms: C_4  and  C_19
REMARK    4  A    between atoms: C_7  and  C_12
REMARK    5  A    between atoms: C_13  and  N_15
REMARK    6  A    between atoms: N_15  and  C_16
REMARK    7  A    between atoms: C_16  and  C_17
REMARK    8  A    between atoms: C_26  and  O_28
REMARK    9  A    between atoms: O_28  and  C_29
REMARK                            x       y       z     vdW  Elec       q    Type
REMARK                         _______ _______ _______ _____ _____    ______ ____
ROOT
ATOM      1  C   UNL     1       0.328   1.163   0.895  0.00  0.00    +0.066 C 
ATOM      2  C   UNL     1       0.260  -0.292   0.511  0.00  0.00    +0.053 C 
ATOM      3  C   UNL     1      -0.965  -0.929   0.446  0.00  0.00    +0.082 C 
ATOM      4  C   UNL     1      -0.980  -2.390   0.057  0.00  0.00    +0.150 C 
ATOM      5  N   UNL     1       0.333  -3.029  -0.227  0.00  0.00    -0.267 N 
ATOM      6  C   UNL     1       0.556  -4.340  -0.597  0.00  0.00    +0.048 C 
ATOM      7  C   UNL     1       1.835  -4.722  -0.810  0.00  0.00    +0.072 C 
ATOM      8  S   UNL     1       2.729  -3.216  -0.483  0.00  0.00    -0.060 S 
ATOM      9  C   UNL     1       1.430  -2.223  -0.105  0.00  0.00    +0.166 C 
ATOM     10  N   UNL     1       1.374  -0.951   0.234  0.00  0.00    -0.230 NA
ENDROOT
BRANCH   4  11
ATOM     11  C   UNL     1      -1.639  -3.160   1.172  0.00  0.00    -0.022 A 
ATOM     12  C   UNL     1      -0.958  -3.381   2.355  0.00  0.00    +0.007 A 
ATOM     13  C   UNL     1      -1.562  -4.088   3.378  0.00  0.00    +0.020 A 
ATOM     14  C   UNL     1      -2.847  -4.574   3.218  0.00  0.00    +0.041 A 
ATOM     15  C   UNL     1      -3.528  -4.353   2.034  0.00  0.00    +0.020 A 
ATOM     16  C   UNL     1      -2.925  -3.641   1.014  0.00  0.00    +0.007 A 
ATOM     17 CL   UNL     1      -3.606  -5.462   4.503  0.00  0.00    -0.084 Cl
ENDBRANCH   4  11
BRANCH   6  18
ATOM     18  C   UNL     1      -0.557  -5.287  -0.754  0.00  0.00    +0.091 C 
ATOM     19  C   UNL     1      -0.306  -6.589  -0.989  0.00  0.00    +0.239 C 
ATOM     20  O   UNL     1       0.968  -7.050  -0.958  0.00  0.00    -0.271 OA
BRANCH  19  21
ATOM     21  N   UNL     1      -1.349  -7.457  -1.263  0.00  0.00    -0.308 N 
ATOM     22  H   UNL     1      -2.266  -7.144  -1.213  0.00  0.00    +0.149 HD
BRANCH  21  23
ATOM     23  C   UNL     1      -1.069  -8.848  -1.628  0.00  0.00    +0.131 C 
BRANCH  23  24
ATOM     24  C   UNL     1      -2.356  -9.541  -1.992  0.00  0.00    -0.016 C 
ATOM     25  C   UNL     1      -2.475 -10.137  -3.153  0.00  0.00    +0.005 C 
ENDBRANCH  23  24
ENDBRANCH  21  23
ENDBRANCH  19  21
ENDBRANCH   6  18
BRANCH   3  26
ATOM     26  C   UNL     1      -2.152  -0.244   0.732  0.00  0.00    +0.339 C 
ATOM     27  O   UNL     1      -2.116   0.934   1.044  0.00  0.00    -0.245 OA
BRANCH  26  28
ATOM     28  O   UNL     1      -3.337  -0.888   0.662  0.00  0.00    -0.465 OA
ATOM     29  C   UNL     1      -4.508  -0.128   0.966  0.00  0.00    +0.280 C 
ENDBRANCH  26  28
ENDBRANCH   3  26
TORSDOF 7
