REMARK  Name = ZINC36038445
REMARK  11 active torsions:
REMARK  status: ('A' for Active; 'I' for Inactive)
REMARK    1  A    between atoms: C_1  and  C_2
REMARK    2  A    between atoms: C_2  and  C_3
REMARK    3  A    between atoms: C_3  and  C_5
REMARK    4  A    between atoms: C_3  and  C_6
REMARK    5  A    between atoms: C_6  and  N_7
REMARK    6  A    between atoms: C_10  and  C_30
REMARK    7  A    between atoms: N_16  and  S_19
REMARK    8  A    between atoms: S_19  and  C_22
REMARK    9  A    between atoms: C_30  and  C_31
REMARK   10  A    between atoms: C_31  and  C_32
REMARK   11  A    between atoms: C_31  and  C_33
REMARK                            x       y       z     vdW  Elec       q    Type
REMARK                         _______ _______ _______ _____ _____    ______ ____
ROOT
ATOM      1  N   UNL     1      -2.849  -2.486  -0.062  0.00  0.00    -0.313 N 
ATOM      2  C   UNL     1      -3.599  -2.721   1.034  0.00  0.00    +0.200 C 
ATOM      3  O   UNL     1      -3.337  -2.362   2.163  0.00  0.00    -0.277 OA
ATOM      4  C   UNL     1      -4.824  -3.506   0.618  0.00  0.00    +0.019 C 
ATOM      5  N   UNL     1      -4.900  -3.338  -0.853  0.00  0.00    +0.401 N 
ATOM      6  C   UNL     1      -3.498  -3.078  -1.235  0.00  0.00    +0.006 C 
ATOM      7  C   UNL     1      -3.454  -2.104  -2.411  0.00  0.00    +0.023 C 
ATOM      8  C   UNL     1      -1.994  -1.814  -2.777  0.00  0.00    +0.109 C 
ATOM      9  N   UNL     1      -1.304  -3.090  -3.011  0.00  0.00    -0.177 NA
ATOM     10  C   UNL     1      -1.352  -4.122  -1.967  0.00  0.00    +0.109 C 
ATOM     11  C   UNL     1      -2.817  -4.393  -1.609  0.00  0.00    +0.023 C 
ATOM     12  H   UNL     1      -5.241  -4.180  -1.291  0.00  0.00    -0.082 HD
ATOM     13  H   UNL     1      -5.483  -2.549  -1.091  0.00  0.00    -0.082 HD
ENDROOT
BRANCH   9  14
ATOM     14  S   UNL     1      -0.487  -3.359  -4.427  0.00  0.00    +0.062 S 
ATOM     15  O   UNL     1      -0.429  -4.768  -4.600  0.00  0.00    -0.153 OA
ATOM     16  O   UNL     1      -1.062  -2.495  -5.398  0.00  0.00    -0.153 OA
BRANCH  14  17
ATOM     17  C   UNL     1       1.170  -2.812  -4.184  0.00  0.00    +0.125 A 
ATOM     18  C   UNL     1       2.211  -3.722  -4.221  0.00  0.00    +0.030 A 
ATOM     19  C   UNL     1       3.511  -3.294  -4.031  0.00  0.00    +0.003 A 
ATOM     20  C   UNL     1       3.772  -1.955  -3.803  0.00  0.00    +0.021 A 
ATOM     21  C   UNL     1       2.733  -1.044  -3.765  0.00  0.00    +0.061 A 
ATOM     22  C   UNL     1       1.431  -1.472  -3.962  0.00  0.00    +0.086 A 
ATOM     23 CL   UNL     1       0.125  -0.329  -3.923  0.00  0.00    -0.080 Cl
ATOM     24 CL   UNL     1       3.061   0.636  -3.479  0.00  0.00    -0.082 Cl
ENDBRANCH  14  17
ENDBRANCH   9  14
BRANCH   1  25
ATOM     25  C   UNL     1      -1.583  -1.748  -0.078  0.00  0.00    +0.109 C 
BRANCH  25  26
ATOM     26  C   UNL     1      -1.864  -0.251   0.069  0.00  0.00    +0.003 C 
ATOM     27  C   UNL     1      -2.897   0.179  -0.973  0.00  0.00    +0.009 C 
BRANCH  26  29
ATOM     28  C   UNL     1      -0.821   2.018   0.127  0.00  0.00    +0.004 C 
ATOM     29  C   UNL     1      -0.568   0.534  -0.143  0.00  0.00    +0.001 C 
ENDBRANCH  26  29
ENDBRANCH  25  26
ENDBRANCH   1  25
BRANCH   4  30
ATOM     30  C   UNL     1      -4.657  -4.984   0.980  0.00  0.00    -0.004 C 
BRANCH  30  31
ATOM     31  C   UNL     1      -4.584  -5.132   2.501  0.00  0.00    -0.018 C 
ATOM     32  C   UNL     1      -5.907  -4.678   3.121  0.00  0.00    +0.007 C 
ATOM     33  C   UNL     1      -4.329  -6.598   2.859  0.00  0.00    +0.007 C 
ENDBRANCH  30  31
ENDBRANCH   4  30
TORSDOF 7
