REMARK  Name = ZINC15946561
REMARK  12 active torsions:
REMARK  status: ('A' for Active; 'I' for Inactive)
REMARK    1  A    between atoms: C_1  and  C_2
REMARK    2  A    between atoms: C_5  and  N_9
REMARK    3  A    between atoms: C_6  and  C_8
REMARK    4  A    between atoms: C_10  and  C_12
REMARK    5  A    between atoms: C_16  and  N_17
REMARK    6  A    between atoms: C_18  and  C_20
REMARK    7  A    between atoms: C_20  and  N_76
REMARK    8  A    between atoms: C_24  and  C_27
REMARK    9  A    between atoms: C_29  and  C_33
REMARK   10  A    between atoms: C_33  and  C_34
REMARK   11  A    between atoms: C_33  and  C_35
REMARK   12  A    between atoms: C_33  and  C_36
REMARK                            x       y       z     vdW  Elec       q    Type
REMARK                         _______ _______ _______ _____ _____    ______ ____
ROOT
ATOM      1  C   UNL     1       2.416   0.753   0.073  0.00  0.00    +0.069 A 
ATOM      2  C   UNL     1       3.018   0.435   1.357  0.00  0.00    -0.023 A 
ATOM      3  C   UNL     1       4.138  -0.318   1.296  0.00  0.00    -0.004 A 
ATOM      4  S   UNL     1       4.398  -0.605  -0.431  0.00  0.00    -0.077 S 
ATOM      5  C   UNL     1       3.035   0.258  -1.066  0.00  0.00    +0.084 A 
ATOM      6  C   UNL     1       4.966  -0.798   2.448  0.00  0.00    +0.046 C 
ATOM      7  C   UNL     1       4.150  -0.624   3.737  0.00  0.00    -0.000 C 
ATOM      8  C   UNL     1       3.552   0.785   3.756  0.00  0.00    +0.009 C 
ATOM      9  C   UNL     1       2.456   0.899   2.695  0.00  0.00    +0.037 C 
ENDROOT
BRANCH   1  11
ATOM     10  N   UNL     1      -0.011   0.966   0.007  0.00  0.00    -0.281 N 
ATOM     11  C   UNL     1       1.197   1.563  -0.015  0.00  0.00    +0.251 C 
ATOM     12  O   UNL     1       1.276   2.774  -0.109  0.00  0.00    -0.270 OA
ATOM     13  H   UNL     1      -0.074  -0.002   0.016  0.00  0.00    +0.155 HD
BRANCH  10  18
ATOM     14  C   UNL     1      -4.730   4.114   0.028  0.00  0.00    +0.044 C 
ATOM     15  C   UNL     1      -3.476   3.278   0.023  0.00  0.00    -0.050 A 
ATOM     16  C   UNL     1      -2.364   3.705  -0.680  0.00  0.00    +0.005 A 
ATOM     17  C   UNL     1      -1.214   2.941  -0.687  0.00  0.00    +0.024 A 
ATOM     18  C   UNL     1      -1.175   1.742   0.013  0.00  0.00    +0.037 A 
ATOM     19  C   UNL     1      -2.294   1.313   0.713  0.00  0.00    -0.029 A 
ATOM     20  C   UNL     1      -3.440   2.085   0.720  0.00  0.00    +0.008 A 
ATOM     21  C   UNL     1      -2.258   0.009   1.468  0.00  0.00    +0.045 C 
ENDBRANCH  10  18
ENDBRANCH   1  11
BRANCH   5  22
ATOM     22  N   UNL     1       2.657   0.416  -2.390  0.00  0.00    -0.281 N 
ATOM     23  C   UNL     1       3.390  -0.145  -3.372  0.00  0.00    +0.201 C 
ATOM     24  O   UNL     1       4.381  -0.787  -3.098  0.00  0.00    -0.278 OA
ATOM     25  H   UNL     1       1.864   0.930  -2.610  0.00  0.00    +0.155 HD
BRANCH  23  26
ATOM     26  C   UNL     1       2.979   0.028  -4.812  0.00  0.00    +0.019 C 
BRANCH  26  33
ATOM     27  C   UNL     1       3.869  -2.125  -5.471  0.00  0.00    -0.078 C 
ATOM     28  C   UNL     1       4.973  -2.809  -6.282  0.00  0.00    -0.018 C 
ATOM     29  C   UNL     1       4.787  -2.481  -7.766  0.00  0.00    -0.001 C 
ATOM     30  C   UNL     1       4.809  -0.961  -7.951  0.00  0.00    -0.031 C 
ATOM     31  C   UNL     1       3.710  -0.331  -7.092  0.00  0.00    -0.075 C 
ATOM     32  C   UNL     1       4.564  -0.622  -9.423  0.00  0.00    +0.005 C 
ATOM     33  N   UNL     1       3.961  -0.663  -5.673  0.00  0.00    +0.386 N 
ATOM     34  H   UNL     1       4.905  -0.351  -5.419  0.00  0.00    -0.081 HD
ENDBRANCH  26  33
ENDBRANCH  23  26
ENDBRANCH   5  22
BRANCH   7  35
ATOM     35  C   UNL     1       5.063  -0.810   4.951  0.00  0.00    -0.035 C 
ATOM     36  C   UNL     1       6.181   0.233   4.912  0.00  0.00    +0.011 C 
ATOM     37  C   UNL     1       4.247  -0.636   6.233  0.00  0.00    +0.011 C 
ATOM     38  C   UNL     1       5.673  -2.213   4.920  0.00  0.00    +0.011 C 
ENDBRANCH   7  35
TORSDOF 6
