REMARK  Name = ZINC09127913
REMARK  4 active torsions:
REMARK  status: ('A' for Active; 'I' for Inactive)
REMARK    1  A    between atoms: C_4  and  N_7
REMARK    2  A    between atoms: C_12  and  C_14
REMARK    3  A    between atoms: N_19  and  S_22
REMARK    4  A    between atoms: S_22  and  C_25
REMARK                            x       y       z     vdW  Elec       q    Type
REMARK                         _______ _______ _______ _____ _____    ______ ____
ROOT
ATOM      1  C   UNL     1       3.898  -0.696   1.988  0.00  0.00    +0.262 C 
ATOM      2  O   UNL     1       4.175  -1.839   2.300  0.00  0.00    -0.269 OA
ATOM      3  N   UNL     1       2.644  -0.234   2.165  0.00  0.00    -0.294 N 
ATOM      4  C   UNL     1       1.621  -1.074   2.802  0.00  0.00    +0.125 C 
ATOM      5  C   UNL     1       0.414  -1.176   1.860  0.00  0.00    +0.128 C 
ATOM      6  N   UNL     1       0.047   0.177   1.419  0.00  0.00    -0.174 NA
ATOM      7  C   UNL     1       1.071   1.017   0.782  0.00  0.00    +0.128 C 
ATOM      8  C   UNL     1       2.277   1.119   1.724  0.00  0.00    +0.125 C 
ENDROOT
BRANCH   1  14
ATOM      9  N   UNL     1       5.737   2.331   0.937  0.00  0.00    -0.160 N 
ATOM     10  C   UNL     1       6.632   1.882   0.036  0.00  0.00    +0.240 C 
ATOM     11  O   UNL     1       7.460   2.637  -0.427  0.00  0.00    -0.273 OA
ATOM     12  C   UNL     1       6.602   0.437  -0.394  0.00  0.00    +0.104 C 
ATOM     13  C   UNL     1       6.151  -0.429   0.783  0.00  0.00    +0.071 C 
ATOM     14  C   UNL     1       4.929   0.179   1.419  0.00  0.00    +0.122 C 
ATOM     15  N   UNL     1       4.773   1.466   1.466  0.00  0.00    -0.172 NA
BRANCH   9  19
ATOM     16  C   UNL     1       5.829   6.319   2.139  0.00  0.00    +0.000 A 
ATOM     17  C   UNL     1       6.995   5.576   2.125  0.00  0.00    +0.002 A 
ATOM     18  C   UNL     1       6.968   4.253   1.727  0.00  0.00    +0.025 A 
ATOM     19  C   UNL     1       5.768   3.671   1.341  0.00  0.00    +0.060 A 
ATOM     20  C   UNL     1       4.600   4.422   1.350  0.00  0.00    +0.025 A 
ATOM     21  C   UNL     1       4.633   5.742   1.755  0.00  0.00    +0.002 A 
ENDBRANCH   9  19
ENDBRANCH   1  14
BRANCH   6  22
ATOM     22  S   UNL     1      -1.495   0.743   1.631  0.00  0.00    +0.061 S 
ATOM     23  O   UNL     1      -1.690   1.762   0.660  0.00  0.00    -0.153 OA
ATOM     24  O   UNL     1      -2.338  -0.398   1.717  0.00  0.00    -0.153 OA
BRANCH  22  25
ATOM     25  C   UNL     1      -1.550   1.530   3.206  0.00  0.00    +0.105 A 
ATOM     26  C   UNL     1      -1.888   0.801   4.331  0.00  0.00    +0.028 A 
ATOM     27  C   UNL     1      -1.926   1.417   5.568  0.00  0.00    +0.002 A 
ATOM     28  C   UNL     1      -1.636   2.764   5.678  0.00  0.00    +0.000 A 
ATOM     29  C   UNL     1      -1.303   3.494   4.553  0.00  0.00    +0.002 A 
ATOM     30  C   UNL     1      -1.260   2.877   3.316  0.00  0.00    +0.028 A 
ENDBRANCH  22  25
ENDBRANCH   6  22
TORSDOF 4
