REMARK  Name = ZINC42715181
REMARK  5 active torsions:
REMARK  status: ('A' for Active; 'I' for Inactive)
REMARK    1  A    between atoms: C_1  and  C_2
REMARK    2  A    between atoms: C_2  and  O_3
REMARK    3  A    between atoms: O_3  and  C_4
REMARK    4  A    between atoms: C_4  and  C_6
REMARK    5  A    between atoms: C_12  and  C_14
REMARK                            x       y       z     vdW  Elec       q    Type
REMARK                         _______ _______ _______ _____ _____    ______ ____
ROOT
ATOM      1  C   UNL     1       1.309  -2.377   2.393  0.00  0.00    +0.185 C 
ATOM      2  C   UNL     1       0.376  -1.967   3.552  0.00  0.00    +0.035 C 
ATOM      3  C   UNL     1       0.361  -3.231   4.451  0.00  0.00    +0.021 C 
ATOM      4  C   UNL     1       0.430  -4.364   3.396  0.00  0.00    +0.109 C 
ATOM      5  N   UNL     1       1.328  -3.847   2.344  0.00  0.00    -0.288 N 
ATOM      6  C   UNL     1       2.045  -4.594   1.481  0.00  0.00    +0.221 C 
ATOM      7  O   UNL     1       2.696  -4.058   0.610  0.00  0.00    -0.275 OA
ENDROOT
BRANCH   6   8
ATOM      8  C   UNL     1       2.035  -6.097   1.598  0.00  0.00    +0.093 C 
ATOM      9  C   UNL     1       2.804  -6.705   0.423  0.00  0.00    +0.016 C 
ATOM     10  C   UNL     1       2.767  -8.232   0.523  0.00  0.00    +0.020 C 
ATOM     11  C   UNL     1       3.446  -8.671   1.824  0.00  0.00    +0.109 C 
ATOM     12  N   UNL     1       2.806  -7.977   2.949  0.00  0.00    -0.285 N 
ATOM     13  C   UNL     1       2.706  -6.511   2.912  0.00  0.00    +0.122 C 
ATOM     14  C   UNL     1       2.319  -8.671   3.997  0.00  0.00    +0.300 C 
ATOM     15  O   UNL     1       1.701  -8.097   4.873  0.00  0.00    -0.253 OA
ATOM     16  N   UNL     1       2.516 -10.002   4.073  0.00  0.00    -0.313 N 
ATOM     17  H   UNL     1       2.952 -10.470   3.345  0.00  0.00    +0.146 HD
ATOM     18  H   UNL     1       2.222 -10.492   4.857  0.00  0.00    +0.146 HD
ENDBRANCH   6   8
BRANCH   1  19
ATOM     19  C   UNL     1       0.784  -1.827   1.092  0.00  0.00    +0.328 C 
ATOM     20  O   UNL     1       0.462  -2.580   0.204  0.00  0.00    -0.249 OA
BRANCH  19  21
ATOM     21  O   UNL     1       0.675  -0.501   0.920  0.00  0.00    -0.464 OA
BRANCH  21  23
ATOM     22  C   UNL     1       0.118   1.480  -0.348  0.00  0.00    +0.048 C 
ATOM     23  C   UNL     1       0.170  -0.049  -0.338  0.00  0.00    +0.229 C 
ENDBRANCH  21  23
ENDBRANCH  19  21
ENDBRANCH   1  19
TORSDOF 4
