REMARK  Name = ZINC45863535
REMARK  6 active torsions:
REMARK  status: ('A' for Active; 'I' for Inactive)
REMARK    1  A    between atoms: C_3  and  N_29
REMARK    2  A    between atoms: C_6  and  N_7
REMARK    3  A    between atoms: C_8  and  C_10
REMARK    4  A    between atoms: N_13  and  S_16
REMARK    5  A    between atoms: S_16  and  C_19
REMARK    6  A    between atoms: N_32  and  C_33
REMARK                            x       y       z     vdW  Elec       q    Type
REMARK                         _______ _______ _______ _____ _____    ______ ____
ROOT
ATOM      1  N   UNL     1      -1.205  -0.758   0.023  0.00  0.00    -0.285 N 
ATOM      2  C   UNL     1      -1.260  -2.064   0.349  0.00  0.00    +0.220 C 
ATOM      3  O   UNL     1      -0.261  -2.637   0.731  0.00  0.00    -0.275 OA
ATOM      4  H   UNL     1      -2.017  -0.281  -0.210  0.00  0.00    +0.155 HD
ENDROOT
BRANCH   1  10
ATOM      5  C   UNL     1       1.185  -0.767  -0.333  0.00  0.00    +0.025 A 
ATOM      6  C   UNL     1       2.397  -0.107  -0.337  0.00  0.00    +0.025 A 
ATOM      7  C   UNL     1       2.458   1.236   0.011  0.00  0.00    +0.035 A 
ATOM      8  C   UNL     1       1.299   1.915   0.363  0.00  0.00    +0.025 A 
ATOM      9  C   UNL     1       0.087   1.254   0.368  0.00  0.00    +0.025 A 
ATOM     10  C   UNL     1       0.026  -0.088   0.019  0.00  0.00    +0.034 A 
BRANCH   7  11
ATOM     11  N   UNL     1       3.689   1.905   0.008  0.00  0.00    -0.269 N 
ATOM     12  C   UNL     1       4.614   1.610  -0.926  0.00  0.00    +0.304 C 
ATOM     13  O   UNL     1       4.416   0.705  -1.714  0.00  0.00    -0.253 OA
ATOM     14  N   UNL     1       5.760   2.317  -0.988  0.00  0.00    -0.296 N 
ATOM     15  H   UNL     1       3.875   2.582   0.678  0.00  0.00    +0.156 HD
ATOM     16  H   UNL     1       5.918   3.039  -0.360  0.00  0.00    +0.151 HD
BRANCH  14  17
ATOM     17  C   UNL     1       6.766   1.996  -2.003  0.00  0.00    +0.075 C 
ATOM     18  C   UNL     1       8.229   1.958  -1.560  0.00  0.00    +0.024 C 
ATOM     19  C   UNL     1       7.722   3.112  -2.428  0.00  0.00    +0.024 C 
ENDBRANCH  14  17
ENDBRANCH   7  11
ENDBRANCH   1  10
BRANCH   2  20
ATOM     20  C   UNL     1      -2.563  -2.814   0.240  0.00  0.00    +0.078 C 
ATOM     21  C   UNL     1      -3.605  -2.159   1.150  0.00  0.00    +0.030 C 
ATOM     22  C   UNL     1      -4.938  -2.902   1.010  0.00  0.00    +0.110 C 
ATOM     23  N   UNL     1      -4.713  -4.329   1.279  0.00  0.00    -0.177 NA
ATOM     24  C   UNL     1      -3.670  -5.035   0.522  0.00  0.00    +0.110 C 
ATOM     25  C   UNL     1      -2.352  -4.268   0.667  0.00  0.00    +0.030 C 
BRANCH  23  26
ATOM     26  S   UNL     1      -5.619  -5.127   2.412  0.00  0.00    +0.061 S 
ATOM     27  O   UNL     1      -4.848  -6.242   2.837  0.00  0.00    -0.153 OA
ATOM     28  O   UNL     1      -6.096  -4.141   3.318  0.00  0.00    -0.153 OA
BRANCH  26  29
ATOM     29  C   UNL     1      -7.033  -5.778   1.586  0.00  0.00    +0.106 A 
ATOM     30  C   UNL     1      -8.187  -5.023   1.486  0.00  0.00    +0.029 A 
ATOM     31  C   UNL     1      -9.290  -5.540   0.841  0.00  0.00    +0.006 A 
ATOM     32  C   UNL     1      -9.252  -6.814   0.287  0.00  0.00    -0.044 A 
ATOM     33  C   UNL     1      -8.101  -7.564   0.382  0.00  0.00    -0.042 A 
ATOM     34  C   UNL     1      -6.990  -7.040   1.031  0.00  0.00    +0.032 A 
ATOM     35  C   UNL     1      -7.982  -8.944  -0.208  0.00  0.00    +0.035 C 
ATOM     36  C   UNL     1      -9.365  -9.527  -0.494  0.00  0.00    +0.005 C 
ATOM     37  C   UNL     1     -10.165  -8.502  -1.306  0.00  0.00    +0.005 C 
ATOM     38  C   UNL     1     -10.495  -7.319  -0.397  0.00  0.00    +0.035 C 
ENDBRANCH  26  29
ENDBRANCH  23  26
ENDBRANCH   2  20
TORSDOF 6
