REMARK  Name = ZINC35744532
REMARK  10 active torsions:
REMARK  status: ('A' for Active; 'I' for Inactive)
REMARK    1  A    between atoms: C_4  and  C_7
REMARK    2  A    between atoms: C_7  and  C_8
REMARK    3  A    between atoms: C_8  and  C_10
REMARK    4  A    between atoms: C_8  and  N_22
REMARK    5  A    between atoms: C_12  and  C_15
REMARK    6  A    between atoms: N_22  and  C_23
REMARK    7  A    between atoms: C_23  and  C_24
REMARK    8  A    between atoms: C_24  and  C_26
REMARK    9  A    between atoms: C_24  and  O_33
REMARK   10  A    between atoms: C_26  and  N_27
REMARK                            x       y       z     vdW  Elec       q    Type
REMARK                         _______ _______ _______ _____ _____    ______ ____
ROOT
ATOM      1  C   UNL     1       4.051  -0.948   1.442  0.00  0.00    +0.023 C 
ENDROOT
BRANCH   1   2
ATOM      2  C   UNL     1       5.364  -1.688   1.455  0.00  0.00    +0.214 A 
ATOM      3  N   UNL     1       5.524  -2.948   1.743  0.00  0.00    -0.193 NA
ATOM      4  C   UNL     1       6.825  -3.278   1.657  0.00  0.00    +0.202 A 
ATOM      5  N   UNL     1       7.505  -2.214   1.308  0.00  0.00    -0.056 NA
ATOM      6  O   UNL     1       6.561  -1.163   1.166  0.00  0.00    -0.339 OA
BRANCH   4   7
ATOM      7  C   UNL     1       7.396  -4.624   1.914  0.00  0.00    +0.023 A 
ATOM      8  C   UNL     1       6.561  -5.679   2.275  0.00  0.00    +0.013 A 
ATOM      9  C   UNL     1       7.096  -6.929   2.513  0.00  0.00    +0.016 A 
ATOM     10  C   UNL     1       8.460  -7.134   2.394  0.00  0.00    +0.018 A 
ATOM     11  C   UNL     1       9.293  -6.089   2.036  0.00  0.00    +0.016 A 
ATOM     12  C   UNL     1       8.767  -4.837   1.789  0.00  0.00    +0.013 A 
ATOM     13 BR   UNL     1       9.187  -8.849   2.722  0.00  0.00    -0.050 Br
ENDBRANCH   4   7
ENDBRANCH   1   2
BRANCH   1  14
ATOM     14  N   UNL     1       4.213   0.348   2.114  0.00  0.00    +0.389 N 
ATOM     15  H   UNL     1       4.599   0.204   3.035  0.00  0.00    -0.085 HD
ATOM     16  H   UNL     1       4.838   0.931   1.576  0.00  0.00    -0.085 HD
BRANCH  14  17
ATOM     17  C   UNL     1       2.906   1.008   2.229  0.00  0.00    -0.049 C 
BRANCH  17  18
ATOM     18  C   UNL     1       3.053   2.294   3.045  0.00  0.00    +0.112 C 
BRANCH  18  19
ATOM     19  O   UNL     1       3.880   3.217   2.334  0.00  0.00    -0.392 OA
ATOM     20  H   UNL     1       3.535   3.467   1.467  0.00  0.00    +0.210 HD
ENDBRANCH  18  19
BRANCH  18  21
ATOM     21  C   UNL     1       1.673   2.915   3.270  0.00  0.00    +0.114 C 
BRANCH  21  22
ATOM     22  N   UNL     1       1.814   4.150   4.054  0.00  0.00    -0.296 NA
ATOM     23  C   UNL     1       2.285   3.858   5.415  0.00  0.00    +0.112 C 
ATOM     24  C   UNL     1       2.475   5.173   6.176  0.00  0.00    +0.175 C 
ATOM     25  O   UNL     1       1.244   5.902   6.174  0.00  0.00    -0.377 OA
ATOM     26  C   UNL     1       0.756   6.203   4.864  0.00  0.00    +0.175 C 
ATOM     27  C   UNL     1       0.549   4.898   4.090  0.00  0.00    +0.112 C 
ENDBRANCH  21  22
ENDBRANCH  18  21
ENDBRANCH  17  18
ENDBRANCH  14  17
ENDBRANCH   1  14
BRANCH   1  28
ATOM     28  C   UNL     1       3.608  -0.720  -0.005  0.00  0.00    +0.029 C 
BRANCH  28  32
ATOM     29  C   UNL     1       2.774  -4.481  -1.850  0.00  0.00    +0.000 A 
ATOM     30  C   UNL     1       1.801  -3.849  -1.098  0.00  0.00    +0.000 A 
ATOM     31  C   UNL     1       2.071  -2.632  -0.500  0.00  0.00    +0.003 A 
ATOM     32  C   UNL     1       3.314  -2.047  -0.655  0.00  0.00    -0.048 A 
ATOM     33  C   UNL     1       4.287  -2.679  -1.406  0.00  0.00    +0.003 A 
ATOM     34  C   UNL     1       4.016  -3.896  -2.005  0.00  0.00    +0.000 A 
ENDBRANCH  28  32
ENDBRANCH   1  28
TORSDOF 10
