REMARK  Name = ZINC64891241
REMARK  8 active torsions:
REMARK  status: ('A' for Active; 'I' for Inactive)
REMARK    1  A    between atoms: C_1  and  C_2
REMARK    2  A    between atoms: C_2  and  C_3
REMARK    3  A    between atoms: C_3  and  N_4
REMARK    4  A    between atoms: C_8  and  C_15
REMARK    5  A    between atoms: C_18  and  C_21
REMARK    6  A    between atoms: C_26  and  O_27
REMARK    7  A    between atoms: O_27  and  C_28
REMARK    8  A    between atoms: C_28  and  C_29
REMARK                            x       y       z     vdW  Elec       q    Type
REMARK                         _______ _______ _______ _____ _____    ______ ____
ROOT
ATOM      1  C   UNL     1       4.200  -5.946   0.658  0.00  0.00    +0.168 C 
ATOM      2  N   UNL     1       3.942  -7.202   0.487  0.00  0.00    -0.066 NA
ATOM      3  O   UNL     1       4.957  -8.008   1.055  0.00  0.00    -0.364 OA
ATOM      4  C   UNL     1       5.921  -7.111   1.625  0.00  0.00    +0.327 C 
ATOM      5  N   UNL     1       5.391  -5.769   1.339  0.00  0.00    -0.286 N 
ATOM      6  H   UNL     1       5.798  -4.922   1.582  0.00  0.00    +0.151 HD
ENDROOT
BRANCH   1  11
ATOM      7  N   UNL     1       0.738  -1.962  -1.265  0.00  0.00    -0.292 N 
ATOM      8  C   UNL     1       1.729  -2.765  -0.710  0.00  0.00    +0.070 A 
ATOM      9  C   UNL     1       2.909  -2.486  -0.033  0.00  0.00    +0.029 A 
ATOM     10  C   UNL     1       3.709  -3.516   0.411  0.00  0.00    +0.013 A 
ATOM     11  C   UNL     1       3.338  -4.843   0.181  0.00  0.00    +0.020 A 
ATOM     12  C   UNL     1       2.154  -5.127  -0.498  0.00  0.00    +0.039 A 
ATOM     13  C   UNL     1       1.351  -4.091  -0.942  0.00  0.00    +0.068 A 
ATOM     14  N   UNL     1       0.141  -4.049  -1.632  0.00  0.00    -0.306 N 
ATOM     15  H   UNL     1      -0.368  -4.818  -1.933  0.00  0.00    +0.170 HD
ATOM     16  C   UNL     1      -0.202  -2.759  -1.806  0.00  0.00    +0.328 A 
ATOM     17  O   UNL     1      -1.209  -2.372  -2.369  0.00  0.00    -0.247 OA
BRANCH   7  18
ATOM     18  C   UNL     1       0.718  -0.497  -1.257  0.00  0.00    +0.127 C 
BRANCH  18  20
ATOM     19  C   UNL     1      -0.019   1.526   0.010  0.00  0.00    +0.005 C 
ATOM     20  C   UNL     1       0.002  -0.004   0.002  0.00  0.00    +0.018 C 
ENDBRANCH  18  20
ENDBRANCH   7  18
ENDBRANCH   1  11
BRANCH   4  21
ATOM     21  C   UNL     1       6.033  -7.333   3.111  0.00  0.00    +0.055 A 
ATOM     22  C   UNL     1       5.435  -6.450   3.990  0.00  0.00    +0.012 A 
ATOM     23  C   UNL     1       5.537  -6.654   5.353  0.00  0.00    +0.001 A 
ATOM     24  C   UNL     1       6.238  -7.741   5.842  0.00  0.00    +0.004 A 
ATOM     25  C   UNL     1       6.837  -8.627   4.968  0.00  0.00    +0.046 A 
ATOM     26  C   UNL     1       6.731  -8.428   3.599  0.00  0.00    +0.129 A 
BRANCH  26  27
ATOM     27  O   UNL     1       7.316  -9.302   2.737  0.00  0.00    -0.492 OA
BRANCH  27  28
ATOM     28  C   UNL     1       8.019 -10.406   3.310  0.00  0.00    +0.225 C 
ATOM     29  C   UNL     1       8.604 -11.273   2.193  0.00  0.00    +0.048 C 
ENDBRANCH  27  28
ENDBRANCH  26  27
ENDBRANCH   4  21
TORSDOF 6
