REMARK  Name = ZINC42876363
REMARK  5 active torsions:
REMARK  status: ('A' for Active; 'I' for Inactive)
REMARK    1  A    between atoms: C_2  and  C_21
REMARK    2  A    between atoms: C_3  and  O_10
REMARK    3  A    between atoms: O_10  and  C_11
REMARK    4  A    between atoms: C_18  and  O_20
REMARK    5  A    between atoms: C_21  and  O_22
REMARK                            x       y       z     vdW  Elec       q    Type
REMARK                         _______ _______ _______ _____ _____    ______ ____
ROOT
ATOM      1  C   UNL     1       0.017   1.370  -0.490  0.00  0.00    +0.059 A 
ATOM      2  C   UNL     1       1.181   2.075  -0.251  0.00  0.00    +0.023 A 
ATOM      3  C   UNL     1       2.404   1.421  -0.256  0.00  0.00    +0.130 A 
ATOM      4  C   UNL     1       2.460   0.058  -0.502  0.00  0.00    +0.095 A 
ATOM      5  C   UNL     1       1.295  -0.651  -0.742  0.00  0.00    +0.170 A 
ATOM      6  C   UNL     1       0.068   0.008  -0.736  0.00  0.00    +0.167 A 
ATOM      7  O   UNL     1      -0.918  -0.902  -0.996  0.00  0.00    -0.453 OA
ATOM      8  C   UNL     1      -0.247  -2.042  -1.564  0.00  0.00    +0.466 C 
ATOM      9  O   UNL     1       1.078  -1.973  -1.006  0.00  0.00    -0.452 OA
ENDROOT
BRANCH   3  10
ATOM     10  O   UNL     1       3.548   2.117  -0.021  0.00  0.00    -0.484 OA
BRANCH  10  11
ATOM     11  C   UNL     1       4.758   1.363   0.074  0.00  0.00    +0.224 C 
ATOM     12  C   UNL     1       5.317   1.106  -1.353  0.00  0.00    +0.213 C 
ATOM     13  S   UNL     1       7.076   0.734  -0.932  0.00  0.00    -0.025 S 
ATOM     14  O   UNL     1       7.917   1.208  -1.975  0.00  0.00    -0.174 OA
ATOM     15  O   UNL     1       7.179  -0.618  -0.506  0.00  0.00    -0.174 OA
ATOM     16  C   UNL     1       7.238   1.845   0.528  0.00  0.00    +0.201 C 
ATOM     17  C   UNL     1       5.775   2.141   0.908  0.00  0.00    +0.177 C 
BRANCH  17  18
ATOM     18  O   UNL     1       5.532   3.539   0.739  0.00  0.00    -0.386 OA
ATOM     19  H   UNL     1       6.136   4.107   1.236  0.00  0.00    +0.210 HD
ENDBRANCH  17  18
ENDBRANCH  10  11
ENDBRANCH   3  10
BRANCH   2  20
ATOM     20  C   UNL     1       1.122   3.558   0.016  0.00  0.00    +0.194 C 
BRANCH  20  21
ATOM     21  O   UNL     1      -0.237   3.996  -0.031  0.00  0.00    -0.390 OA
ATOM     22  H   UNL     1      -0.351   4.942   0.132  0.00  0.00    +0.210 HD
ENDBRANCH  20  21
ENDBRANCH   2  20
TORSDOF 5
