REMARK  Name = ZINC08757678
REMARK  6 active torsions:
REMARK  status: ('A' for Active; 'I' for Inactive)
REMARK    1  A    between atoms: C_4  and  N_7
REMARK    2  A    between atoms: N_7  and  C_8
REMARK    3  A    between atoms: C_8  and  N_25
REMARK    4  A    between atoms: N_15  and  C_18
REMARK    5  A    between atoms: N_25  and  C_26
REMARK    6  A    between atoms: C_26  and  C_27
REMARK                            x       y       z     vdW  Elec       q    Type
REMARK                         _______ _______ _______ _____ _____    ______ ____
ROOT
ATOM      1  C   UNL     1       1.017  -4.168  -1.802  0.00  0.00    +0.106 C 
ATOM      2  C   UNL     1       1.443  -4.469  -3.102  0.00  0.00    +0.135 C 
ATOM      3  C   UNL     1       1.469  -3.468  -4.112  0.00  0.00    +0.260 C 
ATOM      4  O   UNL     1       1.120  -2.328  -3.863  0.00  0.00    -0.269 OA
ATOM      5  N   UNL     1       1.891  -3.799  -5.349  0.00  0.00    -0.235 N 
ATOM      6  C   UNL     1       2.272  -5.055  -5.635  0.00  0.00    +0.320 C 
ATOM      7  O   UNL     1       2.641  -5.317  -6.763  0.00  0.00    -0.251 OA
ATOM      8  N   UNL     1       2.258  -6.031  -4.712  0.00  0.00    -0.190 N 
ATOM      9  C   UNL     1       1.855  -5.784  -3.449  0.00  0.00    +0.267 C 
ATOM     10  O   UNL     1       1.845  -6.675  -2.619  0.00  0.00    -0.269 OA
ATOM     11  H   UNL     1       1.915  -3.122  -6.044  0.00  0.00    +0.159 HD
ENDROOT
BRANCH   8  12
ATOM     12  C   UNL     1       2.667  -7.324  -5.067  0.00  0.00    +0.046 A 
ATOM     13  C   UNL     1       3.798  -7.880  -4.485  0.00  0.00    +0.025 A 
ATOM     14  C   UNL     1       4.196  -9.156  -4.833  0.00  0.00    +0.017 A 
ATOM     15  C   UNL     1       3.474  -9.876  -5.768  0.00  0.00    +0.018 A 
ATOM     16  C   UNL     1       2.350  -9.323  -6.353  0.00  0.00    +0.017 A 
ATOM     17  C   UNL     1       1.944  -8.049  -6.005  0.00  0.00    +0.025 A 
ATOM     18 BR   UNL     1       4.027 -11.620  -6.248  0.00  0.00    -0.050 Br
ENDBRANCH   8  12
BRANCH   1  19
ATOM     19  N   UNL     1       0.903  -5.160  -0.875  0.00  0.00    -0.302 N 
ATOM     20  H   UNL     1       1.645  -5.357  -0.282  0.00  0.00    +0.153 HD
BRANCH  19  24
ATOM     21  C   UNL     1      -2.631  -7.348  -0.589  0.00  0.00    +0.000 A 
ATOM     22  C   UNL     1      -1.609  -7.566   0.317  0.00  0.00    +0.002 A 
ATOM     23  C   UNL     1      -0.436  -6.842   0.225  0.00  0.00    +0.023 A 
ATOM     24  C   UNL     1      -0.283  -5.895  -0.779  0.00  0.00    +0.032 A 
ATOM     25  C   UNL     1      -1.314  -5.674  -1.684  0.00  0.00    +0.023 A 
ATOM     26  C   UNL     1      -2.482  -6.405  -1.590  0.00  0.00    +0.002 A 
ENDBRANCH  19  24
ENDBRANCH   1  19
BRANCH   1  27
ATOM     27  N   UNL     1       0.716  -2.883  -1.464  0.00  0.00    -0.327 N 
ATOM     28  H   UNL     1       0.741  -2.186  -2.138  0.00  0.00    +0.148 HD
BRANCH  27  29
ATOM     29  C   UNL     1       0.356  -2.554  -0.083  0.00  0.00    +0.138 C 
BRANCH  29  30
ATOM     30  C   UNL     1       0.193  -1.062   0.052  0.00  0.00    -0.028 A 
ATOM     31  C   UNL     1      -1.043  -0.479  -0.165  0.00  0.00    +0.005 A 
ATOM     32  C   UNL     1      -1.194   0.889  -0.042  0.00  0.00    +0.003 A 
ATOM     33  C   UNL     1      -0.110   1.677   0.297  0.00  0.00    +0.038 A 
ATOM     34  C   UNL     1       1.127   1.095   0.514  0.00  0.00    +0.124 A 
ATOM     35  C   UNL     1       1.278  -0.276   0.391  0.00  0.00    +0.043 A 
ATOM     36  F   UNL     1       2.187   1.864   0.846  0.00  0.00    -0.205 F 
ENDBRANCH  29  30
ENDBRANCH  27  29
ENDBRANCH   1  27
TORSDOF 6
