REMARK  Name = ZINC20491936
REMARK  6 active torsions:
REMARK  status: ('A' for Active; 'I' for Inactive)
REMARK    1  A    between atoms: C_1  and  C_2
REMARK    2  A    between atoms: C_5  and  C_25
REMARK    3  A    between atoms: C_6  and  N_8
REMARK    4  A    between atoms: N_8  and  S_9
REMARK    5  A    between atoms: S_9  and  C_12
REMARK    6  A    between atoms: C_19  and  N_22
REMARK                            x       y       z     vdW  Elec       q    Type
REMARK                         _______ _______ _______ _____ _____    ______ ____
ROOT
ATOM      1  S   UNL     1      -1.418   1.454  -0.006  0.00  0.00    +0.074 S 
ATOM      2  O   UNL     1      -2.200   0.284   0.197  0.00  0.00    -0.150 OA
ATOM      3  O   UNL     1      -1.605   2.637   0.759  0.00  0.00    -0.150 OA
ENDROOT
BRANCH   1   4
ATOM      4  C   UNL     1      -1.623   1.909  -1.696  0.00  0.00    +0.133 A 
ATOM      5  C   UNL     1      -2.401   1.294  -2.600  0.00  0.00    +0.112 A 
ATOM      6  N   UNL     1      -2.305   1.929  -3.808  0.00  0.00    -0.359 N 
ATOM      7  H   UNL     1      -2.879   1.560  -4.671  0.00  0.00    +0.165 HD
ATOM      8  C   UNL     1      -1.440   2.996  -3.708  0.00  0.00    +0.049 A 
ATOM      9  C   UNL     1      -0.980   3.034  -2.379  0.00  0.00    +0.028 A 
ATOM     10  C   UNL     1      -0.072   4.019  -1.984  0.00  0.00    +0.044 A 
ATOM     11  C   UNL     1       0.355   4.950  -2.889  0.00  0.00    +0.127 A 
ATOM     12  C   UNL     1      -0.102   4.921  -4.199  0.00  0.00    +0.035 A 
ATOM     13  C   UNL     1      -0.993   3.954  -4.612  0.00  0.00    +0.028 A 
BRANCH  11  14
ATOM     14  N   UNL     1       1.312   5.997  -2.468  0.00  0.00    +0.056 N 
ATOM     15  O   UNL     1       1.635   6.876  -3.248  0.00  0.00    -0.126 OA
ATOM     16  O   UNL     1       1.777   5.980  -1.343  0.00  0.00    -0.126 OA
ENDBRANCH  11  14
ENDBRANCH   1   4
BRANCH   1  17
ATOM     17  N   UNL     1       0.164   1.006   0.193  0.00  0.00    -0.216 N 
ATOM     18  H   UNL     1       0.837   1.623   0.805  0.00  0.00    +0.174 HD
BRANCH  17  24
ATOM     19  C   UNL     1       0.142  -2.081  -3.631  0.00  0.00    +0.044 C 
ATOM     20  C   UNL     1       0.649  -1.677  -2.271  0.00  0.00    -0.049 A 
ATOM     21  C   UNL     1       1.590  -2.458  -1.625  0.00  0.00    +0.004 A 
ATOM     22  C   UNL     1       2.059  -2.091  -0.377  0.00  0.00    +0.005 A 
ATOM     23  C   UNL     1       1.587  -0.942   0.229  0.00  0.00    -0.028 A 
ATOM     24  C   UNL     1       0.642  -0.156  -0.417  0.00  0.00    +0.051 A 
ATOM     25  C   UNL     1       0.171  -0.530  -1.669  0.00  0.00    +0.028 A 
ATOM     26  C   UNL     1       2.098  -0.543   1.590  0.00  0.00    +0.046 C 
ENDBRANCH  17  24
ENDBRANCH   1  17
TORSDOF 4
