REMARK  Name = ZINC00649031
REMARK  7 active torsions:
REMARK  status: ('A' for Active; 'I' for Inactive)
REMARK    1  A    between atoms: C_1  and  C_2
REMARK    2  A    between atoms: C_9  and  N_29
REMARK    3  A    between atoms: C_10  and  C_27
REMARK    4  A    between atoms: C_11  and  C_13
REMARK    5  A    between atoms: C_16  and  C_18
REMARK    6  A    between atoms: C_18  and  O_19
REMARK    7  A    between atoms: O_19  and  C_20
REMARK                            x       y       z     vdW  Elec       q    Type
REMARK                         _______ _______ _______ _____ _____    ______ ____
ROOT
ATOM      1  C   UNL     1      -3.504   4.405   0.816  0.00  0.00    +0.068 C 
ATOM      2  C   UNL     1      -2.015   4.582   0.674  0.00  0.00    +0.068 A 
ATOM      3  C   UNL     1      -1.105   3.591   0.334  0.00  0.00    +0.052 A 
ATOM      4  C   UNL     1       0.143   4.150   0.311  0.00  0.00    +0.223 A 
ATOM      5  N   UNL     1       0.011   5.449   0.625  0.00  0.00    -0.246 N 
ATOM      6  H   UNL     1       0.752   6.117   0.688  0.00  0.00    +0.192 HD
ATOM      7  N   UNL     1      -1.351   5.701   0.850  0.00  0.00    -0.176 NA
ATOM      8  O   UNL     1       1.259   3.439   0.013  0.00  0.00    -0.423 OA
ATOM      9  C   UNL     1       1.158   2.095   0.002  0.00  0.00    +0.201 C 
ATOM     10  C   UNL     1      -0.017   1.428   0.010  0.00  0.00    +0.101 C 
ATOM     11  C   UNL     1      -1.349   2.136   0.020  0.00  0.00    +0.137 C 
ENDROOT
BRANCH  11  12
ATOM     12  C   UNL     1      -2.005   2.005  -1.330  0.00  0.00    +0.118 A 
ATOM     13  C   UNL     1      -3.196   1.429  -1.574  0.00  0.00    +0.046 A 
ATOM     14  C   UNL     1      -3.421   1.527  -2.967  0.00  0.00    +0.048 A 
ATOM     15  C   UNL     1      -2.354   2.157  -3.490  0.00  0.00    +0.142 A 
ATOM     16  O   UNL     1      -1.502   2.450  -2.494  0.00  0.00    -0.460 OA
BRANCH  15  17
ATOM     17  C   UNL     1      -2.151   2.485  -4.947  0.00  0.00    +0.303 C 
BRANCH  17  18
ATOM     18  O   UNL     1      -2.699   3.775  -5.226  0.00  0.00    -0.484 OA
BRANCH  18  19
ATOM     19  C   UNL     1      -2.599   4.224  -6.505  0.00  0.00    +0.122 A 
ATOM     20  C   UNL     1      -1.981   3.442  -7.470  0.00  0.00    +0.046 A 
ATOM     21  C   UNL     1      -1.884   3.899  -8.770  0.00  0.00    +0.005 A 
ATOM     22  C   UNL     1      -2.393   5.139  -9.108  0.00  0.00    +0.015 A 
ATOM     23  C   UNL     1      -3.006   5.923  -8.147  0.00  0.00    +0.021 A 
ATOM     24  C   UNL     1      -3.110   5.468  -6.846  0.00  0.00    +0.061 A 
ATOM     25 BR   UNL     1      -3.701   7.619  -8.613  0.00  0.00    -0.050 Br
ENDBRANCH  18  19
ENDBRANCH  17  18
ENDBRANCH  15  17
ENDBRANCH  11  12
BRANCH   9  26
ATOM     26  N   UNL     1       2.318   1.360  -0.018  0.00  0.00    -0.328 N 
ATOM     27  H   UNL     1       2.278   0.391  -0.026  0.00  0.00    +0.145 HD
ATOM     28  H   UNL     1       3.177   1.810  -0.024  0.00  0.00    +0.145 HD
ENDBRANCH   9  26
BRANCH  10  29
ATOM     29  C   UNL     1       0.002  -0.004   0.002  0.00  0.00    +0.101 C 
ATOM     30  N   UNL     1       0.018  -1.140  -0.004  0.00  0.00    -0.191 NA
ENDBRANCH  10  29
TORSDOF 6
