REMARK  Name = ZINC13347872
REMARK  7 active torsions:
REMARK  status: ('A' for Active; 'I' for Inactive)
REMARK    1  A    between atoms: C_4  and  C_7
REMARK    2  A    between atoms: C_7  and  C_27
REMARK    3  A    between atoms: N_10  and  C_14
REMARK    4  A    between atoms: C_14  and  C_15
REMARK    5  A    between atoms: N_17  and  C_18
REMARK    6  A    between atoms: C_18  and  C_19
REMARK    7  A    between atoms: C_22  and  C_25
REMARK                            x       y       z     vdW  Elec       q    Type
REMARK                         _______ _______ _______ _____ _____    ______ ____
ROOT
ATOM      1  C   UNL     1      -9.928   7.473   3.136  0.00  0.00    +0.164 C 
ATOM      2  C   UNL     1      -8.659   7.890   2.419  0.00  0.00    +0.256 C 
ATOM      3  O   UNL     1      -8.434   8.958   1.891  0.00  0.00    -0.272 OA
ATOM      4  N   UNL     1      -7.834   6.827   2.490  0.00  0.00    -0.215 N 
ATOM      5  C   UNL     1      -8.397   5.809   3.152  0.00  0.00    +0.310 C 
ATOM      6  O   UNL     1      -7.845   4.744   3.349  0.00  0.00    -0.252 OA
ATOM      7  N   UNL     1      -9.641   6.097   3.576  0.00  0.00    -0.278 N 
ATOM      8  H   UNL     1     -10.233   5.512   4.074  0.00  0.00    +0.152 HD
ENDROOT
BRANCH   1  12
ATOM      9  C   UNL     1     -13.265   7.535   0.471  0.00  0.00    +0.000 A 
ATOM     10  C   UNL     1     -12.412   8.621   0.536  0.00  0.00    +0.000 A 
ATOM     11  C   UNL     1     -11.332   8.601   1.399  0.00  0.00    +0.006 A 
ATOM     12  C   UNL     1     -11.105   7.495   2.196  0.00  0.00    -0.011 A 
ATOM     13  C   UNL     1     -11.954   6.407   2.127  0.00  0.00    +0.006 A 
ATOM     14  C   UNL     1     -13.037   6.429   1.267  0.00  0.00    +0.000 A 
ENDBRANCH   1  12
BRANCH   1  15
ATOM     15  C   UNL     1     -10.183   8.366   4.324  0.00  0.00    -0.011 A 
ATOM     16  C   UNL     1     -10.213   9.739   4.162  0.00  0.00    +0.006 A 
ATOM     17  C   UNL     1     -10.451  10.558   5.250  0.00  0.00    +0.000 A 
ATOM     18  C   UNL     1     -10.650  10.004   6.501  0.00  0.00    +0.000 A 
ATOM     19  C   UNL     1     -10.614   8.632   6.663  0.00  0.00    +0.000 A 
ATOM     20  C   UNL     1     -10.380   7.813   5.575  0.00  0.00    +0.006 A 
ENDBRANCH   1  15
BRANCH   4  21
ATOM     21  C   UNL     1      -6.486   6.792   1.918  0.00  0.00    +0.213 C 
BRANCH  21  22
ATOM     22  C   UNL     1      -6.554   6.280   0.502  0.00  0.00    +0.231 C 
ATOM     23  O   UNL     1      -7.623   5.975   0.019  0.00  0.00    -0.274 OA
ATOM     24  N   UNL     1      -5.426   6.162  -0.226  0.00  0.00    -0.310 N 
ATOM     25  H   UNL     1      -4.571   6.406   0.161  0.00  0.00    +0.149 HD
BRANCH  24  26
ATOM     26  C   UNL     1      -5.492   5.664  -1.602  0.00  0.00    +0.139 C 
BRANCH  26  27
ATOM     27  C   UNL     1      -4.105   5.628  -2.190  0.00  0.00    -0.030 A 
ATOM     28  C   UNL     1      -3.331   4.489  -2.060  0.00  0.00    +0.006 A 
ATOM     29  C   UNL     1      -2.061   4.449  -2.596  0.00  0.00    +0.015 A 
ATOM     30  C   UNL     1      -1.556   5.561  -3.272  0.00  0.00    +0.063 A 
ATOM     31  C   UNL     1      -2.340   6.710  -3.395  0.00  0.00    +0.015 A 
ATOM     32  C   UNL     1      -3.611   6.735  -2.859  0.00  0.00    +0.006 A 
BRANCH  30  33
ATOM     33  C   UNL     1      -0.197   5.526  -3.849  0.00  0.00    +0.387 C 
ATOM     34  O   UNL     1       0.485   4.527  -3.736  0.00  0.00    -0.241 OA
ATOM     35  O   UNL     1       0.285   6.599  -4.505  0.00  0.00    -0.241 OA
ENDBRANCH  30  33
ENDBRANCH  26  27
ENDBRANCH  24  26
ENDBRANCH  21  22
ENDBRANCH   4  21
TORSDOF 7
