REMARK  Name = ZINC14836817
REMARK  14 active torsions:
REMARK  status: ('A' for Active; 'I' for Inactive)
REMARK    1  A    between atoms: C_1  and  C_2
REMARK    2  A    between atoms: C_2  and  C_4
REMARK    3  A    between atoms: C_2  and  O_20
REMARK    4  A    between atoms: N_6  and  C_7
REMARK    5  A    between atoms: C_10  and  C_13
REMARK    6  A    between atoms: N_15  and  C_16
REMARK    7  A    between atoms: C_16  and  C_17
REMARK    8  A    between atoms: C_16  and  C_18
REMARK    9  A    between atoms: C_16  and  C_19
REMARK   10  A    between atoms: O_20  and  C_21
REMARK   11  A    between atoms: C_24  and  C_27
REMARK   12  A    between atoms: C_27  and  C_28
REMARK   13  A    between atoms: C_27  and  C_29
REMARK   14  A    between atoms: C_27  and  C_30
REMARK                            x       y       z     vdW  Elec       q    Type
REMARK                         _______ _______ _______ _____ _____    ______ ____
ROOT
ATOM      1  C   UNL     1      -5.985  -2.623  -0.079  0.00  0.00    +0.258 C 
ATOM      2  O   UNL     1      -4.939  -3.231  -0.155  0.00  0.00    -0.271 OA
ATOM      3  N   UNL     1      -5.977  -1.283   0.067  0.00  0.00    -0.282 N 
ATOM      4  H   UNL     1      -6.810  -0.805   0.203  0.00  0.00    +0.155 HD
ENDROOT
BRANCH   3   5
ATOM      5  C   UNL     1      -4.771  -0.584   0.023  0.00  0.00    +0.034 A 
ATOM      6  C   UNL     1      -3.744  -1.024  -0.806  0.00  0.00    +0.024 A 
ATOM      7  C   UNL     1      -2.552  -0.336  -0.852  0.00  0.00    +0.015 A 
ATOM      8  C   UNL     1      -2.375   0.805  -0.065  0.00  0.00    +0.037 A 
ATOM      9  C   UNL     1      -3.406   1.240   0.771  0.00  0.00    +0.015 A 
ATOM     10  C   UNL     1      -4.598   0.551   0.808  0.00  0.00    +0.024 A 
BRANCH   8  11
ATOM     11  C   UNL     1      -1.098   1.544  -0.111  0.00  0.00    +0.244 C 
ATOM     12  O   UNL     1      -0.200   1.161  -0.835  0.00  0.00    -0.270 OA
ATOM     13  N   UNL     1      -0.929   2.644   0.649  0.00  0.00    -0.307 N 
ATOM     14  H   UNL     1      -1.645   2.950   1.226  0.00  0.00    +0.150 HD
BRANCH  13  15
ATOM     15  C   UNL     1       0.341   3.375   0.607  0.00  0.00    +0.026 C 
ATOM     16  C   UNL     1       0.596   3.873  -0.817  0.00  0.00    +0.031 C 
ATOM     17  C   UNL     1       0.273   4.569   1.561  0.00  0.00    +0.031 C 
ATOM     18  C   UNL     1       1.478   2.445   1.034  0.00  0.00    +0.031 C 
ENDBRANCH  13  15
ENDBRANCH   8  11
ENDBRANCH   3   5
BRANCH   1  20
ATOM     19  C   UNL     1      -8.052  -2.948  -1.410  0.00  0.00    +0.062 C 
ATOM     20  C   UNL     1      -7.295  -3.365  -0.148  0.00  0.00    +0.256 C 
BRANCH  20  21
ATOM     21  O   UNL     1      -7.044  -4.771  -0.185  0.00  0.00    -0.480 OA
BRANCH  21  22
ATOM     22  C   UNL     1      -8.043  -5.588   0.241  0.00  0.00    +0.122 A 
ATOM     23  C   UNL     1      -9.218  -5.046   0.741  0.00  0.00    +0.046 A 
ATOM     24  C   UNL     1     -10.235  -5.878   1.168  0.00  0.00    +0.008 A 
ATOM     25  C   UNL     1     -10.078  -7.250   1.108  0.00  0.00    -0.042 A 
ATOM     26  C   UNL     1      -8.905  -7.793   0.615  0.00  0.00    +0.008 A 
ATOM     27  C   UNL     1      -7.888  -6.965   0.181  0.00  0.00    +0.046 A 
BRANCH  25  28
ATOM     28  C   UNL     1     -11.186  -8.156   1.580  0.00  0.00    -0.013 C 
ATOM     29  C   UNL     1     -10.674  -9.034   2.724  0.00  0.00    +0.015 C 
ATOM     30  C   UNL     1     -12.361  -7.310   2.072  0.00  0.00    +0.015 C 
ATOM     31  C   UNL     1     -11.646  -9.044   0.423  0.00  0.00    +0.015 C 
ENDBRANCH  25  28
ENDBRANCH  21  22
ENDBRANCH  20  21
ENDBRANCH   1  20
TORSDOF 7
