REMARK  Name = ZINC44216690
REMARK  5 active torsions:
REMARK  status: ('A' for Active; 'I' for Inactive)
REMARK    1  A    between atoms: C_5  and  O_14
REMARK    2  A    between atoms: C_6  and  C_7
REMARK    3  A    between atoms: C_7  and  C_9
REMARK    4  A    between atoms: C_7  and  N_13
REMARK    5  A    between atoms: C_9  and  C_10
REMARK                            x       y       z     vdW  Elec       q    Type
REMARK                         _______ _______ _______ _____ _____    ______ ____
ROOT
ATOM      1  C   UNL     1      -0.017   1.375   0.010  0.00  0.00    +0.011 A 
ATOM      2  C   UNL     1       1.169   2.091   0.002  0.00  0.00    -0.026 A 
ATOM      3  C   UNL     1       2.385   1.420  -0.012  0.00  0.00    +0.040 A 
ATOM      4  C   UNL     1       2.407   0.032  -0.024  0.00  0.00    +0.016 A 
ATOM      5  C   UNL     1       1.213  -0.678  -0.015  0.00  0.00    +0.123 A 
ATOM      6  C   UNL     1       0.002  -0.004   0.002  0.00  0.00    -0.019 A 
ATOM      7  C   UNL     1       3.701  -0.738  -0.057  0.00  0.00    +0.042 C 
ATOM      8  C   UNL     1       4.825   0.136  -0.615  0.00  0.00    +0.024 C 
ATOM      9  C   UNL     1       4.861   1.447   0.180  0.00  0.00    +0.105 C 
ATOM     10  N   UNL     1       3.585   2.139  -0.025  0.00  0.00    -0.329 N 
ATOM     11  C   UNL     1       3.570   3.587  -0.256  0.00  0.00    +0.105 C 
ATOM     12  C   UNL     1       2.406   4.184   0.547  0.00  0.00    +0.024 C 
ATOM     13  C   UNL     1       1.099   3.596   0.015  0.00  0.00    +0.038 C 
ENDROOT
BRANCH   5  14
ATOM     14  O   UNL     1       1.232  -2.037  -0.022  0.00  0.00    -0.506 OA
ATOM     15  H   UNL     1       1.248  -2.435   0.860  0.00  0.00    +0.292 HD
ENDBRANCH   5  14
BRANCH   6  16
ATOM     16  C   UNL     1      -1.292  -0.776   0.011  0.00  0.00    -0.030 C 
BRANCH  16  17
ATOM     17  N   UNL     1      -2.362   0.053  -0.559  0.00  0.00    +0.383 N 
ATOM     18  H   UNL     1      -2.125   0.302  -1.508  0.00  0.00    -0.089 HD
ATOM     19  H   UNL     1      -3.228  -0.464  -0.553  0.00  0.00    -0.089 HD
ATOM     20  H   UNL     1      -2.467   0.892  -0.007  0.00  0.00    -0.089 HD
ENDBRANCH  16  17
BRANCH  16  21
ATOM     21  C   UNL     1      -1.651  -1.153   1.450  0.00  0.00    +0.113 C 
BRANCH  21  22
ATOM     22  C   UNL     1      -2.877  -2.029   1.449  0.00  0.00    +0.355 C 
ATOM     23  O   UNL     1      -3.414  -2.325   0.395  0.00  0.00    -0.246 OA
ATOM     24  O   UNL     1      -3.332  -2.443   2.502  0.00  0.00    -0.246 OA
ENDBRANCH  21  22
ENDBRANCH  16  21
ENDBRANCH   6  16
TORSDOF 5
