REMARK  Name = ZINC36587022
REMARK  14 active torsions:
REMARK  status: ('A' for Active; 'I' for Inactive)
REMARK    1  A    between atoms: C_1  and  C_2
REMARK    2  A    between atoms: C_2  and  C_3
REMARK    3  A    between atoms: C_2  and  C_4
REMARK    4  A    between atoms: C_2  and  N_5
REMARK    5  A    between atoms: C_6  and  C_8
REMARK    6  A    between atoms: C_8  and  C_10
REMARK    7  A    between atoms: C_8  and  N_18
REMARK    8  A    between atoms: N_18  and  C_29
REMARK    9  A    between atoms: C_19  and  C_21
REMARK   10  A    between atoms: C_25  and  O_28
REMARK   11  A    between atoms: C_26  and  O_27
REMARK   12  A    between atoms: C_29  and  C_30
REMARK   13  A    between atoms: C_29  and  C_31
REMARK   14  A    between atoms: C_29  and  C_32
REMARK                            x       y       z     vdW  Elec       q    Type
REMARK                         _______ _______ _______ _____ _____    ______ ____
ROOT
ATOM      1  C   UNL     1       4.266  -0.803  -4.227  0.00  0.00    +0.196 C 
ENDROOT
BRANCH   1   2
ATOM      2  C   UNL     1       5.301  -1.711  -4.839  0.00  0.00    +0.018 A 
ATOM      3  C   UNL     1       6.326  -2.216  -4.060  0.00  0.00    +0.048 A 
ATOM      4  C   UNL     1       7.276  -3.050  -4.622  0.00  0.00    +0.020 A 
ATOM      5  C   UNL     1       7.201  -3.377  -5.963  0.00  0.00    +0.003 A 
ATOM      6  C   UNL     1       6.177  -2.873  -6.742  0.00  0.00    +0.020 A 
ATOM      7  C   UNL     1       5.223  -2.044  -6.179  0.00  0.00    +0.048 A 
ATOM      8 CL   UNL     1       3.933  -1.417  -7.157  0.00  0.00    -0.083 Cl
ATOM      9 CL   UNL     1       6.421  -1.804  -2.376  0.00  0.00    -0.083 Cl
ENDBRANCH   1   2
BRANCH   1  11
ATOM     10  N   UNL     1       2.822  -2.505  -3.160  0.00  0.00    -0.309 N 
ATOM     11  C   UNL     1       3.670  -1.467  -3.012  0.00  0.00    +0.239 C 
ATOM     12  O   UNL     1       3.953  -1.069  -1.903  0.00  0.00    -0.273 OA
ATOM     13  H   UNL     1       2.596  -2.824  -4.047  0.00  0.00    +0.149 HD
BRANCH  10  15
ATOM     14  C   UNL     1       1.436  -2.125  -1.181  0.00  0.00    +0.031 C 
ATOM     15  C   UNL     1       2.243  -3.151  -1.979  0.00  0.00    +0.026 C 
ATOM     16  C   UNL     1       3.365  -3.712  -1.103  0.00  0.00    +0.031 C 
ATOM     17  C   UNL     1       1.323  -4.290  -2.421  0.00  0.00    +0.031 C 
ENDBRANCH  10  15
ENDBRANCH   1  11
BRANCH   1  18
ATOM     18  N   UNL     1       4.895   0.460  -3.833  0.00  0.00    -0.277 N 
ATOM     19  C   UNL     1       6.210   0.656  -4.057  0.00  0.00    +0.252 C 
ATOM     20  O   UNL     1       6.912  -0.273  -4.406  0.00  0.00    -0.270 OA
BRANCH  19  21
ATOM     21  C   UNL     1       6.796   1.999  -3.880  0.00  0.00    +0.082 A 
ATOM     22  C   UNL     1       6.034   3.030  -3.322  0.00  0.00    +0.017 A 
ATOM     23  C   UNL     1       6.585   4.282  -3.158  0.00  0.00    +0.005 A 
ATOM     24  C   UNL     1       7.893   4.527  -3.543  0.00  0.00    +0.049 A 
ATOM     25  C   UNL     1       8.660   3.516  -4.098  0.00  0.00    +0.159 A 
ATOM     26  C   UNL     1       8.119   2.245  -4.265  0.00  0.00    +0.171 A 
BRANCH  26  27
ATOM     27  O   UNL     1       8.870   1.250  -4.803  0.00  0.00    -0.503 OA
ATOM     28  H   UNL     1       8.810   1.189  -5.766  0.00  0.00    +0.292 HD
ENDBRANCH  26  27
BRANCH  25  29
ATOM     29  O   UNL     1       9.943   3.765  -4.474  0.00  0.00    -0.503 OA
ATOM     30  H   UNL     1      10.595   3.607  -3.777  0.00  0.00    +0.292 HD
ENDBRANCH  25  29
ENDBRANCH  19  21
BRANCH  18  31
ATOM     31  C   UNL     1       4.096   1.509  -3.195  0.00  0.00    +0.030 C 
ATOM     32  C   UNL     1       2.700   0.968  -2.883  0.00  0.00    +0.031 C 
ATOM     33  C   UNL     1       4.775   1.948  -1.896  0.00  0.00    +0.031 C 
ATOM     34  C   UNL     1       3.980   2.707  -4.139  0.00  0.00    +0.031 C 
ENDBRANCH  18  31
ENDBRANCH   1  18
TORSDOF 8
