REMARK  Name = ZINC21235444
REMARK  8 active torsions:
REMARK  status: ('A' for Active; 'I' for Inactive)
REMARK    1  A    between atoms: C_1  and  C_2
REMARK    2  A    between atoms: C_2  and  C_3
REMARK    3  A    between atoms: C_2  and  O_4
REMARK    4  A    between atoms: O_4  and  C_5
REMARK    5  A    between atoms: C_8  and  C_13
REMARK    6  A    between atoms: C_10  and  O_11
REMARK    7  A    between atoms: O_11  and  C_12
REMARK    8  A    between atoms: C_18  and  C_23
REMARK                            x       y       z     vdW  Elec       q    Type
REMARK                         _______ _______ _______ _____ _____    ______ ____
ROOT
ATOM      1  C   UNL     1       2.523  -0.186  -3.007  0.00  0.00    +0.136 C 
ATOM      2  C   UNL     1       1.641   0.116  -1.819  0.00  0.00    +0.036 C 
ATOM      3  C   UNL     1       0.652  -0.664  -1.353  0.00  0.00    +0.017 C 
ATOM      4  C   UNL     1      -0.159  -0.238  -0.141  0.00  0.00    +0.059 C 
ATOM      5  C   UNL     1      -0.279   1.284  -0.103  0.00  0.00    +0.032 C 
ATOM      6  C   UNL     1       1.139   1.862  -0.025  0.00  0.00    +0.088 C 
ATOM      7  C   UNL     1       1.927   1.353  -1.195  0.00  0.00    +0.163 C 
ATOM      8  O   UNL     1       2.844   2.027  -1.622  0.00  0.00    -0.292 OA
ATOM      9  N   UNL     1       0.298  -1.863  -1.882  0.00  0.00    -0.316 N 
ATOM     10  C   UNL     1       0.116  -2.112  -3.237  0.00  0.00    +0.052 A 
ATOM     11  C   UNL     1      -1.116  -2.454  -3.769  0.00  0.00    +0.025 A 
ATOM     12  C   UNL     1      -1.217  -2.735  -5.121  0.00  0.00    +0.002 A 
ATOM     13  C   UNL     1      -0.097  -2.677  -5.931  0.00  0.00    +0.002 A 
ATOM     14  C   UNL     1       1.131  -2.319  -5.404  0.00  0.00    +0.025 A 
ATOM     15  C   UNL     1       1.231  -2.016  -4.056  0.00  0.00    +0.049 A 
ATOM     16  N   UNL     1       2.420  -1.542  -3.503  0.00  0.00    -0.331 N 
ATOM     17  H   UNL     1       0.134  -2.729  -1.223  0.00  0.00    +0.152 HD
ATOM     18  H   UNL     1       3.287  -2.216  -3.447  0.00  0.00    +0.147 HD
ENDROOT
BRANCH   5  19
ATOM     19  C   UNL     1      -1.069   1.704   1.110  0.00  0.00    -0.043 A 
ATOM     20  C   UNL     1      -0.620   1.373   2.375  0.00  0.00    +0.007 A 
ATOM     21  C   UNL     1      -1.341   1.762   3.488  0.00  0.00    +0.038 A 
ATOM     22  C   UNL     1      -2.519   2.474   3.335  0.00  0.00    +0.123 A 
ATOM     23  C   UNL     1      -2.969   2.801   2.068  0.00  0.00    +0.038 A 
ATOM     24  C   UNL     1      -2.244   2.416   0.956  0.00  0.00    +0.007 A 
ATOM     25  F   UNL     1      -3.227   2.851   4.423  0.00  0.00    -0.205 F 
ENDBRANCH   5  19
BRANCH   1  29
ATOM     26  C   UNL     1       1.481   2.496  -6.170  0.00  0.00    +0.162 A 
ATOM     27  C   UNL     1       0.567   1.554  -5.728  0.00  0.00    +0.050 A 
ATOM     28  C   UNL     1       0.907   0.688  -4.705  0.00  0.00    +0.009 A 
ATOM     29  C   UNL     1       2.158   0.759  -4.122  0.00  0.00    -0.019 A 
ATOM     30  C   UNL     1       3.073   1.701  -4.555  0.00  0.00    +0.055 A 
ATOM     31  C   UNL     1       2.741   2.568  -5.584  0.00  0.00    +0.162 A 
BRANCH  31  32
ATOM     32  O   UNL     1       3.642   3.491  -6.015  0.00  0.00    -0.491 OA
ATOM     33  C   UNL     1       4.915   3.507  -5.366  0.00  0.00    +0.277 C 
ENDBRANCH  31  32
BRANCH  26  34
ATOM     34  O   UNL     1       1.148   3.349  -7.176  0.00  0.00    -0.486 OA
BRANCH  34  36
ATOM     35  C   UNL     1      -0.571   4.644  -8.274  0.00  0.00    +0.051 C 
ATOM     36  C   UNL     1      -0.199   3.297  -7.651  0.00  0.00    +0.167 C 
ATOM     37  C   UNL     1      -0.327   2.195  -8.703  0.00  0.00    +0.051 C 
ENDBRANCH  34  36
ENDBRANCH  26  34
ENDBRANCH   1  29
TORSDOF 5
