REMARK  Name = ZINC14274126
REMARK  6 active torsions:
REMARK  status: ('A' for Active; 'I' for Inactive)
REMARK    1  A    between atoms: C_3  and  C_9
REMARK    2  A    between atoms: C_12  and  C_14
REMARK    3  A    between atoms: N_16  and  C_17
REMARK    4  A    between atoms: C_17  and  N_19
REMARK    5  A    between atoms: N_19  and  C_20
REMARK    6  A    between atoms: C_25  and  C_26
REMARK                            x       y       z     vdW  Elec       q    Type
REMARK                         _______ _______ _______ _____ _____    ______ ____
ROOT
ATOM      1  C   UNL     1      -4.721   1.365  -0.273  0.00  0.00    +0.285 C 
ATOM      2  O   UNL     1      -4.709   0.148  -0.280  0.00  0.00    -0.266 OA
ATOM      3  N   UNL     1      -3.564   2.049  -0.173  0.00  0.00    -0.261 N 
ATOM      4  H   UNL     1      -3.573   3.019  -0.168  0.00  0.00    +0.157 HD
ENDROOT
BRANCH   1   8
ATOM      5  C   UNL     1      -7.448   3.726  -0.484  0.00  0.00    +0.137 A 
ATOM      6  C   UNL     1      -8.160   2.563  -0.549  0.00  0.00    +0.051 A 
ATOM      7  C   UNL     1      -7.240   1.513  -0.486  0.00  0.00    +0.055 A 
ATOM      8  C   UNL     1      -5.990   2.085  -0.373  0.00  0.00    +0.190 A 
ATOM      9  O   UNL     1      -6.143   3.427  -0.378  0.00  0.00    -0.450 OA
BRANCH   5  12
ATOM     10  C   UNL     1      -9.455   6.713  -1.555  0.00  0.00    +0.021 A 
ATOM     11  C   UNL     1      -8.921   5.441  -1.528  0.00  0.00    +0.014 A 
ATOM     12  C   UNL     1      -8.018   5.088  -0.523  0.00  0.00    +0.036 A 
ATOM     13  C   UNL     1      -7.651   6.030   0.442  0.00  0.00    +0.053 A 
ATOM     14  C   UNL     1      -8.188   7.301   0.399  0.00  0.00    +0.040 A 
ATOM     15  C   UNL     1      -9.088   7.643  -0.597  0.00  0.00    +0.042 A 
ATOM     16 CL   UNL     1      -9.758   9.243  -0.644  0.00  0.00    -0.083 Cl
ATOM     17 CL   UNL     1      -6.523   5.604   1.691  0.00  0.00    -0.083 Cl
ENDBRANCH   5  12
ENDBRANCH   1   8
BRANCH   3  18
ATOM     18  C   UNL     1      -2.394   1.385  -0.081  0.00  0.00    +0.141 C 
ATOM     19  S   UNL     1      -2.378  -0.327  -0.090  0.00  0.00    -0.018 S 
BRANCH  18  20
ATOM     20  N   UNL     1      -1.237   2.069   0.019  0.00  0.00    -0.296 N 
ATOM     21  H   UNL     1      -1.250   3.037   0.088  0.00  0.00    +0.154 HD
BRANCH  20  22
ATOM     22  C   UNL     1      -0.017   1.384   0.024  0.00  0.00    +0.044 A 
ATOM     23  C   UNL     1       0.153   0.273   0.840  0.00  0.00    +0.025 A 
ATOM     24  C   UNL     1       1.356  -0.405   0.839  0.00  0.00    +0.022 A 
ATOM     25  C   UNL     1       2.391   0.021   0.025  0.00  0.00    +0.042 A 
ATOM     26  C   UNL     1       2.224   1.127  -0.790  0.00  0.00    +0.034 A 
ATOM     27  C   UNL     1       1.023   1.809  -0.792  0.00  0.00    +0.077 A 
ATOM     28 CL   UNL     1       3.902  -0.834   0.025  0.00  0.00    -0.084 Cl
BRANCH  27  29
ATOM     29  C   UNL     1       0.841   3.013  -1.679  0.00  0.00    +0.419 C 
ATOM     30  F   UNL     1       2.018   3.244  -2.400  0.00  0.00    -0.166 F 
ATOM     31  F   UNL     1      -0.213   2.782  -2.569  0.00  0.00    -0.166 F 
ATOM     32  F   UNL     1       0.549   4.133  -0.892  0.00  0.00    -0.166 F 
ENDBRANCH  27  29
ENDBRANCH  20  22
ENDBRANCH  18  20
ENDBRANCH   3  18
TORSDOF 6
