REMARK  Name = ZINC30939402
REMARK  6 active torsions:
REMARK  status: ('A' for Active; 'I' for Inactive)
REMARK    1  A    between atoms: C_10  and  C_11
REMARK    2  A    between atoms: C_11  and  N_12
REMARK    3  A    between atoms: C_15  and  C_18
REMARK    4  A    between atoms: N_20  and  C_21
REMARK    5  A    between atoms: C_24  and  S_27
REMARK    6  A    between atoms: S_27  and  N_30
REMARK                            x       y       z     vdW  Elec       q    Type
REMARK                         _______ _______ _______ _____ _____    ______ ____
ROOT
ATOM      1  C   UNL     1      -4.565   4.848  -5.202  0.00  0.00    +0.220 C 
ATOM      2  O   UNL     1      -4.883   6.012  -5.318  0.00  0.00    -0.275 OA
ATOM      3  N   UNL     1      -4.401   4.082  -6.299  0.00  0.00    -0.285 N 
ATOM      4  H   UNL     1      -4.039   3.048  -6.199  0.00  0.00    +0.155 HD
ENDROOT
BRANCH   1   8
ATOM      5  N   UNL     1      -2.938   4.272  -1.316  0.00  0.00    +0.382 N 
ATOM      6  C   UNL     1      -2.688   3.208  -2.297  0.00  0.00    -0.078 C 
ATOM      7  C   UNL     1      -2.914   3.751  -3.709  0.00  0.00    -0.006 C 
ATOM      8  C   UNL     1      -4.354   4.257  -3.832  0.00  0.00    +0.072 C 
ATOM      9  C   UNL     1      -4.603   5.329  -2.768  0.00  0.00    -0.006 C 
ATOM     10  C   UNL     1      -4.328   4.740  -1.383  0.00  0.00    -0.078 C 
ATOM     11  H   UNL     1      -2.285   5.120  -1.569  0.00  0.00    -0.081 HD
BRANCH   5  12
ATOM     12  C   UNL     1      -2.597   3.826   0.042  0.00  0.00    -0.042 C 
BRANCH  12  22
ATOM     13  C   UNL     1       2.299   5.319  -0.015  0.00  0.00    +0.001 A 
ATOM     14  C   UNL     1       1.072   5.981   0.004  0.00  0.00    +0.001 A 
ATOM     15  C   UNL     1      -0.098   5.286   0.016  0.00  0.00    +0.009 A 
ATOM     16  C   UNL     1      -0.073   3.881   0.010  0.00  0.00    -0.017 A 
ATOM     17  C   UNL     1       1.174   3.208  -0.010  0.00  0.00    -0.018 A 
ATOM     18  C   UNL     1       2.362   3.960  -0.022  0.00  0.00    +0.008 A 
ATOM     19  C   UNL     1       1.199   1.804  -0.017  0.00  0.00    +0.008 A 
ATOM     20  C   UNL     1       0.029   1.109  -0.005  0.00  0.00    +0.001 A 
ATOM     21  C   UNL     1      -1.198   1.770   0.008  0.00  0.00    +0.002 A 
ATOM     22  C   UNL     1      -1.261   3.130   0.022  0.00  0.00    -0.056 A 
ENDBRANCH  12  22
ENDBRANCH   5  12
ENDBRANCH   1   8
BRANCH   3  23
ATOM     23  C   UNL     1      -4.690   4.602  -7.566  0.00  0.00    +0.034 A 
ATOM     24  C   UNL     1      -5.224   3.781  -8.550  0.00  0.00    +0.025 A 
ATOM     25  C   UNL     1      -5.513   4.299  -9.797  0.00  0.00    +0.030 A 
ATOM     26  C   UNL     1      -5.261   5.631 -10.070  0.00  0.00    +0.106 A 
ATOM     27  C   UNL     1      -4.724   6.450  -9.094  0.00  0.00    +0.030 A 
ATOM     28  C   UNL     1      -4.438   5.939  -7.843  0.00  0.00    +0.025 A 
BRANCH  26  29
ATOM     29  S   UNL     1      -5.625   6.286 -11.665  0.00  0.00    +0.061 S 
ATOM     30  O   UNL     1      -6.626   5.450 -12.228  0.00  0.00    -0.153 OA
ATOM     31  O   UNL     1      -5.806   7.686 -11.497  0.00  0.00    -0.153 OA
BRANCH  29  32
ATOM     32  N   UNL     1      -4.268   6.092 -12.594  0.00  0.00    -0.177 NA
ATOM     33  C   UNL     1      -3.285   7.152 -12.616  0.00  0.00    +0.109 C 
ATOM     34  C   UNL     1      -3.623   8.160 -13.734  0.00  0.00    +0.017 C 
ATOM     35  C   UNL     1      -3.366   7.564 -15.054  0.00  0.00    +0.001 C 
ATOM     36  C   UNL     1      -4.226   6.343 -15.370  0.00  0.00    +0.001 C 
ATOM     37  C   UNL     1      -3.577   5.111 -14.790  0.00  0.00    +0.017 C 
ATOM     38  C   UNL     1      -4.115   4.847 -13.372  0.00  0.00    +0.109 C 
ENDBRANCH  29  32
ENDBRANCH  26  29
ENDBRANCH   3  23
TORSDOF 6
