REMARK  Name = ZINC16047458
REMARK  10 active torsions:
REMARK  status: ('A' for Active; 'I' for Inactive)
REMARK    1  A    between atoms: C_1  and  C_2
REMARK    2  A    between atoms: N_5  and  S_11
REMARK    3  A    between atoms: C_7  and  C_10
REMARK    4  A    between atoms: S_11  and  C_14
REMARK    5  A    between atoms: C_17  and  C_20
REMARK    6  A    between atoms: N_22  and  C_23
REMARK    7  A    between atoms: C_23  and  C_24
REMARK    8  A    between atoms: C_24  and  N_64
REMARK    9  A    between atoms: C_25  and  N_64
REMARK   10  A    between atoms: C_26  and  N_64
REMARK                            x       y       z     vdW  Elec       q    Type
REMARK                         _______ _______ _______ _____ _____    ______ ____
ROOT
ATOM      1  C   UNL     1      -1.903  -0.892   1.227  0.00  0.00    +0.252 C 
ATOM      2  O   UNL     1      -3.113  -0.810   1.303  0.00  0.00    -0.270 OA
ATOM      3  N   UNL     1      -1.317  -1.136   0.038  0.00  0.00    -0.248 N 
ATOM      4  C   UNL     1      -2.095  -1.429  -1.070  0.00  0.00    +0.168 A 
ATOM      5  N   UNL     1      -3.401  -1.515  -1.159  0.00  0.00    -0.224 NA
ATOM      6  C   UNL     1      -4.033  -1.812  -2.316  0.00  0.00    +0.080 A 
ATOM      7  C   UNL     1      -5.423  -1.934  -2.545  0.00  0.00    +0.032 A 
ATOM      8  C   UNL     1      -5.903  -2.244  -3.791  0.00  0.00    +0.040 A 
ATOM      9  C   UNL     1      -5.049  -2.447  -4.868  0.00  0.00    +0.125 A 
ATOM     10  C   UNL     1      -3.682  -2.335  -4.678  0.00  0.00    +0.055 A 
ATOM     11  C   UNL     1      -3.194  -2.026  -3.433  0.00  0.00    +0.043 A 
ATOM     12  S   UNL     1      -1.575  -1.779  -2.744  0.00  0.00    -0.052 S 
ATOM     13  F   UNL     1      -5.547  -2.751  -6.086  0.00  0.00    -0.205 F 
ENDROOT
BRANCH   1  17
ATOM     14  C   UNL     1       0.482  -0.415   4.709  0.00  0.00    +0.106 A 
ATOM     15  C   UNL     1      -0.795  -0.939   4.815  0.00  0.00    +0.029 A 
ATOM     16  C   UNL     1      -1.575  -1.096   3.688  0.00  0.00    +0.015 A 
ATOM     17  C   UNL     1      -1.073  -0.726   2.439  0.00  0.00    +0.037 A 
ATOM     18  C   UNL     1       0.218  -0.204   2.338  0.00  0.00    +0.015 A 
ATOM     19  C   UNL     1       0.985  -0.047   3.474  0.00  0.00    +0.029 A 
BRANCH  14  20
ATOM     20  S   UNL     1       1.471  -0.218   6.154  0.00  0.00    +0.061 S 
ATOM     21  O   UNL     1       2.420   0.798   5.860  0.00  0.00    -0.153 OA
ATOM     22  O   UNL     1       0.574  -0.129   7.252  0.00  0.00    -0.153 OA
BRANCH  20  26
ATOM     23  C   UNL     1       5.965  -2.644   6.184  0.00  0.00    +0.039 C 
ATOM     24  C   UNL     1       4.628  -2.272   6.827  0.00  0.00    +0.131 C 
ATOM     25  C   UNL     1       3.654  -1.794   5.744  0.00  0.00    +0.140 C 
ATOM     26  N   UNL     1       2.327  -1.621   6.356  0.00  0.00    -0.172 NA
ATOM     27  C   UNL     1       1.786  -2.730   7.158  0.00  0.00    +0.140 C 
ATOM     28  C   UNL     1       2.849  -3.165   8.168  0.00  0.00    +0.131 C 
ATOM     29  O   UNL     1       4.077  -3.418   7.482  0.00  0.00    -0.371 OA
ATOM     30  C   UNL     1       2.389  -4.439   8.880  0.00  0.00    +0.039 C 
ENDBRANCH  20  26
ENDBRANCH  14  20
ENDBRANCH   1  17
BRANCH   3  31
ATOM     31  C   UNL     1       0.142  -1.091  -0.083  0.00  0.00    +0.097 C 
BRANCH  31  32
ATOM     32  C   UNL     1       0.562   0.251  -0.686  0.00  0.00    -0.060 C 
BRANCH  32  35
ATOM     33  C   UNL     1       2.423   1.436  -1.684  0.00  0.00    -0.097 C 
ATOM     34  C   UNL     1       2.751   0.158   0.346  0.00  0.00    -0.097 C 
ATOM     35  N   UNL     1       2.019   0.227  -0.936  0.00  0.00    +0.377 N 
ATOM     36  H   UNL     1       2.247  -0.603  -1.496  0.00  0.00    -0.083 HD
ENDBRANCH  32  35
ENDBRANCH  31  32
ENDBRANCH   3  31
TORSDOF 6
