REMARK  Name = ZINC08789947
REMARK  9 active torsions:
REMARK  status: ('A' for Active; 'I' for Inactive)
REMARK    1  A    between atoms: C_1  and  C_2
REMARK    2  A    between atoms: C_2  and  C_3
REMARK    3  A    between atoms: C_14  and  C_16
REMARK    4  A    between atoms: C_16  and  C_17
REMARK    5  A    between atoms: C_17  and  S_18
REMARK    6  A    between atoms: S_18  and  C_19
REMARK    7  A    between atoms: N_22  and  C_25
REMARK    8  A    between atoms: C_25  and  C_26
REMARK    9  A    between atoms: C_26  and  C_27
REMARK                            x       y       z     vdW  Elec       q    Type
REMARK                         _______ _______ _______ _____ _____    ______ ____
ROOT
ATOM      1  C   UNL     1      -4.607   5.676  -0.735  0.00  0.00    -0.047 A 
ATOM      2  C   UNL     1      -4.273   6.941  -1.182  0.00  0.00    +0.005 A 
ATOM      3  C   UNL     1      -2.998   7.206  -1.635  0.00  0.00    +0.024 A 
ATOM      4  C   UNL     1      -2.036   6.199  -1.647  0.00  0.00    +0.036 A 
ATOM      5  C   UNL     1      -2.383   4.929  -1.194  0.00  0.00    -0.027 A 
ATOM      6  C   UNL     1      -3.657   4.670  -0.743  0.00  0.00    +0.008 A 
ATOM      7  C   UNL     1      -1.144   4.091  -1.335  0.00  0.00    +0.050 C 
ATOM      8  C   UNL     1      -0.699   3.514   0.015  0.00  0.00    +0.088 C 
ATOM      9  C   UNL     1      -1.260   2.065   0.019  0.00  0.00    +0.073 C 
ATOM     10  C   UNL     1      -1.992   1.917  -1.332  0.00  0.00    -0.057 C 
ATOM     11  C   UNL     1      -0.014   1.208   0.009  0.00  0.00    +0.224 C 
ATOM     12  O   UNL     1       0.002  -0.004   0.002  0.00  0.00    -0.275 OA
ATOM     13  N   UNL     1       1.067   1.996   0.003  0.00  0.00    -0.241 N 
ATOM     14  C   UNL     1       0.799   3.307   0.008  0.00  0.00    +0.225 C 
ATOM     15  O   UNL     1       1.629   4.191   0.008  0.00  0.00    -0.275 OA
ATOM     16  C   UNL     1      -0.106   5.018  -1.905  0.00  0.00    +0.211 C 
ATOM     17  O   UNL     1       1.043   4.739  -2.176  0.00  0.00    -0.277 OA
ATOM     18  N   UNL     1      -0.700   6.218  -2.055  0.00  0.00    -0.286 N 
ATOM     19  H   UNL     1      -0.252   7.004  -2.405  0.00  0.00    +0.155 HD
ATOM     20  N   UNL     1      -1.372   2.933  -2.183  0.00  0.00    +0.394 N 
ATOM     21  H   UNL     1      -0.481   2.587  -2.559  0.00  0.00    -0.083 HD
ATOM     22  H   UNL     1      -1.998   3.178  -2.958  0.00  0.00    -0.083 HD
ENDROOT
BRANCH   1  24
ATOM     23  C   UNL     1      -6.075   5.664   1.264  0.00  0.00    +0.009 C 
ATOM     24  C   UNL     1      -6.003   5.393  -0.240  0.00  0.00    +0.032 C 
ENDBRANCH   1  24
BRANCH  10  25
ATOM     25  C   UNL     1      -1.786   0.510  -1.897  0.00  0.00    -0.004 C 
BRANCH  25  26
ATOM     26  C   UNL     1      -2.619   0.344  -3.170  0.00  0.00    +0.067 C 
BRANCH  26  27
ATOM     27  S   UNL     1      -2.376  -1.324  -3.840  0.00  0.00    -0.164 S 
ATOM     28  C   UNL     1      -3.417  -1.356  -5.325  0.00  0.00    +0.084 C 
ENDBRANCH  26  27
ENDBRANCH  25  26
ENDBRANCH  10  25
BRANCH  13  29
ATOM     29  C   UNL     1       2.433   1.466  -0.010  0.00  0.00    +0.121 C 
BRANCH  29  30
ATOM     30  C   UNL     1       2.897   1.286  -1.456  0.00  0.00    +0.054 C 
BRANCH  30  31
ATOM     31  C   UNL     1       4.302   0.741  -1.469  0.00  0.00    -0.046 A 
ATOM     32  C   UNL     1       5.379   1.607  -1.481  0.00  0.00    +0.004 A 
ATOM     33  C   UNL     1       6.668   1.108  -1.488  0.00  0.00    +0.000 A 
ATOM     34  C   UNL     1       6.880  -0.258  -1.493  0.00  0.00    +0.000 A 
ATOM     35  C   UNL     1       5.802  -1.125  -1.486  0.00  0.00    +0.000 A 
ATOM     36  C   UNL     1       4.513  -0.625  -1.474  0.00  0.00    +0.004 A 
ENDBRANCH  30  31
ENDBRANCH  29  30
ENDBRANCH  13  29
TORSDOF 7
