REMARK  Name = ZINC21359877
REMARK  8 active torsions:
REMARK  status: ('A' for Active; 'I' for Inactive)
REMARK    1  A    between atoms: C_1  and  C_2
REMARK    2  A    between atoms: C_7  and  N_8
REMARK    3  A    between atoms: N_8  and  S_9
REMARK    4  A    between atoms: S_9  and  C_12
REMARK    5  A    between atoms: C_15  and  C_18
REMARK    6  A    between atoms: N_20  and  C_21
REMARK    7  A    between atoms: C_21  and  C_23
REMARK    8  A    between atoms: C_21  and  C_24
REMARK                            x       y       z     vdW  Elec       q    Type
REMARK                         _______ _______ _______ _____ _____    ______ ____
ROOT
ATOM      1  C   UNL     1      -1.553   2.390  -1.773  0.00  0.00    +0.109 A 
ATOM      2  C   UNL     1      -1.072   3.657  -2.051  0.00  0.00    +0.029 A 
ATOM      3  C   UNL     1      -1.137   4.156  -3.336  0.00  0.00    +0.015 A 
ATOM      4  C   UNL     1      -1.699   3.383  -4.353  0.00  0.00    +0.037 A 
ATOM      5  C   UNL     1      -2.187   2.108  -4.065  0.00  0.00    +0.015 A 
ATOM      6  C   UNL     1      -2.111   1.619  -2.777  0.00  0.00    +0.029 A 
ENDROOT
BRANCH   4   7
ATOM      7  C   UNL     1      -1.777   3.913  -5.731  0.00  0.00    +0.245 C 
ATOM      8  O   UNL     1      -2.266   3.238  -6.616  0.00  0.00    -0.270 OA
ATOM      9  N   UNL     1      -1.305   5.146  -6.007  0.00  0.00    -0.305 N 
ATOM     10  H   UNL     1      -0.862   5.757  -5.207  0.00  0.00    +0.150 HD
BRANCH   9  11
ATOM     11  C   UNL     1      -1.382   5.671  -7.372  0.00  0.00    +0.103 C 
ATOM     12  C   UNL     1      -0.171   5.188  -8.174  0.00  0.00    +0.033 C 
BRANCH  11  13
ATOM     13  C   UNL     1      -1.389   7.177  -7.331  0.00  0.00    +0.008 A 
ATOM     14  C   UNL     1      -0.828   7.842  -6.257  0.00  0.00    +0.008 A 
ATOM     15  C   UNL     1      -0.833   9.224  -6.219  0.00  0.00    +0.000 A 
ATOM     16  C   UNL     1      -1.399   9.943  -7.256  0.00  0.00    +0.003 A 
ATOM     17  C   UNL     1      -1.961   9.280  -8.331  0.00  0.00    +0.039 A 
ATOM     18  C   UNL     1      -1.951   7.896  -8.372  0.00  0.00    +0.128 A 
ATOM     19  F   UNL     1      -2.495   7.247  -9.425  0.00  0.00    -0.205 F 
ENDBRANCH  11  13
ENDBRANCH   9  11
ENDBRANCH   4   7
BRANCH   1  20
ATOM     20  S   UNL     1      -1.459   1.757  -0.131  0.00  0.00    +0.072 S 
ATOM     21  O   UNL     1      -2.474   0.770  -0.017  0.00  0.00    -0.150 OA
ATOM     22  O   UNL     1      -1.391   2.883   0.735  0.00  0.00    -0.150 OA
BRANCH  20  23
ATOM     23  N   UNL     1      -0.011   0.966   0.007  0.00  0.00    -0.216 N 
ATOM     24  H   UNL     1       0.008  -0.107   0.249  0.00  0.00    +0.174 HD
BRANCH  23  31
ATOM     25  C   UNL     1       2.146  -0.397  -1.251  0.00  0.00    +0.046 C 
ATOM     26  C   UNL     1       2.265   1.034  -0.793  0.00  0.00    -0.028 A 
ATOM     27  C   UNL     1       3.446   1.724  -0.980  0.00  0.00    +0.005 A 
ATOM     28  C   UNL     1       3.556   3.038  -0.561  0.00  0.00    +0.000 A 
ATOM     29  C   UNL     1       2.483   3.664   0.047  0.00  0.00    +0.002 A 
ATOM     30  C   UNL     1       1.297   2.982   0.233  0.00  0.00    +0.025 A 
ATOM     31  C   UNL     1       1.186   1.661  -0.183  0.00  0.00    +0.051 A 
ENDBRANCH  23  31
ENDBRANCH  20  23
ENDBRANCH   1  20
TORSDOF 6
