REMARK  Name = ZINC08766615
REMARK  6 active torsions:
REMARK  status: ('A' for Active; 'I' for Inactive)
REMARK    1  A    between atoms: C_4  and  C_7
REMARK    2  A    between atoms: C_18  and  N_19
REMARK    3  A    between atoms: C_23  and  C_26
REMARK    4  A    between atoms: C_33  and  C_34
REMARK    5  A    between atoms: C_33  and  C_40
REMARK    6  A    between atoms: C_33  and  N_82
REMARK                            x       y       z     vdW  Elec       q    Type
REMARK                         _______ _______ _______ _____ _____    ______ ____
ROOT
ATOM      1  N   UNL     1       8.678   2.204   1.334  0.00  0.00    -0.325 N 
ATOM      2  C   UNL     1       9.510   2.060   0.132  0.00  0.00    +0.105 C 
ATOM      3  C   UNL     1       8.612   1.982  -1.105  0.00  0.00    +0.020 C 
ATOM      4  C   UNL     1       7.666   0.786  -0.970  0.00  0.00    +0.016 C 
ATOM      5  C   UNL     1       6.846   0.936   0.314  0.00  0.00    +0.092 C 
ATOM      6  C   UNL     1       7.795   1.044   1.510  0.00  0.00    +0.118 C 
ENDROOT
BRANCH   1  18
ATOM      7  C   UNL     1       9.383   3.601   3.164  0.00  0.00    +0.018 A 
ATOM      8  C   UNL     1      10.234   3.773   4.353  0.00  0.00    +0.009 A 
ATOM      9  C   UNL     1      10.196   4.953   5.099  0.00  0.00    +0.030 A 
ATOM     10  C   UNL     1      11.005   5.084   6.208  0.00  0.00    +0.042 A 
ATOM     11  C   UNL     1      11.854   4.051   6.583  0.00  0.00    +0.022 A 
ATOM     12  C   UNL     1      11.902   2.882   5.855  0.00  0.00    +0.028 A 
ATOM     13  C   UNL     1      11.093   2.728   4.733  0.00  0.00    +0.050 A 
ATOM     14  N   UNL     1      11.129   1.563   3.993  0.00  0.00    -0.321 N 
ATOM     15  H   UNL     1      11.726   0.848   4.263  0.00  0.00    +0.169 HD
ATOM     16  C   UNL     1      10.351   1.396   2.910  0.00  0.00    +0.271 A 
ATOM     17  O   UNL     1      10.412   0.348   2.291  0.00  0.00    -0.266 OA
ATOM     18  C   UNL     1       9.467   2.409   2.467  0.00  0.00    +0.103 A 
ATOM     19 CL   UNL     1      10.962   6.548   7.140  0.00  0.00    -0.084 Cl
BRANCH   7  23
ATOM     20  C   UNL     1       6.741   6.682   1.907  0.00  0.00    +0.000 A 
ATOM     21  C   UNL     1       6.536   6.052   3.122  0.00  0.00    +0.001 A 
ATOM     22  C   UNL     1       7.390   5.051   3.536  0.00  0.00    +0.008 A 
ATOM     23  C   UNL     1       8.463   4.674   2.727  0.00  0.00    -0.015 A 
ATOM     24  C   UNL     1       8.668   5.318   1.505  0.00  0.00    +0.008 A 
ATOM     25  C   UNL     1       7.803   6.313   1.100  0.00  0.00    +0.001 A 
ENDBRANCH   7  23
ENDBRANCH   1  18
BRANCH   5  26
ATOM     26  C   UNL     1       5.955  -0.267   0.486  0.00  0.00    +0.220 C 
ATOM     27  O   UNL     1       6.252  -1.321  -0.036  0.00  0.00    -0.275 OA
ATOM     28  N   UNL     1       4.828  -0.172   1.219  0.00  0.00    -0.305 N 
ATOM     29  C   UNL     1       4.387   1.122   1.761  0.00  0.00    +0.089 C 
ATOM     30  C   UNL     1       4.114   0.954   3.260  0.00  0.00    -0.058 C 
ATOM     31  C   UNL     1       3.748  -1.430   3.007  0.00  0.00    -0.058 C 
ATOM     32  C   UNL     1       4.007  -1.360   1.498  0.00  0.00    +0.089 C 
ATOM     33  N   UNL     1       3.149  -0.151   3.446  0.00  0.00    +0.389 N 
ATOM     34  H   UNL     1       2.314   0.037   2.878  0.00  0.00    -0.080 HD
BRANCH  33  35
ATOM     35  C   UNL     1       2.753  -0.241   4.866  0.00  0.00    -0.007 C 
BRANCH  35  36
ATOM     36  C   UNL     1       2.161   1.077   5.293  0.00  0.00    -0.057 A 
ATOM     37  C   UNL     1       1.292   1.749   4.455  0.00  0.00    +0.002 A 
ATOM     38  C   UNL     1       0.745   2.956   4.849  0.00  0.00    +0.000 A 
ATOM     39  C   UNL     1       1.076   3.497   6.077  0.00  0.00    +0.000 A 
ATOM     40  C   UNL     1       1.950   2.828   6.913  0.00  0.00    +0.000 A 
ATOM     41  C   UNL     1       2.493   1.618   6.522  0.00  0.00    +0.002 A 
ENDBRANCH  35  36
BRANCH  35  42
ATOM     42  C   UNL     1       1.720  -1.327   5.016  0.00  0.00    -0.057 A 
ATOM     43  C   UNL     1       0.699  -1.444   4.091  0.00  0.00    +0.002 A 
ATOM     44  C   UNL     1      -0.246  -2.444   4.226  0.00  0.00    +0.000 A 
ATOM     45  C   UNL     1      -0.176  -3.321   5.292  0.00  0.00    +0.000 A 
ATOM     46  C   UNL     1       0.841  -3.201   6.221  0.00  0.00    +0.000 A 
ATOM     47  C   UNL     1       1.789  -2.205   6.083  0.00  0.00    +0.002 A 
ENDBRANCH  35  42
ENDBRANCH  33  35
ENDBRANCH   5  26
TORSDOF 6
