REMARK  Name = ZINC58997457
REMARK  8 active torsions:
REMARK  status: ('A' for Active; 'I' for Inactive)
REMARK    1  A    between atoms: C_3  and  O_31
REMARK    2  A    between atoms: C_4  and  C_10
REMARK    3  A    between atoms: C_6  and  N_7
REMARK    4  A    between atoms: N_11  and  N_12
REMARK    5  A    between atoms: C_15  and  S_18
REMARK    6  A    between atoms: S_18  and  C_19
REMARK    7  A    between atoms: C_19  and  C_20
REMARK    8  A    between atoms: N_22  and  C_23
REMARK                            x       y       z     vdW  Elec       q    Type
REMARK                         _______ _______ _______ _____ _____    ______ ____
ROOT
ATOM      1  N   UNL     1       5.892  -0.656   0.009  0.00  0.00    -0.205 N 
ATOM      2  C   UNL     1       7.056   0.024  -0.010  0.00  0.00    +0.232 A 
ATOM      3  N   UNL     1       7.198   1.347  -0.008  0.00  0.00    -0.186 NA
ATOM      4  C   UNL     1       8.500   1.608  -0.031  0.00  0.00    +0.211 A 
ATOM      5  N   UNL     1       9.165   0.450  -0.047  0.00  0.00    -0.144 NA
ATOM      6  N   UNL     1       8.316  -0.519  -0.029  0.00  0.00    -0.245 N 
ATOM      7  H   UNL     1       5.896  -1.626   0.010  0.00  0.00    +0.177 HD
ATOM      8  H   UNL     1       8.529  -1.465  -0.031  0.00  0.00    +0.192 HD
ENDROOT
BRANCH   1  10
ATOM      9  C   UNL     1       3.623  -0.687   0.044  0.00  0.00    +0.142 C 
ATOM     10  N   UNL     1       4.771  -0.016   0.026  0.00  0.00    -0.187 NA
BRANCH   9  14
ATOM     11  C   UNL     1      -0.017   1.392   0.098  0.00  0.00    +0.036 A 
ATOM     12  C   UNL     1       1.153   2.125   0.080  0.00  0.00    +0.048 A 
ATOM     13  C   UNL     1       2.379   1.475   0.062  0.00  0.00    +0.126 A 
ATOM     14  C   UNL     1       2.402   0.010   0.063  0.00  0.00    +0.038 A 
ATOM     15  C   UNL     1       1.174  -0.689   0.082  0.00  0.00    +0.045 A 
ATOM     16  C   UNL     1       0.002   0.001   0.099  0.00  0.00    +0.127 A 
BRANCH  16  17
ATOM     17  N   UNL     1      -1.278  -0.742   0.119  0.00  0.00    +0.056 N 
ATOM     18  O   UNL     1      -2.421  -0.087   0.135  0.00  0.00    -0.126 OA
ATOM     19  O   UNL     1      -1.275  -2.059   0.120  0.00  0.00    -0.126 OA
ENDBRANCH  16  17
BRANCH  13  20
ATOM     20  O   UNL     1       3.533   2.182   0.043  0.00  0.00    -0.506 OA
ATOM     21  H   UNL     1       3.881   2.388   0.921  0.00  0.00    +0.292 HD
ENDBRANCH  13  20
ENDBRANCH   9  14
ENDBRANCH   1  10
BRANCH   4  22
ATOM     22  S   UNL     1       9.227   3.213  -0.039  0.00  0.00    -0.075 S 
BRANCH  22  23
ATOM     23  C   UNL     1      11.011   2.886  -0.073  0.00  0.00    +0.173 C 
BRANCH  23  24
ATOM     24  C   UNL     1      11.761   4.193  -0.082  0.00  0.00    +0.228 C 
ATOM     25  O   UNL     1      11.152   5.242  -0.068  0.00  0.00    -0.275 OA
ATOM     26  N   UNL     1      13.109   4.197  -0.107  0.00  0.00    -0.282 N 
ATOM     27  H   UNL     1      13.597   3.361  -0.053  0.00  0.00    +0.155 HD
BRANCH  26  28
ATOM     28  C   UNL     1      13.804   5.408  -0.210  0.00  0.00    +0.072 A 
ATOM     29  C   UNL     1      13.304   6.551   0.399  0.00  0.00    +0.064 A 
ATOM     30  C   UNL     1      13.993   7.746   0.296  0.00  0.00    +0.125 A 
ATOM     31  C   UNL     1      15.181   7.802  -0.414  0.00  0.00    +0.041 A 
ATOM     32  C   UNL     1      15.682   6.666  -1.022  0.00  0.00    +0.043 A 
ATOM     33  C   UNL     1      15.000   5.467  -0.917  0.00  0.00    +0.145 A 
ATOM     34  F   UNL     1      15.492   4.356  -1.506  0.00  0.00    -0.204 F 
ATOM     35  F   UNL     1      13.507   8.859   0.887  0.00  0.00    -0.205 F 
ENDBRANCH  26  28
ENDBRANCH  23  24
ENDBRANCH  22  23
ENDBRANCH   4  22
TORSDOF 8
