REMARK  Name = ZINC59443687
REMARK  10 active torsions:
REMARK  status: ('A' for Active; 'I' for Inactive)
REMARK    1  A    between atoms: C_1  and  C_2
REMARK    2  A    between atoms: N_4  and  C_5
REMARK    3  A    between atoms: C_8  and  S_11
REMARK    4  A    between atoms: S_11  and  N_14
REMARK    5  A    between atoms: N_14  and  C_15
REMARK    6  A    between atoms: N_14  and  C_22
REMARK    7  A    between atoms: C_15  and  C_16
REMARK    8  A    between atoms: C_22  and  C_23
REMARK    9  A    between atoms: N_25  and  N_26
REMARK   10  A    between atoms: C_27  and  C_28
REMARK                            x       y       z     vdW  Elec       q    Type
REMARK                         _______ _______ _______ _____ _____    ______ ____
ROOT
ATOM      1  N   UNL     1      -0.867  -6.995   1.945  0.00  0.00    -0.163 NA
ENDROOT
BRANCH   1   2
ATOM      2  S   UNL     1      -0.818  -6.598   0.338  0.00  0.00    +0.062 S 
ATOM      3  O   UNL     1      -2.015  -7.100  -0.240  0.00  0.00    -0.153 OA
ATOM      4  O   UNL     1       0.470  -6.969  -0.133  0.00  0.00    -0.153 OA
BRANCH   2   8
ATOM      5  C   UNL     1      -1.045  -2.083   0.066  0.00  0.00    +0.033 A 
ATOM      6  C   UNL     1       0.189  -2.713   0.160  0.00  0.00    +0.025 A 
ATOM      7  C   UNL     1       0.255  -4.090   0.243  0.00  0.00    +0.030 A 
ATOM      8  C   UNL     1      -0.906  -4.841   0.233  0.00  0.00    +0.106 A 
ATOM      9  C   UNL     1      -2.136  -4.217   0.139  0.00  0.00    +0.030 A 
ATOM     10  C   UNL     1      -2.209  -2.840   0.062  0.00  0.00    +0.025 A 
BRANCH   5  14
ATOM     11  C   UNL     1      -2.150   1.480   0.573  0.00  0.00    +0.109 C 
ATOM     12  C   UNL     1      -2.129  -0.027   0.574  0.00  0.00    +0.214 C 
ATOM     13  O   UNL     1      -3.026  -0.645   1.108  0.00  0.00    -0.276 OA
ATOM     14  N   UNL     1      -1.115  -0.688  -0.018  0.00  0.00    -0.286 N 
ATOM     15  H   UNL     1      -0.433  -0.196  -0.502  0.00  0.00    +0.155 HD
ENDBRANCH   5  14
ENDBRANCH   2   8
ENDBRANCH   1   2
BRANCH   1  16
ATOM     16  C   UNL     1      -2.154  -7.237   2.602  0.00  0.00    +0.145 C 
BRANCH  16  17
ATOM     17  C   UNL     1      -2.450  -8.715   2.597  0.00  0.00    -0.032 A 
ATOM     18  C   UNL     1      -3.139  -9.278   1.540  0.00  0.00    +0.005 A 
ATOM     19  C   UNL     1      -3.410 -10.634   1.536  0.00  0.00    +0.000 A 
ATOM     20  C   UNL     1      -2.992 -11.426   2.589  0.00  0.00    +0.000 A 
ATOM     21  C   UNL     1      -2.302 -10.862   3.646  0.00  0.00    +0.000 A 
ATOM     22  C   UNL     1      -2.027  -9.507   3.648  0.00  0.00    +0.005 A 
ENDBRANCH  16  17
ENDBRANCH   1  16
BRANCH   1  23
ATOM     23  C   UNL     1       0.378  -7.103   2.711  0.00  0.00    +0.207 C 
BRANCH  23  24
ATOM     24  C   UNL     1       0.652  -5.797   3.411  0.00  0.00    +0.248 C 
ATOM     25  O   UNL     1      -0.116  -4.867   3.283  0.00  0.00    -0.273 OA
ATOM     26  N   UNL     1       1.752  -5.663   4.179  0.00  0.00    -0.206 N 
ATOM     27  H   UNL     1       2.366  -6.406   4.282  0.00  0.00    +0.177 HD
BRANCH  26  28
ATOM     28  N   UNL     1       2.007  -4.449   4.830  0.00  0.00    -0.188 NA
ATOM     29  C   UNL     1       3.066  -4.319   5.571  0.00  0.00    +0.139 C 
BRANCH  29  30
ATOM     30  C   UNL     1       3.334  -3.044   6.254  0.00  0.00    +0.002 A 
ATOM     31  C   UNL     1       4.517  -2.852   6.959  0.00  0.00    +0.010 A 
ATOM     32  C   UNL     1       4.767  -1.648   7.603  0.00  0.00    +0.001 A 
ATOM     33  C   UNL     1       3.877  -0.618   7.572  0.00  0.00    +0.008 A 
ATOM     34  C   UNL     1       2.662  -0.742   6.878  0.00  0.00    -0.017 A 
ATOM     35  C   UNL     1       2.366  -1.951   6.201  0.00  0.00    -0.009 A 
ATOM     36  C   UNL     1       1.158  -2.076   5.504  0.00  0.00    +0.009 A 
ATOM     37  C   UNL     1       0.283  -1.032   5.480  0.00  0.00    +0.001 A 
ATOM     38  C   UNL     1       0.573   0.161   6.139  0.00  0.00    +0.001 A 
ATOM     39  C   UNL     1       1.733   0.312   6.837  0.00  0.00    +0.008 A 
ENDBRANCH  29  30
ENDBRANCH  26  28
ENDBRANCH  23  24
ENDBRANCH   1  23
TORSDOF 9
