REMARK  Name = ZINC64024156
REMARK  6 active torsions:
REMARK  status: ('A' for Active; 'I' for Inactive)
REMARK    1  A    between atoms: C_10  and  C_11
REMARK    2  A    between atoms: C_11  and  C_12
REMARK    3  A    between atoms: C_12  and  C_18
REMARK    4  A    between atoms: C_18  and  C_19
REMARK    5  A    between atoms: C_19  and  C_20
REMARK    6  A    between atoms: C_26  and  C_28
REMARK                            x       y       z     vdW  Elec       q    Type
REMARK                         _______ _______ _______ _____ _____    ______ ____
ROOT
ATOM      1  C   UNL     1       6.889   1.909   2.798  0.00  0.00    +0.098 C 
ENDROOT
BRANCH   1   2
ATOM      2  C   UNL     1       8.095   2.813   2.786  0.00  0.00    +0.216 C 
ATOM      3  O   UNL     1       8.599   3.137   1.732  0.00  0.00    -0.276 OA
ATOM      4  N   UNL     1       8.614   3.260   3.947  0.00  0.00    -0.295 N 
ATOM      5  C   UNL     1       8.107   2.941   5.294  0.00  0.00    +0.108 C 
ATOM      6  C   UNL     1       8.586   4.113   6.186  0.00  0.00    +0.021 C 
ATOM      7  C   UNL     1       9.986   4.410   5.586  0.00  0.00    +0.028 C 
ATOM      8  C   UNL     1       9.781   4.144   4.079  0.00  0.00    +0.119 C 
BRANCH   8   9
ATOM      9  C   UNL     1      11.020   3.460   3.497  0.00  0.00    +0.195 C 
ATOM     10  N   UNL     1      11.317   2.232   4.246  0.00  0.00    -0.362 N 
ATOM     11  C   UNL     1      12.504   2.367   4.762  0.00  0.00    +0.060 A 
ATOM     12  C   UNL     1      13.333   1.489   5.601  0.00  0.00    +0.030 A 
ATOM     13  C   UNL     1      14.552   1.905   5.996  0.00  0.00    +0.040 A 
ATOM     14  C   UNL     1      15.079   3.162   5.636  0.00  0.00    +0.125 A 
ATOM     15  C   UNL     1      14.399   4.042   4.870  0.00  0.00    +0.065 A 
ATOM     16  C   UNL     1      13.059   3.695   4.383  0.00  0.00    +0.063 A 
ATOM     17  N   UNL     1      12.193   4.330   3.644  0.00  0.00    -0.362 N 
ATOM     18  F   UNL     1      16.311   3.499   6.076  0.00  0.00    -0.205 F 
ATOM     19  H   UNL     1      10.735   1.462   4.339  0.00  0.00    +0.162 HD
ATOM     20  H   UNL     1      12.302   5.215   3.262  0.00  0.00    +0.162 HD
ENDBRANCH   8   9
ENDBRANCH   1   2
BRANCH   1  21
ATOM     21  C   UNL     1       6.507   1.549   1.361  0.00  0.00    +0.035 C 
BRANCH  21  22
ATOM     22  C   UNL     1       5.283   0.631   1.374  0.00  0.00    +0.039 C 
ATOM     23  C   UNL     1       4.068   1.366   1.983  0.00  0.00    +0.035 C 
ATOM     24  C   UNL     1       4.153   0.940   3.467  0.00  0.00    +0.098 C 
ATOM     25  C   UNL     1       4.904  -0.373   3.433  0.00  0.00    +0.214 C 
ATOM     26  O   UNL     1       4.942  -1.175   4.343  0.00  0.00    -0.276 OA
ATOM     27  N   UNL     1       5.522  -0.522   2.249  0.00  0.00    -0.309 N 
ATOM     28  H   UNL     1       6.057  -1.294   2.004  0.00  0.00    +0.149 HD
BRANCH  22  29
ATOM     29  C   UNL     1       4.960   0.161  -0.046  0.00  0.00    +0.061 C 
BRANCH  29  39
ATOM     30  C   UNL     1       4.492  -4.898   0.583  0.00  0.00    +0.001 A 
ATOM     31  C   UNL     1       5.566  -4.009   0.545  0.00  0.00    +0.001 A 
ATOM     32  C   UNL     1       5.366  -2.677   0.356  0.00  0.00    +0.009 A 
ATOM     33  C   UNL     1       4.059  -2.185   0.195  0.00  0.00    -0.015 A 
ATOM     34  C   UNL     1       2.968  -3.089   0.233  0.00  0.00    -0.018 A 
ATOM     35  C   UNL     1       3.213  -4.458   0.431  0.00  0.00    +0.008 A 
ATOM     36  C   UNL     1       1.661  -2.598   0.072  0.00  0.00    +0.008 A 
ATOM     37  C   UNL     1       1.461  -1.265  -0.118  0.00  0.00    +0.001 A 
ATOM     38  C   UNL     1       2.534  -0.377  -0.156  0.00  0.00    +0.004 A 
ATOM     39  C   UNL     1       3.814  -0.816  -0.003  0.00  0.00    -0.038 A 
ENDBRANCH  29  39
ENDBRANCH  22  29
ENDBRANCH  21  22
ENDBRANCH   1  21
TORSDOF 6
