REMARK  Name = ZINC39989286
REMARK  9 active torsions:
REMARK  status: ('A' for Active; 'I' for Inactive)
REMARK    1  A    between atoms: C_1  and  C_2
REMARK    2  A    between atoms: C_4  and  C_24
REMARK    3  A    between atoms: C_6  and  O_8
REMARK    4  A    between atoms: O_8  and  C_9
REMARK    5  A    between atoms: C_9  and  C_11
REMARK    6  A    between atoms: C_9  and  C_12
REMARK    7  A    between atoms: C_18  and  S_20
REMARK    8  A    between atoms: S_20  and  C_21
REMARK    9  A    between atoms: C_21  and  C_22
REMARK                            x       y       z     vdW  Elec       q    Type
REMARK                         _______ _______ _______ _____ _____    ______ ____
ROOT
ATOM      1  C   UNL     1       0.977  -2.768   4.570  0.00  0.00    +0.259 C 
ATOM      2  O   UNL     1       1.427  -3.859   4.290  0.00  0.00    -0.271 OA
ATOM      3  N   UNL     1       1.211  -2.235   5.786  0.00  0.00    -0.260 N 
ATOM      4  C   UNL     1       1.969  -2.937   6.720  0.00  0.00    +0.189 A 
ATOM      5  N   UNL     1       2.552  -4.121   6.625  0.00  0.00    -0.125 NA
ATOM      6  N   UNL     1       3.211  -4.620   7.578  0.00  0.00    -0.133 NA
ATOM      7  C   UNL     1       3.360  -3.988   8.733  0.00  0.00    +0.160 A 
ATOM      8  S   UNL     1       2.439  -2.491   8.389  0.00  0.00    -0.024 S 
ATOM      9  H   UNL     1       0.852  -1.362   6.010  0.00  0.00    +0.157 HD
ENDROOT
BRANCH   1  10
ATOM     10  C   UNL     1       0.157  -2.008   3.560  0.00  0.00    +0.256 C 
ATOM     11  C   UNL     1      -1.241  -1.752   4.126  0.00  0.00    +0.062 C 
BRANCH  10  12
ATOM     12  O   UNL     1       0.051  -2.775   2.359  0.00  0.00    -0.480 OA
BRANCH  12  18
ATOM     13  C   UNL     1      -0.902   1.454   0.118  0.00  0.00    +0.044 C 
ATOM     14  C   UNL     1      -0.649  -0.030   0.076  0.00  0.00    -0.047 A 
ATOM     15  C   UNL     1      -0.652  -0.698  -1.135  0.00  0.00    +0.007 A 
ATOM     16  C   UNL     1      -0.420  -2.060  -1.177  0.00  0.00    -0.047 A 
ATOM     17  C   UNL     1      -0.184  -2.758  -0.009  0.00  0.00    +0.049 A 
ATOM     18  C   UNL     1      -0.180  -2.091   1.208  0.00  0.00    +0.122 A 
ATOM     19  C   UNL     1      -0.408  -0.723   1.247  0.00  0.00    +0.049 A 
ATOM     20  C   UNL     1      -0.424  -2.784  -2.499  0.00  0.00    +0.044 C 
ENDBRANCH  12  18
ENDBRANCH  10  12
ENDBRANCH   1  10
BRANCH   7  21
ATOM     21  S   UNL     1       4.223  -4.478  10.189  0.00  0.00    -0.093 S 
BRANCH  21  22
ATOM     22  C   UNL     1       4.904  -6.106   9.768  0.00  0.00    +0.103 C 
BRANCH  22  23
ATOM     23  C   UNL     1       5.676  -6.647  10.944  0.00  0.00    -0.023 C 
ATOM     24  C   UNL     1       5.262  -7.726  11.560  0.00  0.00    +0.005 C 
ENDBRANCH  22  23
ENDBRANCH  21  22
ENDBRANCH   7  21
TORSDOF 6
