REMARK  Name = ZINC39684192
REMARK  9 active torsions:
REMARK  status: ('A' for Active; 'I' for Inactive)
REMARK    1  A    between atoms: C_1  and  C_2
REMARK    2  A    between atoms: C_7  and  C_11
REMARK    3  A    between atoms: C_11  and  C_12
REMARK    4  A    between atoms: C_12  and  N_13
REMARK    5  A    between atoms: C_14  and  C_16
REMARK    6  A    between atoms: C_27  and  C_29
REMARK    7  A    between atoms: C_30  and  C_41
REMARK    8  A    between atoms: C_33  and  C_35
REMARK    9  A    between atoms: C_37  and  C_40
REMARK                            x       y       z     vdW  Elec       q    Type
REMARK                         _______ _______ _______ _____ _____    ______ ____
ROOT
ATOM      1  C   UNL     1      -8.527   1.734  -5.950  0.00  0.00    +0.100 C 
ATOM      2  C   UNL     1      -8.170   2.752  -7.056  0.00  0.00    +0.121 C 
ATOM      3  N   UNL     1      -7.891   1.923  -8.252  0.00  0.00    -0.296 N 
ATOM      4  C   UNL     1      -8.909   0.846  -8.200  0.00  0.00    +0.115 C 
ATOM      5  C   UNL     1      -9.015   0.486  -6.704  0.00  0.00    -0.004 C 
ATOM      6  C   UNL     1      -8.119  -0.708  -6.386  0.00  0.00    -0.010 C 
ATOM      7  C   UNL     1      -8.658  -1.949  -7.102  0.00  0.00    -0.082 C 
ATOM      8  N   UNL     1     -10.033  -2.212  -6.662  0.00  0.00    +0.379 N 
ATOM      9  C   UNL     1     -10.906  -1.099  -7.054  0.00  0.00    -0.082 C 
ATOM     10  C   UNL     1     -10.463   0.178  -6.336  0.00  0.00    -0.010 C 
ATOM     11  C   UNL     1      -6.930   2.106  -9.179  0.00  0.00    +0.247 C 
ATOM     12  O   UNL     1      -6.085   2.968  -9.018  0.00  0.00    -0.270 OA
ATOM     13  H   UNL     1     -10.364  -3.064  -7.089  0.00  0.00    -0.086 HD
ATOM     14  H   UNL     1     -10.050  -2.313  -5.658  0.00  0.00    -0.086 HD
ENDROOT
BRANCH  11  15
ATOM     15  C   UNL     1      -6.903   1.297 -10.339  0.00  0.00    +0.072 C 
ATOM     16  C   UNL     1      -5.896   1.209 -11.229  0.00  0.00    +0.047 C 
ATOM     17  N   UNL     1      -6.202   0.336 -12.226  0.00  0.00    -0.269 N 
ATOM     18  O   UNL     1      -7.490  -0.216 -12.022  0.00  0.00    -0.260 OA
ATOM     19  C   UNL     1      -7.996   0.364 -10.810  0.00  0.00    +0.237 C 
ATOM     20  C   UNL     1      -4.603   1.976 -11.135  0.00  0.00    +0.066 C 
ATOM     21  H   UNL     1      -5.621   0.121 -12.972  0.00  0.00    +0.194 HD
BRANCH  19  22
ATOM     22  C   UNL     1      -9.260   1.136 -11.089  0.00  0.00    +0.120 A 
ATOM     23  C   UNL     1     -10.056   1.027 -12.243  0.00  0.00    +0.073 A 
ATOM     24  C   UNL     1     -11.094   1.876 -12.117  0.00  0.00    +0.135 A 
ATOM     25  O   UNL     1     -10.975   2.505 -10.938  0.00  0.00    -0.360 OA
ATOM     26  N   UNL     1      -9.808   2.016 -10.301  0.00  0.00    -0.080 NA
ATOM     27  C   UNL     1     -12.195   2.084 -13.125  0.00  0.00    +0.089 C 
ENDBRANCH  19  22
ENDBRANCH  11  15
BRANCH   1  29
ATOM     28  N   UNL     1      -7.451   0.889  -3.889  0.00  0.00    -0.315 N 
ATOM     29  C   UNL     1      -7.309   1.407  -5.126  0.00  0.00    +0.218 C 
ATOM     30  O   UNL     1      -6.200   1.609  -5.575  0.00  0.00    -0.275 OA
ATOM     31  H   UNL     1      -8.335   0.795  -3.502  0.00  0.00    +0.149 HD
BRANCH  28  32
ATOM     32  C   UNL     1      -6.270   0.468  -3.131  0.00  0.00    +0.109 C 
BRANCH  32  33
ATOM     33  C   UNL     1      -6.712  -0.192  -1.824  0.00  0.00    +0.056 C 
BRANCH  33  40
ATOM     34  C   UNL     1      -1.697  -0.489   1.929  0.00  0.00    +0.046 C 
ATOM     35  C   UNL     1      -2.816   0.297   1.296  0.00  0.00    -0.027 A 
ATOM     36  C   UNL     1      -2.958   1.640   1.570  0.00  0.00    +0.005 A 
ATOM     37  C   UNL     1      -3.985   2.376   0.994  0.00  0.00    +0.001 A 
ATOM     38  C   UNL     1      -4.873   1.779   0.144  0.00  0.00    +0.010 A 
ATOM     39  C   UNL     1      -4.748   0.420  -0.147  0.00  0.00    +0.003 A 
ATOM     40  C   UNL     1      -5.499  -0.514  -0.989  0.00  0.00    -0.021 A 
ATOM     41  C   UNL     1      -4.904  -1.712  -0.874  0.00  0.00    +0.087 A 
ATOM     42  N   UNL     1      -3.832  -1.621  -0.029  0.00  0.00    -0.360 N 
ATOM     43  C   UNL     1      -3.705  -0.329   0.430  0.00  0.00    +0.050 A 
ATOM     44  H   UNL     1      -3.246  -2.356   0.210  0.00  0.00    +0.165 HD
ENDBRANCH  33  40
ENDBRANCH  32  33
ENDBRANCH  28  32
ENDBRANCH   1  29
TORSDOF 6
