REMARK  Name = ZINC30873731
REMARK  9 active torsions:
REMARK  status: ('A' for Active; 'I' for Inactive)
REMARK    1  A    between atoms: C_1  and  C_2
REMARK    2  A    between atoms: C_2  and  C_3
REMARK    3  A    between atoms: C_2  and  N_4
REMARK    4  A    between atoms: C_5  and  C_7
REMARK    5  A    between atoms: C_12  and  N_13
REMARK    6  A    between atoms: C_14  and  C_16
REMARK    7  A    between atoms: N_19  and  S_22
REMARK    8  A    between atoms: S_22  and  C_25
REMARK    9  A    between atoms: C_25  and  C_26
REMARK                            x       y       z     vdW  Elec       q    Type
REMARK                         _______ _______ _______ _____ _____    ______ ____
ROOT
ATOM      1  N   UNL     1      -1.640  -1.854  -0.031  0.00  0.00    -0.285 N 
ATOM      2  C   UNL     1      -1.411  -0.526  -0.024  0.00  0.00    +0.220 C 
ATOM      3  O   UNL     1      -2.343   0.250  -0.047  0.00  0.00    -0.275 OA
ATOM      4  H   UNL     1      -0.797  -2.557  -0.102  0.00  0.00    +0.155 HD
ENDROOT
BRANCH   1  10
ATOM      5  C   UNL     1      -3.263  -3.599  -0.472  0.00  0.00    +0.058 A 
ATOM      6  C   UNL     1      -4.573  -4.073  -0.378  0.00  0.00    +0.015 A 
ATOM      7  C   UNL     1      -5.544  -3.298   0.217  0.00  0.00    +0.001 A 
ATOM      8  C   UNL     1      -5.227  -2.049   0.728  0.00  0.00    +0.002 A 
ATOM      9  C   UNL     1      -3.936  -1.569   0.647  0.00  0.00    +0.024 A 
ATOM     10  C   UNL     1      -2.944  -2.337   0.051  0.00  0.00    +0.046 A 
BRANCH   5  12
ATOM     11  N   UNL     1      -2.549  -5.588  -1.702  0.00  0.00    -0.309 N 
ATOM     12  C   UNL     1      -2.219  -4.422  -1.112  0.00  0.00    +0.246 C 
ATOM     13  O   UNL     1      -1.062  -4.048  -1.108  0.00  0.00    -0.270 OA
ATOM     14  H   UNL     1      -3.595  -5.926  -1.705  0.00  0.00    +0.149 HD
BRANCH  11  16
ATOM     15  C   UNL     1      -0.846  -7.294  -1.285  0.00  0.00    +0.027 C 
ATOM     16  C   UNL     1      -1.512  -6.405  -2.338  0.00  0.00    +0.067 C 
ATOM     17  C   UNL     1      -2.147  -7.283  -3.419  0.00  0.00    +0.027 C 
ENDBRANCH  11  16
ENDBRANCH   5  12
ENDBRANCH   1  10
BRANCH   2  18
ATOM     18  C   UNL     1       0.002  -0.005   0.012  0.00  0.00    +0.078 C 
ATOM     19  C   UNL     1      -0.018   1.526   0.013  0.00  0.00    +0.030 C 
ATOM     20  C   UNL     1       1.420   2.052   0.015  0.00  0.00    +0.110 C 
ATOM     21  N   UNL     1       2.139   1.457   1.151  0.00  0.00    -0.181 NA
ATOM     22  C   UNL     1       2.145  -0.005   1.296  0.00  0.00    +0.110 C 
ATOM     23  C   UNL     1       0.698  -0.508   1.279  0.00  0.00    +0.030 C 
BRANCH  21  24
ATOM     24  S   UNL     1       2.928   2.417   2.245  0.00  0.00    +0.036 S 
ATOM     25  O   UNL     1       2.246   3.662   2.194  0.00  0.00    -0.158 OA
ATOM     26  O   UNL     1       2.954   1.654   3.444  0.00  0.00    -0.158 OA
BRANCH  24  27
ATOM     27  C   UNL     1       4.607   2.597   1.583  0.00  0.00    +0.220 C 
BRANCH  27  28
ATOM     28  C   UNL     1       5.423   3.461   2.509  0.00  0.00    -0.025 A 
ATOM     29  C   UNL     1       5.458   4.831   2.324  0.00  0.00    +0.006 A 
ATOM     30  C   UNL     1       6.203   5.625   3.177  0.00  0.00    +0.015 A 
ATOM     31  C   UNL     1       6.921   5.047   4.208  0.00  0.00    +0.018 A 
ATOM     32  C   UNL     1       6.890   3.676   4.390  0.00  0.00    +0.015 A 
ATOM     33  C   UNL     1       6.141   2.884   3.540  0.00  0.00    +0.006 A 
ATOM     34 BR   UNL     1       7.945   6.132   5.371  0.00  0.00    -0.050 Br
ENDBRANCH  27  28
ENDBRANCH  24  27
ENDBRANCH  21  24
ENDBRANCH   2  18
TORSDOF 7
