REMARK  Name = ZINC14012829
REMARK  5 active torsions:
REMARK  status: ('A' for Active; 'I' for Inactive)
REMARK    1  A    between atoms: C_3  and  N_10
REMARK    2  A    between atoms: C_6  and  C_7
REMARK    3  A    between atoms: C_11  and  C_13
REMARK    4  A    between atoms: C_13  and  C_14
REMARK    5  A    between atoms: N_25  and  C_28
REMARK                            x       y       z     vdW  Elec       q    Type
REMARK                         _______ _______ _______ _____ _____    ______ ____
ROOT
ATOM      1  C   UNL     1      -1.171  -0.890   0.040  0.00  0.00    +0.112 C 
ATOM      2  C   UNL     1      -0.970  -2.412   0.023  0.00  0.00    +0.103 C 
ATOM      3  S   UNL     1       0.857  -2.526   0.059  0.00  0.00    -0.085 S 
ATOM      4  C   UNL     1       1.254  -0.790   0.089  0.00  0.00    +0.174 A 
ATOM      5  N   UNL     1       0.068  -0.114   0.074  0.00  0.00    -0.283 N 
ATOM      6  C   UNL     1       0.123   1.257   0.093  0.00  0.00    +0.266 A 
ATOM      7  O   UNL     1      -0.905   1.910   0.076  0.00  0.00    -0.267 OA
ATOM      8  C   UNL     1       1.374   1.909   0.127  0.00  0.00    +0.103 A 
ATOM      9  C   UNL     1       1.779   3.261   0.153  0.00  0.00    +0.150 A 
ATOM     10  N   UNL     1       3.082   3.303   0.179  0.00  0.00    -0.172 NA
ATOM     11  N   UNL     1       3.593   1.999   0.173  0.00  0.00    -0.214 N 
ATOM     12  C   UNL     1       2.544   1.131   0.140  0.00  0.00    +0.171 A 
ATOM     13  N   UNL     1       2.428  -0.200   0.121  0.00  0.00    -0.203 NA
ENDROOT
BRANCH  11  14
ATOM     14  C   UNL     1       4.949   1.648   0.196  0.00  0.00    +0.068 A 
ATOM     15  C   UNL     1       5.363   0.515   0.885  0.00  0.00    +0.030 A 
ATOM     16  C   UNL     1       6.699   0.169   0.902  0.00  0.00    +0.040 A 
ATOM     17  C   UNL     1       7.629   0.956   0.243  0.00  0.00    +0.124 A 
ATOM     18  C   UNL     1       7.219   2.089  -0.440  0.00  0.00    +0.040 A 
ATOM     19  C   UNL     1       5.883   2.436  -0.464  0.00  0.00    +0.030 A 
ATOM     20  F   UNL     1       8.936   0.617   0.266  0.00  0.00    -0.205 F 
ENDBRANCH  11  14
BRANCH   1  21
ATOM     21  C   UNL     1      -2.008  -0.524   1.267  0.00  0.00    +0.122 C 
BRANCH  21  23
ATOM     22  N   UNL     1      -4.293  -0.951   2.113  0.00  0.00    -0.285 N 
ATOM     23  C   UNL     1      -3.355  -1.192   1.175  0.00  0.00    +0.219 C 
ATOM     24  O   UNL     1      -3.595  -1.948   0.258  0.00  0.00    -0.275 OA
ATOM     25  H   UNL     1      -4.128  -0.292   2.806  0.00  0.00    +0.155 HD
BRANCH  22  28
ATOM     26  C   UNL     1      -7.311  -2.696   3.259  0.00  0.00    +0.015 A 
ATOM     27  C   UNL     1      -6.119  -2.008   3.281  0.00  0.00    +0.024 A 
ATOM     28  C   UNL     1      -5.500  -1.648   2.088  0.00  0.00    +0.033 A 
ATOM     29  C   UNL     1      -6.086  -1.978   0.869  0.00  0.00    +0.024 A 
ATOM     30  C   UNL     1      -7.275  -2.670   0.841  0.00  0.00    +0.015 A 
ATOM     31  C   UNL     1      -7.900  -3.033   2.037  0.00  0.00    +0.037 A 
BRANCH  31  32
ATOM     32  C   UNL     1      -9.178  -3.770   2.010  0.00  0.00    +0.242 C 
ATOM     33  O   UNL     1      -9.721  -4.084   3.052  0.00  0.00    -0.270 OA
ATOM     34  N   UNL     1      -9.745  -4.094   0.831  0.00  0.00    -0.325 N 
ATOM     35  H   UNL     1      -9.312  -3.843  -0.000  0.00  0.00    +0.145 HD
ATOM     36  H   UNL     1     -10.585  -4.578   0.813  0.00  0.00    +0.145 HD
ENDBRANCH  31  32
ENDBRANCH  22  28
ENDBRANCH  21  23
ENDBRANCH   1  21
TORSDOF 5
