REMARK  Name = ZINC17112550
REMARK  9 active torsions:
REMARK  status: ('A' for Active; 'I' for Inactive)
REMARK    1  A    between atoms: C_1  and  C_2
REMARK    2  A    between atoms: N_5  and  C_11
REMARK    3  A    between atoms: C_7  and  C_10
REMARK    4  A    between atoms: C_11  and  C_12
REMARK    5  A    between atoms: C_12  and  O_13
REMARK    6  A    between atoms: O_13  and  C_14
REMARK    7  A    between atoms: C_17  and  C_21
REMARK    8  A    between atoms: C_18  and  O_20
REMARK    9  A    between atoms: C_22  and  C_27
REMARK                            x       y       z     vdW  Elec       q    Type
REMARK                         _______ _______ _______ _____ _____    ______ ____
ROOT
ATOM      1  C   UNL     1      -2.035  -6.097   0.820  0.00  0.00    +0.124 A 
ATOM      2  C   UNL     1      -2.323  -6.718  -0.389  0.00  0.00    +0.046 A 
ATOM      3  C   UNL     1      -2.192  -8.085  -0.515  0.00  0.00    +0.017 A 
ATOM      4  C   UNL     1      -1.770  -8.848   0.575  0.00  0.00    +0.042 A 
ATOM      5  C   UNL     1      -1.480  -8.220   1.793  0.00  0.00    +0.129 A 
ATOM      6  C   UNL     1      -1.609  -6.847   1.907  0.00  0.00    +0.091 A 
ENDROOT
BRANCH   4   7
ATOM      7  C   UNL     1      -1.629 -10.312   0.444  0.00  0.00    +0.077 A 
ATOM      8  C   UNL     1      -0.450 -11.041   0.535  0.00  0.00    +0.027 A 
ATOM      9  C   UNL     1      -0.781 -12.395   0.350  0.00  0.00    +0.143 A 
ATOM     10  N   UNL     1      -2.070 -12.486   0.159  0.00  0.00    -0.181 NA
ATOM     11  N   UNL     1      -2.633 -11.206   0.216  0.00  0.00    -0.276 N 
ATOM     12  H   UNL     1      -3.573 -10.992   0.110  0.00  0.00    +0.189 HD
BRANCH   8  13
ATOM     13  C   UNL     1       0.905 -10.492   0.782  0.00  0.00    -0.014 A 
ATOM     14  C   UNL     1       1.420  -9.500  -0.051  0.00  0.00    +0.010 A 
ATOM     15  C   UNL     1       2.682  -8.993   0.182  0.00  0.00    +0.016 A 
ATOM     16  C   UNL     1       3.436  -9.467   1.242  0.00  0.00    +0.018 A 
ATOM     17  C   UNL     1       2.929 -10.452   2.072  0.00  0.00    +0.016 A 
ATOM     18  C   UNL     1       1.666 -10.963   1.851  0.00  0.00    +0.010 A 
ATOM     19 BR   UNL     1       5.164  -8.767   1.557  0.00  0.00    -0.050 Br
ENDBRANCH   8  13
ENDBRANCH   4   7
BRANCH   5  20
ATOM     20  O   UNL     1      -1.068  -8.956   2.858  0.00  0.00    -0.506 OA
ATOM     21  H   UNL     1      -0.108  -9.066   2.913  0.00  0.00    +0.292 HD
ENDBRANCH   5  20
BRANCH   1  22
ATOM     22  O   UNL     1      -2.166  -4.750   0.937  0.00  0.00    -0.491 OA
BRANCH  22  23
ATOM     23  C   UNL     1      -2.609  -4.038  -0.221  0.00  0.00    +0.244 C 
BRANCH  23  24
ATOM     24  C   UNL     1      -2.695  -2.545   0.101  0.00  0.00    +0.125 C 
BRANCH  24  28
ATOM     25  C   UNL     1       1.667  -1.131  -1.689  0.00  0.00    +0.039 C 
ATOM     26  C   UNL     1       0.852  -1.388  -0.420  0.00  0.00    +0.130 C 
ATOM     27  C   UNL     1      -0.553  -1.863  -0.801  0.00  0.00    +0.116 C 
ATOM     28  N   UNL     1      -1.355  -2.035   0.419  0.00  0.00    -0.294 NA
ATOM     29  C   UNL     1      -1.436  -0.773   1.170  0.00  0.00    +0.116 C 
ATOM     30  C   UNL     1      -0.022  -0.309   1.532  0.00  0.00    +0.130 C 
ATOM     31  O   UNL     1       0.752  -0.179   0.337  0.00  0.00    -0.371 OA
ATOM     32  C   UNL     1      -0.096   1.043   2.244  0.00  0.00    +0.039 C 
ENDBRANCH  24  28
ENDBRANCH  23  24
ENDBRANCH  22  23
ENDBRANCH   1  22
TORSDOF 7
