REMARK  Name = ZINC24754936
REMARK  16 active torsions:
REMARK  status: ('A' for Active; 'I' for Inactive)
REMARK    1  A    between atoms: C_1  and  C_2
REMARK    2  A    between atoms: C_2  and  C_3
REMARK    3  A    between atoms: C_3  and  C_4
REMARK    4  A    between atoms: C_4  and  C_5
REMARK    5  A    between atoms: C_8  and  C_11
REMARK    6  A    between atoms: C_11  and  O_13
REMARK    7  A    between atoms: O_13  and  C_14
REMARK    8  A    between atoms: C_14  and  C_15
REMARK    9  A    between atoms: N_17  and  C_18
REMARK   10  A    between atoms: N_17  and  C_22
REMARK   11  A    between atoms: C_18  and  C_19
REMARK   12  A    between atoms: C_19  and  O_20
REMARK   13  A    between atoms: O_20  and  C_21
REMARK   14  A    between atoms: C_23  and  N_38
REMARK   15  A    between atoms: N_24  and  C_31
REMARK   16  A    between atoms: C_31  and  C_32
REMARK                            x       y       z     vdW  Elec       q    Type
REMARK                         _______ _______ _______ _____ _____    ______ ____
ROOT
ATOM      1  C   UNL     1      -0.856  -8.223   4.779  0.00  0.00    +0.258 C 
ATOM      2  O   UNL     1      -1.226  -8.717   3.734  0.00  0.00    -0.272 OA
ATOM      3  N   UNL     1      -0.312  -9.002   5.738  0.00  0.00    -0.259 N 
ENDROOT
BRANCH   3   4
ATOM      4  C   UNL     1      -0.264 -10.402   5.566  0.00  0.00    +0.140 A 
ATOM      5  C   UNL     1      -1.427 -11.138   5.470  0.00  0.00    +0.128 A 
ATOM      6  N   UNL     1      -1.347 -12.501   5.302  0.00  0.00    -0.276 N 
ATOM      7  C   UNL     1      -0.149 -13.109   5.233  0.00  0.00    +0.331 A 
ATOM      8  O   UNL     1      -0.100 -14.315   5.085  0.00  0.00    -0.246 OA
ATOM      9  N   UNL     1       0.995 -12.408   5.325  0.00  0.00    -0.273 N 
ATOM     10  H   UNL     1       1.846 -12.870   5.272  0.00  0.00    +0.173 HD
ATOM     11  C   UNL     1       0.972 -11.070   5.484  0.00  0.00    +0.277 A 
ATOM     12  O   UNL     1       2.015 -10.444   5.562  0.00  0.00    -0.266 OA
BRANCH   5  13
ATOM     13  N   UNL     1      -2.651 -10.516   5.540  0.00  0.00    -0.343 N 
ATOM     14  H   UNL     1      -2.701  -9.559   5.689  0.00  0.00    +0.144 HD
ATOM     15  H   UNL     1      -3.464 -11.035   5.441  0.00  0.00    +0.144 HD
ENDBRANCH   5  13
BRANCH   6  16
ATOM     16  C   UNL     1      -2.574 -13.295   5.199  0.00  0.00    +0.163 C 
BRANCH  16  17
ATOM     17  C   UNL     1      -2.988 -13.393   3.753  0.00  0.00    -0.028 A 
ATOM     18  C   UNL     1      -3.828 -12.440   3.208  0.00  0.00    +0.005 A 
ATOM     19  C   UNL     1      -4.208 -12.530   1.882  0.00  0.00    +0.000 A 
ATOM     20  C   UNL     1      -3.748 -13.574   1.101  0.00  0.00    +0.000 A 
ATOM     21  C   UNL     1      -2.907 -14.527   1.645  0.00  0.00    +0.000 A 
ATOM     22  C   UNL     1      -2.524 -14.434   2.970  0.00  0.00    +0.005 A 
ENDBRANCH  16  17
ENDBRANCH   6  16
ENDBRANCH   3   4
BRANCH   1  23
ATOM     23  C   UNL     1      -1.002  -6.741   5.006  0.00  0.00    +0.328 C 
BRANCH  23  24
ATOM     24  O   UNL     1      -1.599  -6.139   3.855  0.00  0.00    -0.455 OA
BRANCH  24  25
ATOM     25  C   UNL     1      -1.801  -4.813   3.896  0.00  0.00    +0.311 C 
ATOM     26  O   UNL     1      -1.481  -4.183   4.876  0.00  0.00    -0.251 OA
BRANCH  25  30
ATOM     27  C   UNL     1      -2.303  -2.103   0.588  0.00  0.00    -0.011 C 
ATOM     28  C   UNL     1      -3.177  -1.899   1.828  0.00  0.00    +0.004 C 
ATOM     29  C   UNL     1      -2.542  -2.614   3.022  0.00  0.00    +0.015 C 
ATOM     30  C   UNL     1      -2.426  -4.109   2.720  0.00  0.00    +0.098 C 
ATOM     31  C   UNL     1      -1.552  -4.312   1.480  0.00  0.00    +0.015 C 
ATOM     32  C   UNL     1      -2.187  -3.598   0.286  0.00  0.00    +0.004 C 
BRANCH  27  33
ATOM     33  C   UNL     1      -0.910  -1.525   0.847  0.00  0.00    +0.003 C 
BRANCH  33  34
ATOM     34  C   UNL     1      -1.012  -0.009   1.026  0.00  0.00    +0.000 C 
BRANCH  34  36
ATOM     35  C   UNL     1       0.280   2.085   1.464  0.00  0.00    +0.004 C 
ATOM     36  C   UNL     1       0.381   0.569   1.284  0.00  0.00    -0.003 C 
ENDBRANCH  34  36
ENDBRANCH  33  34
ENDBRANCH  27  33
ENDBRANCH  25  30
ENDBRANCH  24  25
ENDBRANCH  23  24
ENDBRANCH   1  23
BRANCH   3  37
ATOM     37  C   UNL     1       0.227  -8.394   6.957  0.00  0.00    +0.142 C 
BRANCH  37  38
ATOM     38  C   UNL     1      -0.887  -8.262   7.997  0.00  0.00    +0.178 C 
BRANCH  38  39
ATOM     39  O   UNL     1      -1.331  -9.563   8.387  0.00  0.00    -0.381 OA
ATOM     40  C   UNL     1      -2.376  -9.553   9.362  0.00  0.00    +0.194 C 
ENDBRANCH  38  39
ENDBRANCH  37  38
ENDBRANCH   3  37
TORSDOF 14
