REMARK  Name = ZINC39711294
REMARK  11 active torsions:
REMARK  status: ('A' for Active; 'I' for Inactive)
REMARK    1  A    between atoms: C_1  and  C_2
REMARK    2  A    between atoms: C_7  and  N_8
REMARK    3  A    between atoms: N_11  and  C_14
REMARK    4  A    between atoms: C_14  and  C_16
REMARK    5  A    between atoms: C_14  and  C_30
REMARK    6  A    between atoms: C_21  and  O_28
REMARK    7  A    between atoms: O_28  and  C_29
REMARK    8  A    between atoms: N_35  and  C_36
REMARK    9  A    between atoms: C_36  and  C_37
REMARK   10  A    between atoms: C_36  and  C_38
REMARK   11  A    between atoms: C_36  and  C_39
REMARK                            x       y       z     vdW  Elec       q    Type
REMARK                         _______ _______ _______ _____ _____    ______ ____
ROOT
ATOM      1  C   UNL     1       0.009   3.391   4.793  0.00  0.00    -0.009 C 
ENDROOT
BRANCH   1   2
ATOM      2  C   UNL     1       1.201   3.773   5.674  0.00  0.00    +0.088 C 
ATOM      3  C   UNL     1       1.137   5.268   5.919  0.00  0.00    -0.006 C 
ATOM      4  C   UNL     1       1.076   5.687   7.214  0.00  0.00    -0.004 A 
ATOM      5  C   UNL     1       1.013   7.113   7.539  0.00  0.00    +0.055 A 
ATOM      6  C   UNL     1       0.953   7.486   8.848  0.00  0.00    +0.121 A 
ATOM      7  C   UNL     1       0.952   6.534   9.875  0.00  0.00    +0.047 A 
ATOM      8  C   UNL     1       1.009   5.199   9.635  0.00  0.00    +0.027 A 
ATOM      9  C   UNL     1       1.073   4.710   8.317  0.00  0.00    +0.041 A 
ATOM     10  N   UNL     1       1.128   3.397   8.097  0.00  0.00    -0.285 N 
ATOM     11  C   UNL     1       1.190   2.870   6.886  0.00  0.00    +0.223 C 
ATOM     12  O   UNL     1       1.238   1.662   6.748  0.00  0.00    -0.275 OA
ATOM     13  H   UNL     1       1.122   2.800   8.861  0.00  0.00    +0.155 HD
BRANCH   6  14
ATOM     14  O   UNL     1       0.894   8.807   9.162  0.00  0.00    -0.495 OA
ATOM     15  C   UNL     1       0.833   9.141  10.550  0.00  0.00    +0.277 C 
ENDBRANCH   6  14
ENDBRANCH   1   2
BRANCH   1  19
ATOM     16  N   UNL     1       0.521  -0.153   2.628  0.00  0.00    -0.333 N 
ATOM     17  C   UNL     1      -0.848   0.179   3.052  0.00  0.00    +0.086 C 
ATOM     18  C   UNL     1      -0.902   1.673   3.392  0.00  0.00    -0.059 C 
ATOM     19  N   UNL     1       0.133   1.985   4.386  0.00  0.00    +0.387 N 
ATOM     20  C   UNL     1       1.464   1.759   3.809  0.00  0.00    -0.059 C 
ATOM     21  C   UNL     1       1.635   0.266   3.493  0.00  0.00    +0.086 C 
ATOM     22  H   UNL     1       0.012   1.392   5.193  0.00  0.00    -0.081 HD
BRANCH  16  29
ATOM     23  C   UNL     1       0.898   1.348   0.241  0.00  0.00    +0.045 C 
ATOM     24  C   UNL     1       0.946  -0.158   0.252  0.00  0.00    -0.029 A 
ATOM     25  C   UNL     1       1.184  -0.851  -0.919  0.00  0.00    +0.006 A 
ATOM     26  C   UNL     1       1.228  -2.232  -0.910  0.00  0.00    +0.020 A 
ATOM     27  C   UNL     1       1.033  -2.927   0.272  0.00  0.00    +0.043 A 
ATOM     28  C   UNL     1       0.794  -2.239   1.446  0.00  0.00    +0.043 A 
ATOM     29  C   UNL     1       0.756  -0.851   1.441  0.00  0.00    +0.034 A 
ATOM     30 CL   UNL     1       1.089  -4.662   0.278  0.00  0.00    -0.083 Cl
ENDBRANCH  16  29
ENDBRANCH   1  19
BRANCH   1  31
ATOM     31  C   UNL     1      -1.289   3.582   5.580  0.00  0.00    +0.205 C 
ATOM     32  N   UNL     1      -1.428   2.535   6.602  0.00  0.00    -0.152 NA
ATOM     33  N   UNL     1      -2.449   1.884   6.369  0.00  0.00    -0.070 NA
ATOM     34  N   UNL     1      -3.133   2.333   5.240  0.00  0.00    -0.179 N 
ATOM     35  N   UNL     1      -2.459   3.399   4.697  0.00  0.00    -0.183 NA
ATOM     36  H   UNL     1      -3.955   1.953   4.894  0.00  0.00    +0.191 HD
BRANCH  35  37
ATOM     37  C   UNL     1      -3.300   4.604   4.681  0.00  0.00    +0.035 C 
ATOM     38  C   UNL     1      -2.486   5.788   4.157  0.00  0.00    +0.029 C 
ATOM     39  C   UNL     1      -4.507   4.371   3.770  0.00  0.00    +0.029 C 
ATOM     40  C   UNL     1      -3.784   4.906   6.101  0.00  0.00    +0.029 C 
ENDBRANCH  35  37
ENDBRANCH   1  31
TORSDOF 6
