REMARK  Name = ZINC33568303
REMARK  7 active torsions:
REMARK  status: ('A' for Active; 'I' for Inactive)
REMARK    1  A    between atoms: C_3  and  S_29
REMARK    2  A    between atoms: C_6  and  C_7
REMARK    3  A    between atoms: C_10  and  C_12
REMARK    4  A    between atoms: C_13  and  C_14
REMARK    5  A    between atoms: C_14  and  C_16
REMARK    6  A    between atoms: C_19  and  C_21
REMARK    7  A    between atoms: S_29  and  N_32
REMARK                            x       y       z     vdW  Elec       q    Type
REMARK                         _______ _______ _______ _____ _____    ______ ____
ROOT
ATOM      1  C   UNL     1      -3.117   3.064   4.885  0.00  0.00    +0.136 A 
ATOM      2  C   UNL     1      -3.006   4.271   5.538  0.00  0.00    +0.050 A 
ATOM      3  C   UNL     1      -3.900   4.239   6.611  0.00  0.00    +0.050 A 
ATOM      4  C   UNL     1      -4.526   3.006   6.573  0.00  0.00    +0.129 A 
ATOM      5  O   UNL     1      -4.039   2.318   5.519  0.00  0.00    -0.455 OA
ENDROOT
BRANCH   1  11
ATOM      6  C   UNL     1      -2.561   1.401   3.117  0.00  0.00    +0.013 A 
ATOM      7  C   UNL     1      -1.846   1.029   1.998  0.00  0.00    +0.029 A 
ATOM      8  C   UNL     1      -0.927   1.900   1.439  0.00  0.00    +0.105 A 
ATOM      9  C   UNL     1      -0.714   3.147   2.002  0.00  0.00    +0.029 A 
ATOM     10  C   UNL     1      -1.426   3.534   3.118  0.00  0.00    +0.013 A 
ATOM     11  C   UNL     1      -2.356   2.660   3.687  0.00  0.00    +0.017 A 
BRANCH   8  12
ATOM     12  S   UNL     1      -0.017   1.417   0.010  0.00  0.00    +0.056 S 
ATOM     13  O   UNL     1       0.002  -0.004   0.002  0.00  0.00    -0.153 OA
ATOM     14  O   UNL     1       1.172   2.195   0.003  0.00  0.00    -0.153 OA
BRANCH  12  15
ATOM     15  N   UNL     1      -0.897   1.885  -1.312  0.00  0.00    -0.204 NA
ATOM     16  H   UNL     1      -0.361   1.601  -2.229  0.00  0.00    +0.144 HD
ATOM     17  H   UNL     1      -1.036   2.977  -1.292  0.00  0.00    +0.144 HD
ENDBRANCH  12  15
ENDBRANCH   8  12
ENDBRANCH   1  11
BRANCH   4  18
ATOM     18  C   UNL     1      -5.509   2.547   7.478  0.00  0.00    +0.050 C 
ATOM     19  C   UNL     1      -6.046   1.308   7.327  0.00  0.00    +0.058 C 
BRANCH  19  20
ATOM     20  C   UNL     1      -7.031   0.849   8.234  0.00  0.00    +0.221 C 
ATOM     21  O   UNL     1      -7.398   1.567   9.151  0.00  0.00    -0.284 OA
BRANCH  20  22
ATOM     22  C   UNL     1      -7.611  -0.488   8.072  0.00  0.00    +0.175 A 
ATOM     23  C   UNL     1      -8.574  -1.056   8.879  0.00  0.00    +0.054 A 
ATOM     24  C   UNL     1      -8.832  -2.330   8.363  0.00  0.00    +0.050 A 
ATOM     25  C   UNL     1      -8.027  -2.492   7.271  0.00  0.00    +0.137 A 
ATOM     26  O   UNL     1      -7.300  -1.374   7.103  0.00  0.00    -0.452 OA
BRANCH  25  27
ATOM     27  C   UNL     1      -7.970  -3.693   6.415  0.00  0.00    +0.037 A 
ATOM     28  C   UNL     1      -8.063  -3.571   5.027  0.00  0.00    +0.033 A 
ATOM     29  C   UNL     1      -8.008  -4.698   4.233  0.00  0.00    +0.042 A 
ATOM     30  C   UNL     1      -7.860  -5.949   4.810  0.00  0.00    +0.021 A 
ATOM     31  C   UNL     1      -7.766  -6.078   6.183  0.00  0.00    +0.022 A 
ATOM     32  C   UNL     1      -7.815  -4.958   6.990  0.00  0.00    +0.052 A 
ATOM     33 CL   UNL     1      -7.690  -5.121   8.714  0.00  0.00    -0.083 Cl
ATOM     34 CL   UNL     1      -8.125  -4.549   2.507  0.00  0.00    -0.084 Cl
ENDBRANCH  25  27
ENDBRANCH  20  22
ENDBRANCH  19  20
ENDBRANCH   4  18
TORSDOF 7
