REMARK  Name = ZINC35266913
REMARK  6 active torsions:
REMARK  status: ('A' for Active; 'I' for Inactive)
REMARK    1  A    between atoms: C_4  and  C_7
REMARK    2  A    between atoms: C_7  and  C_8
REMARK    3  A    between atoms: C_8  and  C_10
REMARK    4  A    between atoms: C_8  and  N_25
REMARK    5  A    between atoms: C_16  and  C_18
REMARK    6  A    between atoms: C_26  and  C_28
REMARK                            x       y       z     vdW  Elec       q    Type
REMARK                         _______ _______ _______ _____ _____    ______ ____
ROOT
ATOM      1  C   UNL     1       4.171  -0.963   1.399  0.00  0.00    +0.163 C 
ENDROOT
BRANCH   1   2
ATOM      2  C   UNL     1       5.543  -1.588   1.383  0.00  0.00    +0.239 C 
ATOM      3  O   UNL     1       5.665  -2.786   1.529  0.00  0.00    -0.273 OA
ATOM      4  N   UNL     1       6.633  -0.816   1.207  0.00  0.00    -0.262 N 
ATOM      5  C   UNL     1       7.897  -1.393   1.193  0.00  0.00    +0.188 A 
ATOM      6  N   UNL     1       8.257  -2.663   1.325  0.00  0.00    -0.125 NA
ATOM      7  N   UNL     1       9.465  -3.022   1.287  0.00  0.00    -0.140 NA
ATOM      8  C   UNL     1      10.450  -2.149   1.112  0.00  0.00    +0.134 A 
ATOM      9  S   UNL     1       9.505  -0.634   0.982  0.00  0.00    -0.030 S 
ATOM     10  H   UNL     1       6.535   0.142   1.091  0.00  0.00    +0.157 HD
BRANCH   8  11
ATOM     11  C   UNL     1      11.911  -2.367   1.039  0.00  0.00    +0.009 A 
ATOM     12  C   UNL     1      12.772  -1.285   0.853  0.00  0.00    +0.012 A 
ATOM     13  C   UNL     1      14.134  -1.494   0.786  0.00  0.00    +0.016 A 
ATOM     14  C   UNL     1      14.646  -2.775   0.904  0.00  0.00    +0.018 A 
ATOM     15  C   UNL     1      13.797  -3.853   1.088  0.00  0.00    +0.016 A 
ATOM     16  C   UNL     1      12.434  -3.655   1.163  0.00  0.00    +0.012 A 
ATOM     17 BR   UNL     1      16.515  -3.054   0.811  0.00  0.00    -0.050 Br
ENDBRANCH   8  11
ENDBRANCH   1   2
BRANCH   1  18
ATOM     18  N   UNL     1       3.229  -1.870   2.059  0.00  0.00    -0.303 N 
ATOM     19  C   UNL     1       3.018  -3.104   1.560  0.00  0.00    +0.217 C 
ATOM     20  O   UNL     1       3.609  -3.464   0.564  0.00  0.00    -0.275 OA
ATOM     21  H   UNL     1       2.756  -1.582   2.856  0.00  0.00    +0.149 HD
BRANCH  19  22
ATOM     22  C   UNL     1       2.049  -4.036   2.239  0.00  0.00    +0.075 C 
ATOM     23  C   UNL     1       2.538  -4.360   3.666  0.00  0.00    +0.013 C 
ATOM     24  C   UNL     1       2.161  -5.848   3.869  0.00  0.00    +0.001 C 
ATOM     25  C   UNL     1       2.440  -6.465   2.475  0.00  0.00    +0.001 C 
ATOM     26  C   UNL     1       1.986  -5.375   1.482  0.00  0.00    +0.013 C 
ENDBRANCH  19  22
ENDBRANCH   1  18
BRANCH   1  27
ATOM     27  C   UNL     1       3.711  -0.707  -0.038  0.00  0.00    +0.067 C 
BRANCH  27  31
ATOM     28  C   UNL     1      -0.017   1.378   0.010  0.00  0.00    +0.000 A 
ATOM     29  C   UNL     1       1.171   2.086   0.002  0.00  0.00    +0.000 A 
ATOM     30  C   UNL     1       2.377   1.411  -0.013  0.00  0.00    +0.004 A 
ATOM     31  C   UNL     1       2.396   0.029  -0.020  0.00  0.00    -0.045 A 
ATOM     32  C   UNL     1       1.208  -0.679  -0.012  0.00  0.00    +0.004 A 
ATOM     33  C   UNL     1       0.002  -0.004   0.002  0.00  0.00    +0.000 A 
ENDBRANCH  27  31
ENDBRANCH   1  27
TORSDOF 6
