REMARK  Name = ZINC38748423
REMARK  9 active torsions:
REMARK  status: ('A' for Active; 'I' for Inactive)
REMARK    1  A    between atoms: C_1  and  O_2
REMARK    2  A    between atoms: O_2  and  C_3
REMARK    3  A    between atoms: C_5  and  C_13
REMARK    4  A    between atoms: C_7  and  O_11
REMARK    5  A    between atoms: C_8  and  O_9
REMARK    6  A    between atoms: O_9  and  C_10
REMARK    7  A    between atoms: O_11  and  C_12
REMARK    8  A    between atoms: C_28  and  N_32
REMARK    9  A    between atoms: C_29  and  C_30
REMARK                            x       y       z     vdW  Elec       q    Type
REMARK                         _______ _______ _______ _____ _____    ______ ____
ROOT
ATOM      1  C   UNL     1      -4.871   0.264   0.038  0.00  0.00    +0.084 C 
ATOM      2  C   UNL     1      -5.678  -0.074   1.297  0.00  0.00    +0.154 C 
ATOM      3  C   UNL     1      -6.304  -1.431   1.022  0.00  0.00    +0.129 C 
ATOM      4  C   UNL     1      -6.000  -2.475   1.882  0.00  0.00    +0.035 A 
ATOM      5  C   UNL     1      -6.557  -3.758   1.703  0.00  0.00    +0.013 A 
ATOM      6  C   UNL     1      -6.240  -4.756   2.572  0.00  0.00    +0.001 A 
ATOM      7  C   UNL     1      -5.373  -4.539   3.638  0.00  0.00    +0.002 A 
ATOM      8  C   UNL     1      -4.800  -3.323   3.861  0.00  0.00    +0.024 A 
ATOM      9  C   UNL     1      -5.081  -2.246   3.004  0.00  0.00    +0.044 A 
ATOM     10  N   UNL     1      -4.512  -1.054   3.219  0.00  0.00    -0.284 N 
ATOM     11  C   UNL     1      -4.735   0.030   2.475  0.00  0.00    +0.229 C 
ATOM     12  O   UNL     1      -4.187   1.088   2.725  0.00  0.00    -0.275 OA
ATOM     13  O   UNL     1      -7.104  -1.561  -0.038  0.00  0.00    -0.444 OA
ATOM     14  C   UNL     1      -6.714  -0.932  -1.172  0.00  0.00    +0.198 C 
ATOM     15  C   UNL     1      -5.681  -0.064  -1.186  0.00  0.00    +0.095 C 
ATOM     16  H   UNL     1      -3.902  -0.968   3.968  0.00  0.00    +0.155 HD
ENDROOT
BRANCH   1  19
ATOM     17  C   UNL     1      -1.201  -0.638   0.010  0.00  0.00    +0.165 A 
ATOM     18  C   UNL     1      -2.375   0.101   0.019  0.00  0.00    +0.054 A 
ATOM     19  C   UNL     1      -3.598  -0.543   0.028  0.00  0.00    -0.031 A 
ATOM     20  C   UNL     1      -3.657  -1.924   0.027  0.00  0.00    +0.054 A 
ATOM     21  C   UNL     1      -2.488  -2.670   0.017  0.00  0.00    +0.165 A 
ATOM     22  C   UNL     1      -1.256  -2.027   0.003  0.00  0.00    +0.204 A 
BRANCH  17  24
ATOM     23  C   UNL     1      -0.017   1.425   0.010  0.00  0.00    +0.277 C 
ATOM     24  O   UNL     1       0.002  -0.004   0.002  0.00  0.00    -0.491 OA
ENDBRANCH  17  24
BRANCH  22  25
ATOM     25  O   UNL     1      -0.106  -2.755  -0.012  0.00  0.00    -0.488 OA
ATOM     26  C   UNL     1       0.454  -3.109   1.254  0.00  0.00    +0.277 C 
ENDBRANCH  22  25
BRANCH  21  27
ATOM     27  O   UNL     1      -2.547  -4.028   0.017  0.00  0.00    -0.491 OA
ATOM     28  C   UNL     1      -3.847  -4.621   0.026  0.00  0.00    +0.277 C 
ENDBRANCH  21  27
ENDBRANCH   1  19
BRANCH  14  29
ATOM     29  N   UNL     1      -7.388  -1.187  -2.341  0.00  0.00    -0.328 N 
ATOM     30  H   UNL     1      -8.132  -1.809  -2.346  0.00  0.00    +0.145 HD
ATOM     31  H   UNL     1      -7.120  -0.744  -3.162  0.00  0.00    +0.145 HD
ENDBRANCH  14  29
BRANCH  15  32
ATOM     32  C   UNL     1      -5.342   0.574  -2.422  0.00  0.00    +0.100 C 
ATOM     33  N   UNL     1      -5.072   1.080  -3.403  0.00  0.00    -0.191 NA
ENDBRANCH  15  32
TORSDOF 6
