REMARK  Name = ZINC10480683
REMARK  8 active torsions:
REMARK  status: ('A' for Active; 'I' for Inactive)
REMARK    1  A    between atoms: C_2  and  C_3
REMARK    2  A    between atoms: C_3  and  N_4
REMARK    3  A    between atoms: C_5  and  C_22
REMARK    4  A    between atoms: C_8  and  S_9
REMARK    5  A    between atoms: S_9  and  C_10
REMARK    6  A    between atoms: C_10  and  C_11
REMARK    7  A    between atoms: N_13  and  C_14
REMARK    8  A    between atoms: C_26  and  N_28
REMARK                            x       y       z     vdW  Elec       q    Type
REMARK                         _______ _______ _______ _____ _____    ______ ____
ROOT
ATOM      1  N   UNL     1       1.800  -1.899   0.935  0.00  0.00    -0.298 N 
ATOM      2  C   UNL     1       1.984  -1.668   2.279  0.00  0.00    +0.165 A 
ATOM      3  N   UNL     1       1.631  -2.763   2.910  0.00  0.00    -0.128 NA
ATOM      4  N   UNL     1       1.244  -3.651   2.065  0.00  0.00    -0.122 NA
ATOM      5  C   UNL     1       1.322  -3.175   0.843  0.00  0.00    +0.193 A 
ENDROOT
BRANCH   2   6
ATOM      6  C   UNL     1       2.486  -0.421   2.895  0.00  0.00    +0.021 A 
ATOM      7  C   UNL     1       2.406   0.786   2.199  0.00  0.00    +0.012 A 
ATOM      8  C   UNL     1       2.877   1.946   2.780  0.00  0.00    +0.003 A 
ATOM      9  C   UNL     1       3.426   1.913   4.050  0.00  0.00    +0.033 A 
ATOM     10  C   UNL     1       3.509   0.720   4.744  0.00  0.00    +0.127 A 
ATOM     11  C   UNL     1       3.037  -0.446   4.177  0.00  0.00    +0.044 A 
BRANCH  10  12
ATOM     12  N   UNL     1       4.098   0.695   6.102  0.00  0.00    +0.056 N 
ATOM     13  O   UNL     1       4.508   1.716   6.602  0.00  0.00    -0.126 OA
ATOM     14  O   UNL     1       4.171  -0.347   6.710  0.00  0.00    -0.126 OA
ENDBRANCH  10  12
ENDBRANCH   2   6
BRANCH   1  15
ATOM     15  C   UNL     1       2.058  -0.969  -0.167  0.00  0.00    +0.152 C 
BRANCH  15  17
ATOM     16  C   UNL     1       0.731   1.029  -0.625  0.00  0.00    +0.005 C 
ATOM     17  C   UNL     1       0.775  -0.278  -0.552  0.00  0.00    -0.013 C 
ENDBRANCH  15  17
ENDBRANCH   1  15
BRANCH   5  18
ATOM     18  S   UNL     1       0.892  -4.025  -0.640  0.00  0.00    -0.077 S 
BRANCH  18  19
ATOM     19  C   UNL     1       0.335  -5.653  -0.066  0.00  0.00    +0.173 C 
BRANCH  19  20
ATOM     20  C   UNL     1      -0.068  -6.493  -1.251  0.00  0.00    +0.228 C 
ATOM     21  O   UNL     1       0.013  -6.038  -2.372  0.00  0.00    -0.275 OA
ATOM     22  N   UNL     1      -0.518  -7.750  -1.064  0.00  0.00    -0.283 N 
ATOM     23  H   UNL     1      -0.647  -8.090  -0.165  0.00  0.00    +0.155 HD
BRANCH  22  24
ATOM     24  C   UNL     1      -0.799  -8.564  -2.169  0.00  0.00    +0.069 A 
ATOM     25  C   UNL     1      -0.073  -8.419  -3.343  0.00  0.00    +0.027 A 
ATOM     26  C   UNL     1      -0.352  -9.223  -4.431  0.00  0.00    +0.022 A 
ATOM     27  C   UNL     1      -1.355 -10.173  -4.352  0.00  0.00    +0.044 A 
ATOM     28  C   UNL     1      -2.082 -10.321  -3.184  0.00  0.00    +0.060 A 
ATOM     29  C   UNL     1      -1.803  -9.523  -2.090  0.00  0.00    +0.146 A 
ATOM     30  F   UNL     1      -2.508  -9.671  -0.947  0.00  0.00    -0.203 F 
ATOM     31 CL   UNL     1      -1.703 -11.181  -5.722  0.00  0.00    -0.083 Cl
ENDBRANCH  22  24
ENDBRANCH  19  20
ENDBRANCH  18  19
ENDBRANCH   5  18
TORSDOF 8
