REMARK  Name = ZINC16840144
REMARK  8 active torsions:
REMARK  status: ('A' for Active; 'I' for Inactive)
REMARK    1  A    between atoms: C_1  and  C_2
REMARK    2  A    between atoms: C_5  and  S_9
REMARK    3  A    between atoms: C_6  and  C_8
REMARK    4  A    between atoms: S_9  and  C_12
REMARK    5  A    between atoms: C_15  and  S_19
REMARK    6  A    between atoms: S_19  and  C_20
REMARK    7  A    between atoms: C_20  and  C_21
REMARK    8  A    between atoms: N_23  and  C_24
REMARK                            x       y       z     vdW  Elec       q    Type
REMARK                         _______ _______ _______ _____ _____    ______ ____
ROOT
ATOM      1  C   UNL     1       1.597  -5.060   0.662  0.00  0.00    +0.177 A 
ATOM      2  C   UNL     1       1.635  -5.752   1.858  0.00  0.00    +0.146 A 
ATOM      3  N   UNL     1       2.806  -6.110   2.362  0.00  0.00    -0.228 NA
ATOM      4  C   UNL     1       3.936  -5.815   1.736  0.00  0.00    +0.192 A 
ATOM      5  N   UNL     1       3.940  -5.153   0.588  0.00  0.00    -0.182 NA
ATOM      6  C   UNL     1       2.802  -4.769   0.023  0.00  0.00    +0.299 A 
ATOM      7  O   UNL     1       2.811  -4.098  -1.154  0.00  0.00    -0.264 OA
ENDROOT
BRANCH   1   8
ATOM      8  S   UNL     1       0.061  -4.564  -0.044  0.00  0.00    +0.032 S 
ATOM      9  O   UNL     1      -0.954  -4.986   0.857  0.00  0.00    -0.164 OA
ATOM     10  O   UNL     1       0.089  -4.972  -1.405  0.00  0.00    -0.164 OA
BRANCH   8  15
ATOM     11  C   UNL     1      -0.038   1.469  -0.051  0.00  0.00    +0.044 C 
ATOM     12  C   UNL     1      -0.013  -0.038  -0.049  0.00  0.00    -0.050 A 
ATOM     13  C   UNL     1      -0.006  -0.731  -1.246  0.00  0.00    +0.005 A 
ATOM     14  C   UNL     1       0.017  -2.113  -1.244  0.00  0.00    +0.028 A 
ATOM     15  C   UNL     1       0.033  -2.803  -0.046  0.00  0.00    +0.097 A 
ATOM     16  C   UNL     1       0.026  -2.110   1.150  0.00  0.00    -0.025 A 
ATOM     17  C   UNL     1       0.008  -0.728   1.149  0.00  0.00    +0.008 A 
ATOM     18  C   UNL     1       0.043  -2.862   2.456  0.00  0.00    +0.046 C 
ENDBRANCH   8  15
ENDBRANCH   1   8
BRANCH   4  19
ATOM     19  S   UNL     1       5.469  -6.313   2.446  0.00  0.00    -0.077 S 
BRANCH  19  20
ATOM     20  C   UNL     1       6.714  -5.709   1.273  0.00  0.00    +0.173 C 
BRANCH  20  21
ATOM     21  C   UNL     1       8.089  -6.074   1.768  0.00  0.00    +0.227 C 
ATOM     22  O   UNL     1       8.218  -6.682   2.810  0.00  0.00    -0.275 OA
ATOM     23  N   UNL     1       9.177  -5.725   1.053  0.00  0.00    -0.285 N 
ATOM     24  H   UNL     1       9.073  -5.299   0.188  0.00  0.00    +0.155 HD
BRANCH  23  25
ATOM     25  C   UNL     1      10.458  -5.978   1.559  0.00  0.00    +0.034 A 
ATOM     26  C   UNL     1      11.492  -5.085   1.313  0.00  0.00    +0.026 A 
ATOM     27  C   UNL     1      12.755  -5.336   1.813  0.00  0.00    +0.040 A 
ATOM     28  C   UNL     1      12.990  -6.479   2.559  0.00  0.00    +0.124 A 
ATOM     29  C   UNL     1      11.961  -7.371   2.806  0.00  0.00    +0.040 A 
ATOM     30  C   UNL     1      10.695  -7.120   2.313  0.00  0.00    +0.026 A 
ATOM     31  F   UNL     1      14.226  -6.723   3.046  0.00  0.00    -0.205 F 
ENDBRANCH  23  25
ENDBRANCH  20  21
ENDBRANCH  19  20
ENDBRANCH   4  19
TORSDOF 6
