REMARK  Name = ZINC34941885
REMARK  5 active torsions:
REMARK  status: ('A' for Active; 'I' for Inactive)
REMARK    1  A    between atoms: C_7  and  C_11
REMARK    2  A    between atoms: C_11  and  C_12
REMARK    3  A    between atoms: C_12  and  C_14
REMARK    4  A    between atoms: C_12  and  N_22
REMARK    5  A    between atoms: N_25  and  C_26
REMARK                            x       y       z     vdW  Elec       q    Type
REMARK                         _______ _______ _______ _____ _____    ______ ____
ROOT
ATOM      1  C   UNL     1       0.257  -3.481  -1.504  0.00  0.00    +0.165 C 
ENDROOT
BRANCH   1   2
ATOM      2  C   UNL     1      -0.697  -4.644  -1.600  0.00  0.00    +0.236 C 
ATOM      3  O   UNL     1      -0.277  -5.752  -1.859  0.00  0.00    -0.274 OA
ATOM      4  N   UNL     1      -2.015  -4.452  -1.400  0.00  0.00    -0.300 N 
ATOM      5  C   UNL     1      -2.554  -3.099  -1.202  0.00  0.00    +0.108 C 
ATOM      6  C   UNL     1      -3.686  -2.867  -2.207  0.00  0.00    +0.019 C 
ATOM      7  C   UNL     1      -4.724  -3.983  -2.067  0.00  0.00    +0.003 C 
ATOM      8  C   UNL     1      -4.071  -5.332  -2.379  0.00  0.00    +0.019 C 
ATOM      9  C   UNL     1      -2.943  -5.591  -1.381  0.00  0.00    +0.108 C 
ENDBRANCH   1   2
BRANCH   1  10
ATOM     10  N   UNL     1       1.477  -3.786  -2.256  0.00  0.00    -0.288 N 
ATOM     11  C   UNL     1       1.527  -3.550  -3.582  0.00  0.00    +0.305 C 
ATOM     12  O   UNL     1       0.560  -3.084  -4.154  0.00  0.00    -0.252 OA
ATOM     13  N   UNL     1       2.649  -3.831  -4.274  0.00  0.00    -0.268 N 
ATOM     14  H   UNL     1       2.248  -4.158  -1.800  0.00  0.00    +0.151 HD
ATOM     15  H   UNL     1       3.444  -4.133  -3.808  0.00  0.00    +0.156 HD
BRANCH  13  16
ATOM     16  C   UNL     1       2.667  -3.685  -5.666  0.00  0.00    +0.049 A 
ATOM     17  C   UNL     1       1.917  -2.686  -6.271  0.00  0.00    +0.024 A 
ATOM     18  C   UNL     1       1.938  -2.544  -7.645  0.00  0.00    +0.002 A 
ATOM     19  C   UNL     1       2.704  -3.397  -8.418  0.00  0.00    +0.001 A 
ATOM     20  C   UNL     1       3.452  -4.393  -7.820  0.00  0.00    +0.017 A 
ATOM     21  C   UNL     1       3.441  -4.537  -6.445  0.00  0.00    +0.039 A 
ATOM     22 BR   UNL     1       4.470  -5.896  -5.626  0.00  0.00    -0.048 Br
ENDBRANCH  13  16
ENDBRANCH   1  10
BRANCH   1  23
ATOM     23  C   UNL     1       0.612  -3.233  -0.036  0.00  0.00    +0.069 C 
BRANCH  23  30
ATOM     24  C   UNL     1      -0.393   1.336   0.256  0.00  0.00    +0.001 A 
ATOM     25  C   UNL     1       0.740   2.134   0.342  0.00  0.00    +0.002 A 
ATOM     26  C   UNL     1       1.998   1.572   0.336  0.00  0.00    +0.026 A 
ATOM     27  C   UNL     1       2.137   0.191   0.243  0.00  0.00    +0.047 A 
ATOM     28  C   UNL     1       0.987  -0.613   0.157  0.00  0.00    +0.003 A 
ATOM     29  C   UNL     1      -0.279  -0.023   0.164  0.00  0.00    +0.010 A 
ATOM     30  C   UNL     1       1.464  -1.995   0.073  0.00  0.00    -0.020 A 
ATOM     31  C   UNL     1       2.805  -1.950   0.111  0.00  0.00    +0.087 A 
ATOM     32  N   UNL     1       3.225  -0.652   0.213  0.00  0.00    -0.360 N 
ATOM     33  H   UNL     1       4.152  -0.368   0.258  0.00  0.00    +0.165 HD
ENDBRANCH  23  30
ENDBRANCH   1  23
TORSDOF 5
