REMARK  Name = ZINC21306461
REMARK  10 active torsions:
REMARK  status: ('A' for Active; 'I' for Inactive)
REMARK    1  A    between atoms: C_1  and  C_2
REMARK    2  A    between atoms: C_5  and  O_9
REMARK    3  A    between atoms: C_6  and  C_8
REMARK    4  A    between atoms: O_9  and  C_10
REMARK    5  A    between atoms: C_10  and  C_12
REMARK    6  A    between atoms: C_10  and  C_13
REMARK    7  A    between atoms: N_15  and  C_16
REMARK    8  A    between atoms: C_19  and  S_22
REMARK    9  A    between atoms: S_22  and  N_25
REMARK   10  A    between atoms: N_25  and  C_26
REMARK                            x       y       z     vdW  Elec       q    Type
REMARK                         _______ _______ _______ _____ _____    ______ ____
ROOT
ATOM      1  C   UNL     1       4.114  -6.119   1.743  0.00  0.00    +0.034 A 
ATOM      2  C   UNL     1       5.104  -6.915   2.305  0.00  0.00    +0.025 A 
ATOM      3  C   UNL     1       4.851  -8.247   2.568  0.00  0.00    +0.030 A 
ATOM      4  C   UNL     1       3.617  -8.791   2.263  0.00  0.00    +0.109 A 
ATOM      5  C   UNL     1       2.631  -8.002   1.698  0.00  0.00    +0.030 A 
ATOM      6  C   UNL     1       2.876  -6.668   1.437  0.00  0.00    +0.025 A 
ENDROOT
BRANCH   1   9
ATOM      7  C   UNL     1       3.376  -3.862   1.602  0.00  0.00    +0.258 C 
ATOM      8  O   UNL     1       2.292  -4.202   2.027  0.00  0.00    -0.271 OA
ATOM      9  N   UNL     1       4.366  -4.768   1.480  0.00  0.00    -0.282 N 
ATOM     10  H   UNL     1       5.372  -4.445   1.175  0.00  0.00    +0.155 HD
BRANCH   7  11
ATOM     11  C   UNL     1       3.615  -2.427   1.209  0.00  0.00    +0.256 C 
ATOM     12  C   UNL     1       3.875  -2.346  -0.296  0.00  0.00    +0.062 C 
BRANCH  11  13
ATOM     13  O   UNL     1       2.464  -1.645   1.536  0.00  0.00    -0.480 OA
BRANCH  13  18
ATOM     14  C   UNL     1       3.248   3.887   2.246  0.00  0.00    +0.044 C 
ATOM     15  C   UNL     1       3.038   2.407   2.057  0.00  0.00    -0.050 A 
ATOM     16  C   UNL     1       4.109   1.594   1.730  0.00  0.00    +0.007 A 
ATOM     17  C   UNL     1       3.919   0.237   1.555  0.00  0.00    +0.046 A 
ATOM     18  C   UNL     1       2.654  -0.310   1.708  0.00  0.00    +0.125 A 
ATOM     19  C   UNL     1       1.582   0.507   2.036  0.00  0.00    -0.009 A 
ATOM     20  C   UNL     1       1.776   1.863   2.209  0.00  0.00    +0.010 A 
ATOM     21  C   UNL     1       0.206  -0.085   2.203  0.00  0.00    +0.047 C 
ENDBRANCH  13  18
ENDBRANCH  11  13
ENDBRANCH   7  11
ENDBRANCH   1   9
BRANCH   4  22
ATOM     22  S   UNL     1       3.299 -10.492   2.594  0.00  0.00    +0.072 S 
ATOM     23  O   UNL     1       4.128 -10.854   3.691  0.00  0.00    -0.150 OA
ATOM     24  O   UNL     1       1.887 -10.643   2.625  0.00  0.00    -0.150 OA
BRANCH  22  25
ATOM     25  N   UNL     1       3.840 -11.354   1.288  0.00  0.00    -0.216 N 
ATOM     26  H   UNL     1       3.130 -11.936   0.681  0.00  0.00    +0.174 HD
BRANCH  25  27
ATOM     27  C   UNL     1       5.196 -11.343   0.956  0.00  0.00    +0.051 A 
ATOM     28  C   UNL     1       5.637 -10.623  -0.146  0.00  0.00    +0.044 A 
ATOM     29  C   UNL     1       6.981 -10.609  -0.469  0.00  0.00    +0.044 A 
ATOM     30  C   UNL     1       7.886 -11.321   0.299  0.00  0.00    +0.040 A 
ATOM     31  C   UNL     1       7.449 -12.044   1.395  0.00  0.00    +0.044 A 
ATOM     32  C   UNL     1       6.106 -12.057   1.725  0.00  0.00    +0.044 A 
ATOM     33 CL   UNL     1       8.587 -12.936   2.355  0.00  0.00    -0.083 Cl
ATOM     34 CL   UNL     1       7.534  -9.703  -1.843  0.00  0.00    -0.083 Cl
ENDBRANCH  25  27
ENDBRANCH  22  25
ENDBRANCH   4  22
TORSDOF 7
