REMARK  Name = ZINC12656135
REMARK  10 active torsions:
REMARK  status: ('A' for Active; 'I' for Inactive)
REMARK    1  A    between atoms: C_1  and  C_2
REMARK    2  A    between atoms: C_2  and  C_3
REMARK    3  A    between atoms: C_2  and  O_4
REMARK    4  A    between atoms: O_4  and  C_5
REMARK    5  A    between atoms: C_8  and  C_11
REMARK    6  A    between atoms: C_12  and  C_13
REMARK    7  A    between atoms: C_12  and  N_23
REMARK    8  A    between atoms: N_15  and  C_16
REMARK    9  A    between atoms: C_21  and  O_22
REMARK   10  A    between atoms: C_24  and  C_26
REMARK                            x       y       z     vdW  Elec       q    Type
REMARK                         _______ _______ _______ _____ _____    ______ ____
ROOT
ATOM      1  C   UNL     1      -2.705   0.547  -0.142  0.00  0.00    +0.036 C 
ATOM      2  C   UNL     1      -3.950   0.916  -0.526  0.00  0.00    +0.097 C 
ENDROOT
BRANCH   1   6
ATOM      3  C   UNL     1       0.440   3.392  -0.129  0.00  0.00    +0.121 A 
ATOM      4  C   UNL     1       0.734   2.035  -0.079  0.00  0.00    +0.046 A 
ATOM      5  C   UNL     1      -0.283   1.107  -0.079  0.00  0.00    +0.011 A 
ATOM      6  C   UNL     1      -1.615   1.533  -0.135  0.00  0.00    -0.023 A 
ATOM      7  C   UNL     1      -1.906   2.901  -0.179  0.00  0.00    +0.011 A 
ATOM      8  C   UNL     1      -0.881   3.821  -0.179  0.00  0.00    +0.046 A 
BRANCH   3   9
ATOM      9  O   UNL     1       1.448   4.303  -0.129  0.00  0.00    -0.489 OA
BRANCH   9  11
ATOM     10  C   UNL     1       3.739   4.837  -0.682  0.00  0.00    +0.051 C 
ATOM     11  C   UNL     1       2.782   3.794  -0.101  0.00  0.00    +0.167 C 
ATOM     12  C   UNL     1       3.180   3.486   1.344  0.00  0.00    +0.051 C 
ENDBRANCH   9  11
ENDBRANCH   3   9
ENDBRANCH   1   6
BRANCH   2  13
ATOM     13  C   UNL     1      -5.073  -0.017  -0.373  0.00  0.00    +0.263 C 
ATOM     14  O   UNL     1      -6.176   0.284  -0.790  0.00  0.00    -0.268 OA
ATOM     15  N   UNL     1      -4.882  -1.208   0.228  0.00  0.00    -0.278 N 
ATOM     16  H   UNL     1      -4.021  -1.421   0.619  0.00  0.00    +0.155 HD
BRANCH  15  17
ATOM     17  C   UNL     1      -5.928  -2.137   0.289  0.00  0.00    +0.076 A 
ATOM     18  C   UNL     1      -6.996  -2.041  -0.591  0.00  0.00    +0.027 A 
ATOM     19  C   UNL     1      -8.025  -2.961  -0.532  0.00  0.00    +0.002 A 
ATOM     20  C   UNL     1      -7.998  -3.974   0.409  0.00  0.00    +0.004 A 
ATOM     21  C   UNL     1      -6.939  -4.074   1.292  0.00  0.00    +0.047 A 
ATOM     22  C   UNL     1      -5.901  -3.158   1.237  0.00  0.00    +0.138 A 
BRANCH  22  23
ATOM     23  O   UNL     1      -4.859  -3.254   2.106  0.00  0.00    -0.505 OA
ATOM     24  H   UNL     1      -4.987  -2.763   2.928  0.00  0.00    +0.292 HD
ENDBRANCH  22  23
ENDBRANCH  15  17
ENDBRANCH   2  13
BRANCH   2  25
ATOM     25  N   UNL     1      -4.166   2.188  -1.069  0.00  0.00    -0.277 N 
ATOM     26  C   UNL     1      -5.126   2.984  -0.558  0.00  0.00    +0.248 C 
ATOM     27  O   UNL     1      -5.772   2.617   0.404  0.00  0.00    -0.270 OA
ATOM     28  H   UNL     1      -3.625   2.496  -1.813  0.00  0.00    +0.155 HD
BRANCH  26  29
ATOM     29  C   UNL     1      -5.394   4.303  -1.168  0.00  0.00    +0.037 A 
ATOM     30  C   UNL     1      -4.650   4.730  -2.270  0.00  0.00    +0.014 A 
ATOM     31  C   UNL     1      -4.909   5.959  -2.839  0.00  0.00    +0.016 A 
ATOM     32  C   UNL     1      -5.895   6.775  -2.312  0.00  0.00    +0.018 A 
ATOM     33  C   UNL     1      -6.632   6.360  -1.215  0.00  0.00    +0.016 A 
ATOM     34  C   UNL     1      -6.388   5.130  -0.642  0.00  0.00    +0.014 A 
ATOM     35 BR   UNL     1      -6.238   8.463  -3.093  0.00  0.00    -0.050 Br
ENDBRANCH  26  29
ENDBRANCH   2  25
TORSDOF 8
