REMARK  Name = ZINC13438510
REMARK  11 active torsions:
REMARK  status: ('A' for Active; 'I' for Inactive)
REMARK    1  A    between atoms: C_1  and  C_2
REMARK    2  A    between atoms: C_3  and  C_22
REMARK    3  A    between atoms: C_7  and  O_11
REMARK    4  A    between atoms: O_11  and  C_12
REMARK    5  A    between atoms: C_12  and  C_13
REMARK    6  A    between atoms: C_13  and  C_14
REMARK    7  A    between atoms: C_14  and  N_55
REMARK    8  A    between atoms: C_15  and  C_16
REMARK    9  A    between atoms: C_15  and  N_55
REMARK   10  A    between atoms: C_22  and  O_23
REMARK   11  A    between atoms: O_23  and  C_24
REMARK                            x       y       z     vdW  Elec       q    Type
REMARK                         _______ _______ _______ _____ _____    ______ ____
ROOT
ATOM      1  C   UNL     1       4.832  -0.684   4.915  0.00  0.00    +0.048 C 
ATOM      2  C   UNL     1       6.113   0.047   4.604  0.00  0.00    +0.005 A 
ATOM      3  C   UNL     1       7.259  -0.006   5.296  0.00  0.00    +0.146 A 
ATOM      4  O   UNL     1       8.189   0.769   4.712  0.00  0.00    -0.456 OA
ATOM      5  C   UNL     1       7.689   1.379   3.618  0.00  0.00    +0.139 A 
ATOM      6  C   UNL     1       6.355   0.961   3.481  0.00  0.00    +0.065 A 
ATOM      7  C   UNL     1       5.578   1.431   2.418  0.00  0.00    +0.131 A 
ATOM      8  C   UNL     1       6.130   2.317   1.511  0.00  0.00    +0.046 A 
ATOM      9  C   UNL     1       7.446   2.731   1.652  0.00  0.00    +0.007 A 
ATOM     10  C   UNL     1       8.222   2.269   2.694  0.00  0.00    +0.047 A 
ENDROOT
BRANCH   7  11
ATOM     11  O   UNL     1       4.289   1.024   2.281  0.00  0.00    -0.491 OA
BRANCH  11  12
ATOM     12  C   UNL     1       3.557   1.552   1.173  0.00  0.00    +0.227 C 
BRANCH  12  13
ATOM     13  C   UNL     1       2.136   0.985   1.184  0.00  0.00    +0.022 C 
BRANCH  13  14
ATOM     14  C   UNL     1       1.353   1.550  -0.003  0.00  0.00    -0.079 C 
BRANCH  14  15
ATOM     15  N   UNL     1      -0.015   0.998   0.015  0.00  0.00    +0.382 N 
ATOM     16  H   UNL     1      -0.475   1.261   0.894  0.00  0.00    -0.085 HD
ATOM     17  H   UNL     1       0.032  -0.025  -0.054  0.00  0.00    -0.085 HD
BRANCH  15  18
ATOM     18  C   UNL     1      -0.795   1.527  -1.120  0.00  0.00    -0.045 C 
BRANCH  18  19
ATOM     19  C   UNL     1      -2.186   0.947  -1.076  0.00  0.00    -0.046 A 
ATOM     20  C   UNL     1      -2.473  -0.238  -1.737  0.00  0.00    +0.005 A 
ATOM     21  C   UNL     1      -3.765  -0.737  -1.666  0.00  0.00    +0.020 A 
ATOM     22  C   UNL     1      -4.719  -0.036  -0.952  0.00  0.00    +0.111 A 
ATOM     23  N   UNL     1      -4.410   1.091  -0.340  0.00  0.00    -0.263 NA
ATOM     24  C   UNL     1      -3.192   1.592  -0.382  0.00  0.00    +0.112 A 
ENDBRANCH  18  19
ENDBRANCH  15  18
ENDBRANCH  14  15
ENDBRANCH  13  14
ENDBRANCH  12  13
ENDBRANCH  11  12
ENDBRANCH   7  11
BRANCH   3  25
ATOM     25  C   UNL     1       7.477  -0.828   6.541  0.00  0.00    +0.303 C 
BRANCH  25  26
ATOM     26  O   UNL     1       7.955  -2.125   6.178  0.00  0.00    -0.481 OA
BRANCH  26  27
ATOM     27  C   UNL     1       8.204  -2.997   7.191  0.00  0.00    +0.156 A 
ATOM     28  C   UNL     1       7.994  -2.611   8.506  0.00  0.00    +0.050 A 
ATOM     29  C   UNL     1       8.248  -3.498   9.534  0.00  0.00    +0.019 A 
ATOM     30  C   UNL     1       8.711  -4.771   9.254  0.00  0.00    +0.021 A 
ATOM     31  C   UNL     1       8.922  -5.160   7.943  0.00  0.00    +0.057 A 
ATOM     32  C   UNL     1       8.665  -4.277   6.910  0.00  0.00    +0.166 A 
ATOM     33  F   UNL     1       8.865  -4.657   5.629  0.00  0.00    -0.202 F 
ATOM     34 BR   UNL     1       9.058  -5.982  10.664  0.00  0.00    -0.050 Br
ENDBRANCH  26  27
ENDBRANCH  25  26
ENDBRANCH   3  25
TORSDOF 10
