REMARK  Name = ZINC21084399
REMARK  9 active torsions:
REMARK  status: ('A' for Active; 'I' for Inactive)
REMARK    1  A    between atoms: C_1  and  C_2
REMARK    2  A    between atoms: C_2  and  C_3
REMARK    3  A    between atoms: C_3  and  C_5
REMARK    4  A    between atoms: C_3  and  S_6
REMARK    5  A    between atoms: S_6  and  C_7
REMARK    6  A    between atoms: C_13  and  C_15
REMARK    7  A    between atoms: C_15  and  S_16
REMARK    8  A    between atoms: S_16  and  C_17
REMARK    9  A    between atoms: N_22  and  N_23
REMARK                            x       y       z     vdW  Elec       q    Type
REMARK                         _______ _______ _______ _____ _____    ______ ____
ROOT
ATOM      1  S   UNL     1       5.077   1.956   0.498  0.00  0.00    -0.075 S 
ENDROOT
BRANCH   1   2
ATOM      2  C   UNL     1       3.325   2.125   0.414  0.00  0.00    +0.211 A 
ATOM      3  N   UNL     1       2.433   1.121   0.166  0.00  0.00    -0.186 NA
ATOM      4  C   UNL     1       1.176   1.659   0.184  0.00  0.00    +0.232 A 
ATOM      5  N   UNL     1       1.288   2.942   0.428  0.00  0.00    -0.245 N 
ATOM      6  N   UNL     1       2.649   3.237   0.579  0.00  0.00    -0.144 NA
ATOM      7  N   UNL     1      -0.010   0.969  -0.025  0.00  0.00    -0.205 N 
ATOM      8  H   UNL     1       0.011  -0.113  -0.224  0.00  0.00    +0.177 HD
ATOM      9  H   UNL     1       0.388   3.573   0.480  0.00  0.00    +0.192 HD
BRANCH   7  10
ATOM     10  N   UNL     1      -1.234   1.650   0.017  0.00  0.00    -0.189 NA
ATOM     11  C   UNL     1      -2.332   0.998  -0.073  0.00  0.00    +0.037 C 
ATOM     12  C   UNL     1      -2.338  -0.514  -0.083  0.00  0.00    +0.052 C 
ATOM     13  C   UNL     1      -3.337  -1.000   0.979  0.00  0.00    +0.006 C 
ATOM     14  C   UNL     1      -4.703  -0.363   0.720  0.00  0.00    +0.001 C 
ATOM     15  C   UNL     1      -4.606   1.155   0.883  0.00  0.00    +0.006 C 
ATOM     16  C   UNL     1      -3.657   1.722  -0.177  0.00  0.00    +0.052 C 
ENDBRANCH   7  10
ENDBRANCH   1   2
BRANCH   1  17
ATOM     17  C   UNL     1       5.664   3.635   0.854  0.00  0.00    +0.173 C 
BRANCH  17  24
ATOM     18  C   UNL     1      11.845   5.135   1.546  0.00  0.00    +0.160 A 
ATOM     19  N   UNL     1      11.321   3.946   1.287  0.00  0.00    -0.133 NA
ATOM     20  N   UNL     1      10.076   3.775   1.179  0.00  0.00    -0.125 NA
ATOM     21  C   UNL     1       9.218   4.774   1.304  0.00  0.00    +0.189 A 
ATOM     22  S   UNL     1      10.353   6.120   1.633  0.00  0.00    -0.024 S 
ATOM     23  N   UNL     1       7.828   4.778   1.213  0.00  0.00    -0.263 N 
ATOM     24  C   UNL     1       7.167   3.632   0.953  0.00  0.00    +0.229 C 
ATOM     25  O   UNL     1       7.783   2.598   0.799  0.00  0.00    -0.275 OA
ATOM     26  H   UNL     1       7.270   5.715   1.353  0.00  0.00    +0.157 HD
BRANCH  18  27
ATOM     27  S   UNL     1      13.530   5.610   1.748  0.00  0.00    -0.094 S 
BRANCH  27  28
ATOM     28  C   UNL     1      14.453   4.066   1.518  0.00  0.00    +0.050 C 
ATOM     29  C   UNL     1      14.274   3.574   0.080  0.00  0.00    +0.019 C 
BRANCH  28  31
ATOM     30  C   UNL     1      16.130   4.684   3.263  0.00  0.00    +0.005 C 
ATOM     31  C   UNL     1      15.938   4.313   1.791  0.00  0.00    +0.011 C 
ENDBRANCH  28  31
ENDBRANCH  27  28
ENDBRANCH  18  27
ENDBRANCH  17  24
ENDBRANCH   1  17
TORSDOF 7
