REMARK  Name = ZINC67578082
REMARK  4 active torsions:
REMARK  status: ('A' for Active; 'I' for Inactive)
REMARK    1  A    between atoms: C_2  and  C_3
REMARK    2  A    between atoms: C_3  and  N_4
REMARK    3  A    between atoms: C_5  and  C_7
REMARK    4  A    between atoms: C_7  and  N_8
REMARK                            x       y       z     vdW  Elec       q    Type
REMARK                         _______ _______ _______ _____ _____    ______ ____
ROOT
ATOM      1  N   UNL     1       2.979   5.290   0.002  0.00  0.00    -0.291 N 
ATOM      2  C   UNL     1       4.137   5.979  -0.005  0.00  0.00    +0.306 C 
ATOM      3  O   UNL     1       5.198   5.386  -0.019  0.00  0.00    -0.252 OA
ATOM      4  N   UNL     1       4.118   7.327   0.002  0.00  0.00    -0.248 N 
ATOM      5  C   UNL     1       5.309   8.036  -0.005  0.00  0.00    +0.167 A 
ATOM      6  N   UNL     1       6.539   7.579  -0.025  0.00  0.00    -0.224 NA
ATOM      7  C   UNL     1       7.617   8.395  -0.030  0.00  0.00    +0.084 A 
ATOM      8  C   UNL     1       8.984   8.032  -0.051  0.00  0.00    +0.078 A 
ATOM      9  C   UNL     1       9.971   8.990  -0.055  0.00  0.00    +0.175 A 
ATOM     10  C   UNL     1       9.650  10.350  -0.036  0.00  0.00    +0.174 A 
ATOM     11  C   UNL     1       8.321  10.736  -0.015  0.00  0.00    +0.067 A 
ATOM     12  C   UNL     1       7.336   9.779  -0.013  0.00  0.00    +0.044 A 
ATOM     13  S   UNL     1       5.560   9.806   0.002  0.00  0.00    -0.052 S 
ATOM     14  O   UNL     1      10.806  11.075  -0.043  0.00  0.00    -0.395 OA
ATOM     15  C   UNL     1      11.839  10.152   0.347  0.00  0.00    +0.589 C 
ATOM     16  O   UNL     1      11.334   8.872  -0.074  0.00  0.00    -0.395 OA
ATOM     17  F   UNL     1      12.021  10.175   1.734  0.00  0.00    -0.125 F 
ATOM     18  F   UNL     1      13.037  10.448  -0.312  0.00  0.00    -0.125 F 
ATOM     19  H   UNL     1       2.132   5.763   0.013  0.00  0.00    +0.151 HD
ATOM     20  H   UNL     1       3.272   7.800   0.013  0.00  0.00    +0.158 HD
ENDROOT
BRANCH   1  21
ATOM     21  C   UNL     1       2.999   3.825  -0.006  0.00  0.00    +0.201 C 
BRANCH  21  23
ATOM     22  N   UNL     1       1.357   1.975  -0.000  0.00  0.00    -0.303 N 
ATOM     23  C   UNL     1       1.585   3.303   0.005  0.00  0.00    +0.231 C 
ATOM     24  O   UNL     1       0.652   4.079   0.018  0.00  0.00    -0.274 OA
ATOM     25  H   UNL     1       2.102   1.355  -0.011  0.00  0.00    +0.150 HD
BRANCH  22  26
ATOM     26  C   UNL     1      -0.018   1.468   0.010  0.00  0.00    +0.193 C 
BRANCH  26  28
ATOM     27  C   UNL     1       0.018  -1.178  -0.004  0.00  0.00    +0.005 C 
ATOM     28  C   UNL     1       0.002  -0.004   0.002  0.00  0.00    -0.087 C 
ENDBRANCH  26  28
ENDBRANCH  22  26
ENDBRANCH  21  23
ENDBRANCH   1  21
TORSDOF 4
