REMARK  Name = ZINC39752945
REMARK  8 active torsions:
REMARK  status: ('A' for Active; 'I' for Inactive)
REMARK    1  A    between atoms: C_1  and  C_2
REMARK    2  A    between atoms: C_5  and  N_8
REMARK    3  A    between atoms: N_8  and  S_9
REMARK    4  A    between atoms: S_9  and  C_12
REMARK    5  A    between atoms: C_15  and  N_18
REMARK    6  A    between atoms: C_19  and  C_21
REMARK    7  A    between atoms: N_24  and  C_27
REMARK    8  A    between atoms: C_27  and  C_28
REMARK                            x       y       z     vdW  Elec       q    Type
REMARK                         _______ _______ _______ _____ _____    ______ ____
ROOT
ATOM      1  N   UNL     1      -0.365  -4.157   6.781  0.00  0.00    -0.285 N 
ATOM      2  C   UNL     1      -1.187  -5.019   7.413  0.00  0.00    +0.220 C 
ATOM      3  O   UNL     1      -1.570  -6.020   6.845  0.00  0.00    -0.275 OA
ATOM      4  H   UNL     1       0.001  -3.397   7.259  0.00  0.00    +0.155 HD
ENDROOT
BRANCH   2   5
ATOM      5  C   UNL     1      -1.629  -4.740   8.826  0.00  0.00    +0.072 C 
ATOM      6  C   UNL     1      -0.404  -4.670   9.742  0.00  0.00    -0.006 C 
ATOM      7  C   UNL     1      -0.864  -4.466  11.187  0.00  0.00    -0.078 C 
ATOM      8  N   UNL     1      -1.719  -5.587  11.595  0.00  0.00    +0.382 N 
ATOM      9  C   UNL     1      -2.931  -5.616  10.768  0.00  0.00    -0.078 C 
ATOM     10  C   UNL     1      -2.550  -5.865   9.307  0.00  0.00    -0.006 C 
ATOM     11  H   UNL     1      -1.214  -6.453  11.481  0.00  0.00    -0.081 HD
BRANCH   8  12
ATOM     12  C   UNL     1      -2.095  -5.425  13.006  0.00  0.00    -0.040 C 
BRANCH  12  13
ATOM     13  C   UNL     1      -2.870  -6.635  13.461  0.00  0.00    -0.029 A 
ATOM     14  C   UNL     1      -4.250  -6.588  13.526  0.00  0.00    +0.004 A 
ATOM     15  C   UNL     1      -4.961  -7.698  13.944  0.00  0.00    +0.000 A 
ATOM     16  C   UNL     1      -4.293  -8.856  14.296  0.00  0.00    +0.003 A 
ATOM     17  C   UNL     1      -2.913  -8.905  14.231  0.00  0.00    +0.038 A 
ATOM     18  C   UNL     1      -2.200  -7.796  13.808  0.00  0.00    +0.125 A 
ATOM     19  F   UNL     1      -0.852  -7.845  13.740  0.00  0.00    -0.205 F 
ENDBRANCH  12  13
ENDBRANCH   8  12
ENDBRANCH   2   5
BRANCH   1  23
ATOM     20  C   UNL     1       0.599  -4.757   2.773  0.00  0.00    +0.109 A 
ATOM     21  C   UNL     1      -0.650  -5.119   3.244  0.00  0.00    +0.030 A 
ATOM     22  C   UNL     1      -0.973  -4.921   4.572  0.00  0.00    +0.025 A 
ATOM     23  C   UNL     1      -0.042  -4.359   5.435  0.00  0.00    +0.034 A 
ATOM     24  C   UNL     1       1.212  -3.998   4.959  0.00  0.00    +0.025 A 
ATOM     25  C   UNL     1       1.530  -4.203   3.631  0.00  0.00    +0.030 A 
BRANCH  20  26
ATOM     26  S   UNL     1       1.007  -5.011   1.078  0.00  0.00    +0.072 S 
ATOM     27  O   UNL     1       2.129  -4.184   0.802  0.00  0.00    -0.150 OA
ATOM     28  O   UNL     1      -0.209  -4.914   0.348  0.00  0.00    -0.150 OA
BRANCH  26  29
ATOM     29  N   UNL     1       1.524  -6.577   0.928  0.00  0.00    -0.216 N 
ATOM     30  H   UNL     1       1.040  -7.196   0.359  0.00  0.00    +0.174 HD
BRANCH  29  35
ATOM     31  C   UNL     1       6.132  -8.322   3.736  0.00  0.00    +0.044 C 
ATOM     32  C   UNL     1       4.907  -7.858   2.990  0.00  0.00    -0.050 A 
ATOM     33  C   UNL     1       3.761  -8.632   2.996  0.00  0.00    +0.005 A 
ATOM     34  C   UNL     1       2.637  -8.210   2.313  0.00  0.00    +0.025 A 
ATOM     35  C   UNL     1       2.659  -7.007   1.620  0.00  0.00    +0.048 A 
ATOM     36  C   UNL     1       3.812  -6.232   1.615  0.00  0.00    +0.025 A 
ATOM     37  C   UNL     1       4.930  -6.657   2.305  0.00  0.00    +0.005 A 
ENDBRANCH  29  35
ENDBRANCH  26  29
ENDBRANCH  20  26
ENDBRANCH   1  23
TORSDOF 7
