REMARK  Name = ZINC39652864
REMARK  5 active torsions:
REMARK  status: ('A' for Active; 'I' for Inactive)
REMARK    1  A    between atoms: C_6  and  C_7
REMARK    2  A    between atoms: C_7  and  C_8
REMARK    3  A    between atoms: C_8  and  N_9
REMARK    4  A    between atoms: C_10  and  C_12
REMARK    5  A    between atoms: C_23  and  C_25
REMARK                            x       y       z     vdW  Elec       q    Type
REMARK                         _______ _______ _______ _____ _____    ______ ____
ROOT
ATOM      1  C   UNL     1      -4.288  -3.218  -2.723  0.00  0.00    +0.100 C 
ATOM      2  C   UNL     1      -4.384  -4.597  -2.032  0.00  0.00    +0.121 C 
ATOM      3  N   UNL     1      -5.331  -5.370  -2.869  0.00  0.00    -0.296 N 
ATOM      4  C   UNL     1      -4.989  -4.989  -4.261  0.00  0.00    +0.115 C 
ATOM      5  C   UNL     1      -4.685  -3.480  -4.185  0.00  0.00    -0.004 C 
ATOM      6  C   UNL     1      -3.530  -3.127  -5.117  0.00  0.00    -0.010 C 
ATOM      7  C   UNL     1      -3.969  -3.340  -6.569  0.00  0.00    -0.082 C 
ATOM      8  N   UNL     1      -5.134  -2.496  -6.859  0.00  0.00    +0.379 N 
ATOM      9  C   UNL     1      -6.269  -2.904  -6.023  0.00  0.00    -0.082 C 
ATOM     10  C   UNL     1      -5.928  -2.672  -4.548  0.00  0.00    -0.010 C 
ATOM     11  C   UNL     1      -6.288  -6.225  -2.458  0.00  0.00    +0.247 C 
ATOM     12  O   UNL     1      -6.535  -6.337  -1.273  0.00  0.00    -0.270 OA
ATOM     13  H   UNL     1      -4.905  -1.532  -6.667  0.00  0.00    -0.086 HD
ATOM     14  H   UNL     1      -5.383  -2.592  -7.832  0.00  0.00    -0.086 HD
ENDROOT
BRANCH  11  15
ATOM     15  C   UNL     1      -7.037  -7.026  -3.449  0.00  0.00    +0.037 A 
ATOM     16  C   UNL     1      -6.506  -7.243  -4.721  0.00  0.00    +0.014 A 
ATOM     17  C   UNL     1      -7.209  -7.993  -5.641  0.00  0.00    +0.021 A 
ATOM     18  C   UNL     1      -8.441  -8.529  -5.304  0.00  0.00    +0.041 A 
ATOM     19  C   UNL     1      -8.974  -8.317  -4.043  0.00  0.00    +0.021 A 
ATOM     20  C   UNL     1      -8.277  -7.574  -3.113  0.00  0.00    +0.014 A 
ATOM     21 CL   UNL     1      -9.322  -9.470  -6.467  0.00  0.00    -0.084 Cl
ENDBRANCH  11  15
BRANCH   1  23
ATOM     22  N   UNL     1      -2.658  -1.361  -2.608  0.00  0.00    -0.315 N 
ATOM     23  C   UNL     1      -2.879  -2.690  -2.648  0.00  0.00    +0.218 C 
ATOM     24  O   UNL     1      -1.943  -3.461  -2.623  0.00  0.00    -0.275 OA
ATOM     25  H   UNL     1      -3.406  -0.744  -2.628  0.00  0.00    +0.149 HD
BRANCH  22  26
ATOM     26  C   UNL     1      -1.288  -0.848  -2.536  0.00  0.00    +0.109 C 
BRANCH  26  27
ATOM     27  C   UNL     1      -1.317   0.682  -2.503  0.00  0.00    +0.054 C 
BRANCH  27  33
ATOM     28  C   UNL     1       0.793   1.478  -3.590  0.00  0.00    +0.005 A 
ATOM     29  C   UNL     1       2.086   1.962  -3.522  0.00  0.00    +0.015 A 
ATOM     30  C   UNL     1       2.679   2.178  -2.292  0.00  0.00    +0.018 A 
ATOM     31  C   UNL     1       1.979   1.909  -1.129  0.00  0.00    +0.015 A 
ATOM     32  C   UNL     1       0.686   1.425  -1.198  0.00  0.00    +0.005 A 
ATOM     33  C   UNL     1       0.093   1.209  -2.428  0.00  0.00    -0.046 A 
ATOM     34 BR   UNL     1       4.448   2.839  -2.198  0.00  0.00    -0.050 Br
ENDBRANCH  27  33
ENDBRANCH  26  27
ENDBRANCH  22  26
ENDBRANCH   1  23
TORSDOF 5
