REMARK  Name = ZINC34692114
REMARK  6 active torsions:
REMARK  status: ('A' for Active; 'I' for Inactive)
REMARK    1  A    between atoms: C_4  and  C_7
REMARK    2  A    between atoms: C_7  and  N_8
REMARK    3  A    between atoms: C_15  and  C_18
REMARK    4  A    between atoms: C_18  and  N_19
REMARK    5  A    between atoms: C_26  and  C_28
REMARK    6  A    between atoms: C_31  and  C_34
REMARK                            x       y       z     vdW  Elec       q    Type
REMARK                         _______ _______ _______ _____ _____    ______ ____
ROOT
ATOM      1  N   UNL     1       9.404  -1.452   5.374  0.00  0.00    +0.382 N 
ATOM      2  C   UNL     1      10.715  -1.983   5.739  0.00  0.00    -0.077 C 
ATOM      3  C   UNL     1      11.677  -0.836   5.952  0.00  0.00    +0.000 C 
ATOM      4  C   UNL     1      11.697  -0.453   7.443  0.00  0.00    +0.106 C 
ATOM      5  N   UNL     1      10.340  -0.505   8.023  0.00  0.00    -0.299 N 
ATOM      6  C   UNL     1       9.176  -0.012   7.316  0.00  0.00    +0.089 C 
ATOM      7  C   UNL     1       8.560  -1.147   6.465  0.00  0.00    -0.059 C 
ATOM      8  C   UNL     1      10.179  -1.030   9.254  0.00  0.00    +0.247 C 
ATOM      9  O   UNL     1       9.062  -1.183   9.708  0.00  0.00    -0.270 OA
ATOM     10  H   UNL     1       9.543  -0.611   4.834  0.00  0.00    -0.082 HD
ENDROOT
BRANCH   8  11
ATOM     11  C   UNL     1      11.361  -1.420  10.052  0.00  0.00    +0.037 A 
ATOM     12  C   UNL     1      12.525  -0.651  10.003  0.00  0.00    +0.013 A 
ATOM     13  C   UNL     1      13.624  -1.020  10.750  0.00  0.00    +0.013 A 
ATOM     14  C   UNL     1      13.575  -2.151  11.546  0.00  0.00    +0.055 A 
ATOM     15  C   UNL     1      12.425  -2.918  11.599  0.00  0.00    +0.013 A 
ATOM     16  C   UNL     1      11.316  -2.556  10.861  0.00  0.00    +0.013 A 
BRANCH  14  17
ATOM     17  C   UNL     1      14.780  -2.549  12.359  0.00  0.00    +0.417 C 
ATOM     18  F   UNL     1      14.714  -1.943  13.618  0.00  0.00    -0.166 F 
ATOM     19  F   UNL     1      14.802  -3.939  12.511  0.00  0.00    -0.166 F 
ATOM     20  F   UNL     1      15.944  -2.133  11.703  0.00  0.00    -0.166 F 
ENDBRANCH  14  17
ENDBRANCH   8  11
BRANCH   1  21
ATOM     21  C   UNL     1       8.724  -2.439   4.524  0.00  0.00    -0.045 C 
BRANCH  21  29
ATOM     22  N   UNL     1       9.493  -6.018   1.059  0.00  0.00    -0.295 N 
ATOM     23  C   UNL     1       9.858  -4.856   0.480  0.00  0.00    +0.303 C 
ATOM     24  O   UNL     1      10.515  -4.866  -0.543  0.00  0.00    -0.253 OA
ATOM     25  N   UNL     1       9.494  -3.683   1.035  0.00  0.00    -0.281 N 
ATOM     26  C   UNL     1       9.779  -2.406   0.363  0.00  0.00    +0.137 C 
ATOM     27  C   UNL     1      10.463  -1.472   1.368  0.00  0.00    +0.179 C 
ATOM     28  O   UNL     1       9.673  -1.401   2.557  0.00  0.00    -0.375 OA
ATOM     29  C   UNL     1       9.531  -2.648   3.241  0.00  0.00    +0.119 C 
ATOM     30  C   UNL     1       8.794  -3.643   2.329  0.00  0.00    +0.139 C 
ATOM     31  H   UNL     1       9.032  -6.011   1.912  0.00  0.00    +0.151 HD
BRANCH  22  32
ATOM     32  C   UNL     1       9.794  -7.291   0.399  0.00  0.00    +0.141 C 
BRANCH  32  36
ATOM     33  C   UNL     1       8.353 -10.516   2.800  0.00  0.00    +0.000 A 
ATOM     34  C   UNL     1       7.534  -9.947   1.843  0.00  0.00    +0.000 A 
ATOM     35  C   UNL     1       8.000  -8.903   1.066  0.00  0.00    +0.005 A 
ATOM     36  C   UNL     1       9.286  -8.428   1.246  0.00  0.00    -0.030 A 
ATOM     37  C   UNL     1      10.104  -8.996   2.204  0.00  0.00    +0.005 A 
ATOM     38  C   UNL     1       9.639 -10.041   2.980  0.00  0.00    +0.000 A 
ENDBRANCH  32  36
ENDBRANCH  22  32
ENDBRANCH  21  29
ENDBRANCH   1  21
TORSDOF 6
