REMARK  Name = ZINC18097798
REMARK  6 active torsions:
REMARK  status: ('A' for Active; 'I' for Inactive)
REMARK    1  A    between atoms: C_4  and  C_8
REMARK    2  A    between atoms: N_10  and  N_11
REMARK    3  A    between atoms: C_12  and  C_14
REMARK    4  A    between atoms: C_14  and  C_15
REMARK    5  A    between atoms: C_15  and  N_16
REMARK    6  A    between atoms: C_17  and  C_19
REMARK                            x       y       z     vdW  Elec       q    Type
REMARK                         _______ _______ _______ _____ _____    ______ ____
ROOT
ATOM      1  N   UNL     1      -9.471   1.117   3.370  0.00  0.00    -0.234 N 
ATOM      2  C   UNL     1      -8.647   0.808   2.349  0.00  0.00    +0.231 C 
ATOM      3  O   UNL     1      -9.043   0.111   1.440  0.00  0.00    -0.274 OA
ATOM      4  H   UNL     1      -9.155   1.675   4.097  0.00  0.00    +0.173 HD
ENDROOT
BRANCH   1   7
ATOM      5  C   UNL     1     -11.610   0.941   4.400  0.00  0.00    +0.262 C 
ATOM      6  O   UNL     1     -11.214   1.641   5.312  0.00  0.00    -0.269 OA
ATOM      7  N   UNL     1     -10.786   0.632   3.380  0.00  0.00    -0.230 N 
ATOM      8  H   UNL     1     -11.102   0.074   2.652  0.00  0.00    +0.173 HD
BRANCH   5  12
ATOM      9  C   UNL     1     -15.597  -0.529   4.431  0.00  0.00    +0.021 A 
ATOM     10  C   UNL     1     -15.149   0.266   5.470  0.00  0.00    +0.022 A 
ATOM     11  C   UNL     1     -13.854   0.748   5.467  0.00  0.00    +0.053 A 
ATOM     12  C   UNL     1     -12.997   0.430   4.410  0.00  0.00    +0.058 A 
ATOM     13  C   UNL     1     -13.457  -0.369   3.362  0.00  0.00    +0.034 A 
ATOM     14  C   UNL     1     -14.752  -0.848   3.381  0.00  0.00    +0.042 A 
ATOM     15 CL   UNL     1     -15.325  -1.847   2.082  0.00  0.00    -0.084 Cl
ATOM     16 CL   UNL     1     -13.294   1.746   6.772  0.00  0.00    -0.083 Cl
ENDBRANCH   5  12
ENDBRANCH   1   7
BRANCH   2  17
ATOM     17  C   UNL     1      -7.233   1.330   2.338  0.00  0.00    +0.116 C 
BRANCH  17  18
ATOM     18  C   UNL     1      -6.517   0.837   1.080  0.00  0.00    +0.113 C 
BRANCH  18  19
ATOM     19  N   UNL     1      -5.143   1.344   1.069  0.00  0.00    -0.314 N 
ATOM     20  C   UNL     1      -4.318   1.035   0.049  0.00  0.00    +0.219 C 
ATOM     21  O   UNL     1      -4.714   0.337  -0.861  0.00  0.00    -0.275 OA
ATOM     22  H   UNL     1      -4.826   1.902   1.797  0.00  0.00    +0.149 HD
BRANCH  20  23
ATOM     23  C   UNL     1      -2.904   1.556   0.038  0.00  0.00    +0.048 C 
ATOM     24  C   UNL     1      -2.188   1.063  -1.221  0.00  0.00    +0.019 C 
ATOM     25  C   UNL     1      -0.753   1.593  -1.232  0.00  0.00    -0.009 C 
ATOM     26  C   UNL     1      -0.013   1.086   0.008  0.00  0.00    +0.007 C 
ATOM     27  C   UNL     1      -0.729   1.579   1.267  0.00  0.00    -0.009 C 
ATOM     28  C   UNL     1      -2.164   1.050   1.278  0.00  0.00    +0.019 C 
ATOM     29  C   UNL     1      -0.750   3.109   1.275  0.00  0.00    +0.007 C 
ATOM     30  C   UNL     1      -1.490   3.616   0.036  0.00  0.00    -0.009 C 
ATOM     31  C   UNL     1      -0.773   3.123  -1.223  0.00  0.00    +0.007 C 
ATOM     32  C   UNL     1      -2.925   3.086   0.047  0.00  0.00    +0.019 C 
ENDBRANCH  20  23
ENDBRANCH  18  19
ENDBRANCH  17  18
ENDBRANCH   2  17
TORSDOF 6
