REMARK  Name = ZINC18372773
REMARK  7 active torsions:
REMARK  status: ('A' for Active; 'I' for Inactive)
REMARK    1  A    between atoms: C_4  and  N_7
REMARK    2  A    between atoms: C_8  and  C_10
REMARK    3  A    between atoms: C_10  and  O_11
REMARK    4  A    between atoms: O_11  and  C_12
REMARK    5  A    between atoms: C_12  and  C_14
REMARK    6  A    between atoms: C_17  and  O_33
REMARK    7  A    between atoms: C_21  and  C_23
REMARK                            x       y       z     vdW  Elec       q    Type
REMARK                         _______ _______ _______ _____ _____    ______ ____
ROOT
ATOM      1  C   UNL     1       5.732  -6.232   0.545  0.00  0.00    +0.187 C 
ATOM      2  C   UNL     1       5.066  -6.376   1.929  0.00  0.00    +0.066 C 
ATOM      3  C   UNL     1       5.792  -7.604   2.538  0.00  0.00    +0.134 C 
ATOM      4  C   UNL     1       7.226  -7.425   1.983  0.00  0.00    +0.140 C 
ATOM      5  N   UNL     1       7.040  -6.901   0.614  0.00  0.00    -0.285 N 
ATOM      6  C   UNL     1       7.919  -7.015  -0.401  0.00  0.00    +0.223 C 
ATOM      7  O   UNL     1       7.696  -6.468  -1.460  0.00  0.00    -0.275 OA
ENDROOT
BRANCH   6   8
ATOM      8  C   UNL     1       9.179  -7.821  -0.219  0.00  0.00    +0.048 C 
ATOM      9  C   UNL     1       8.817  -9.293  -0.009  0.00  0.00    +0.019 C 
ATOM     10  C   UNL     1      10.096 -10.111   0.175  0.00  0.00    -0.009 C 
ATOM     11  C   UNL     1      10.973  -9.975  -1.071  0.00  0.00    +0.007 C 
ATOM     12  C   UNL     1      11.335  -8.503  -1.282  0.00  0.00    -0.009 C 
ATOM     13  C   UNL     1      10.056  -7.684  -1.466  0.00  0.00    +0.019 C 
ATOM     14  C   UNL     1      12.100  -7.987  -0.061  0.00  0.00    +0.007 C 
ATOM     15  C   UNL     1      11.223  -8.123   1.185  0.00  0.00    -0.009 C 
ATOM     16  C   UNL     1      10.861  -9.595   1.395  0.00  0.00    +0.007 C 
ATOM     17  C   UNL     1       9.944  -7.305   1.001  0.00  0.00    +0.019 C 
ENDBRANCH   6   8
BRANCH   1  18
ATOM     18  C   UNL     1       5.919  -4.774   0.214  0.00  0.00    +0.328 C 
ATOM     19  O   UNL     1       7.030  -4.330   0.046  0.00  0.00    -0.249 OA
BRANCH  18  20
ATOM     20  O   UNL     1       4.851  -3.968   0.107  0.00  0.00    -0.454 OA
BRANCH  20  21
ATOM     21  C   UNL     1       5.102  -2.597  -0.209  0.00  0.00    +0.328 C 
BRANCH  21  23
ATOM     22  N   UNL     1       3.785  -0.535  -0.574  0.00  0.00    -0.283 N 
ATOM     23  C   UNL     1       3.794  -1.852  -0.287  0.00  0.00    +0.255 C 
ATOM     24  O   UNL     1       2.750  -2.438  -0.093  0.00  0.00    -0.272 OA
ATOM     25  H   UNL     1       4.610  -0.085  -0.814  0.00  0.00    +0.155 HD
BRANCH  22  29
ATOM     26  C   UNL     1       0.213   1.604  -0.430  0.00  0.00    +0.000 A 
ATOM     27  C   UNL     1       0.419   0.545   0.435  0.00  0.00    +0.002 A 
ATOM     28  C   UNL     1       1.602  -0.166   0.390  0.00  0.00    +0.023 A 
ATOM     29  C   UNL     1       2.585   0.183  -0.526  0.00  0.00    +0.033 A 
ATOM     30  C   UNL     1       2.376   1.247  -1.394  0.00  0.00    +0.023 A 
ATOM     31  C   UNL     1       1.190   1.954  -1.343  0.00  0.00    +0.002 A 
ENDBRANCH  22  29
ENDBRANCH  21  23
ENDBRANCH  20  21
ENDBRANCH  18  20
ENDBRANCH   1  18
BRANCH   3  32
ATOM     32  O   UNL     1       5.210  -8.825   2.074  0.00  0.00    -0.390 OA
ATOM     33  H   UNL     1       5.631  -9.620   2.428  0.00  0.00    +0.210 HD
ENDBRANCH   3  32
TORSDOF 7
