REMARK  Name = ZINC41021089
REMARK  9 active torsions:
REMARK  status: ('A' for Active; 'I' for Inactive)
REMARK    1  A    between atoms: C_1  and  C_2
REMARK    2  A    between atoms: C_2  and  C_3
REMARK    3  A    between atoms: C_3  and  S_4
REMARK    4  A    between atoms: S_4  and  C_5
REMARK    5  A    between atoms: C_10  and  C_26
REMARK    6  A    between atoms: C_12  and  C_16
REMARK    7  A    between atoms: C_13  and  C_15
REMARK    8  A    between atoms: N_18  and  C_19
REMARK    9  A    between atoms: C_23  and  C_25
REMARK                            x       y       z     vdW  Elec       q    Type
REMARK                         _______ _______ _______ _____ _____    ______ ____
ROOT
ATOM      1  C   UNL     1       1.565  -2.826  -2.746  0.00  0.00    +0.210 A 
ATOM      2  N   UNL     1       2.027  -1.915  -3.614  0.00  0.00    -0.187 NA
ATOM      3  C   UNL     1       2.611  -2.520  -4.612  0.00  0.00    +0.219 A 
ATOM      4  N   UNL     1       2.528  -3.857  -4.402  0.00  0.00    -0.220 N 
ATOM      5  N   UNL     1       1.858  -4.029  -3.191  0.00  0.00    -0.141 NA
ATOM      6  C   UNL     1       3.067  -4.855  -5.322  0.00  0.00    +0.177 C 
ATOM      7  C   UNL     1       3.955  -4.178  -6.331  0.00  0.00    +0.060 C 
ATOM      8  C   UNL     1       3.999  -2.848  -6.493  0.00  0.00    +0.018 C 
ATOM      9  N   UNL     1       3.237  -1.993  -5.734  0.00  0.00    -0.287 N 
ATOM     10  C   UNL     1       4.914  -2.271  -7.542  0.00  0.00    +0.061 C 
ATOM     11  H   UNL     1       3.140  -1.058  -5.973  0.00  0.00    +0.155 HD
ENDROOT
BRANCH   6  12
ATOM     12  C   UNL     1       1.932  -5.546  -6.033  0.00  0.00    -0.018 A 
ATOM     13  C   UNL     1       1.059  -4.814  -6.816  0.00  0.00    +0.007 A 
ATOM     14  C   UNL     1       0.019  -5.448  -7.470  0.00  0.00    +0.015 A 
ATOM     15  C   UNL     1      -0.148  -6.815  -7.340  0.00  0.00    +0.018 A 
ATOM     16  C   UNL     1       0.726  -7.547  -6.556  0.00  0.00    +0.015 A 
ATOM     17  C   UNL     1       1.769  -6.913  -5.908  0.00  0.00    +0.007 A 
ATOM     18 BR   UNL     1      -1.571  -7.682  -8.233  0.00  0.00    -0.050 Br
ENDBRANCH   6  12
BRANCH   7  19
ATOM     19  C   UNL     1       4.783  -4.984  -7.148  0.00  0.00    +0.248 C 
ATOM     20  O   UNL     1       5.831  -5.421  -6.709  0.00  0.00    -0.270 OA
ATOM     21  N   UNL     1       4.411  -5.268  -8.412  0.00  0.00    -0.282 N 
ATOM     22  H   UNL     1       3.620  -4.853  -8.790  0.00  0.00    +0.155 HD
BRANCH  21  23
ATOM     23  C   UNL     1       5.165  -6.162  -9.179  0.00  0.00    +0.034 A 
ATOM     24  C   UNL     1       5.924  -7.145  -8.556  0.00  0.00    +0.023 A 
ATOM     25  C   UNL     1       6.668  -8.025  -9.317  0.00  0.00    +0.002 A 
ATOM     26  C   UNL     1       6.659  -7.929 -10.696  0.00  0.00    +0.003 A 
ATOM     27  C   UNL     1       5.905  -6.951 -11.319  0.00  0.00    -0.049 A 
ATOM     28  C   UNL     1       5.154  -6.071 -10.565  0.00  0.00    +0.026 A 
ATOM     29  C   UNL     1       5.898  -6.850 -12.822  0.00  0.00    +0.044 C 
ENDBRANCH  21  23
ENDBRANCH   7  19
BRANCH   1  30
ATOM     30  S   UNL     1       0.709  -2.471  -1.248  0.00  0.00    -0.084 S 
BRANCH  30  31
ATOM     31  C   UNL     1       0.623  -0.659  -1.210  0.00  0.00    +0.077 C 
BRANCH  31  33
ATOM     32  C   UNL     1      -0.178   1.319   0.088  0.00  0.00    +0.004 C 
ATOM     33  C   UNL     1      -0.106  -0.209   0.057  0.00  0.00    +0.008 C 
ENDBRANCH  31  33
ENDBRANCH  30  31
ENDBRANCH   1  30
TORSDOF 6
