REMARK  Name = ZINC12642772
REMARK  8 active torsions:
REMARK  status: ('A' for Active; 'I' for Inactive)
REMARK    1  A    between atoms: C_1  and  C_2
REMARK    2  A    between atoms: C_9  and  C_11
REMARK    3  A    between atoms: N_13  and  C_14
REMARK    4  A    between atoms: C_14  and  C_15
REMARK    5  A    between atoms: N_22  and  C_34
REMARK    6  A    between atoms: C_23  and  C_25
REMARK    7  A    between atoms: N_27  and  C_28
REMARK    8  A    between atoms: C_34  and  C_35
REMARK                            x       y       z     vdW  Elec       q    Type
REMARK                         _______ _______ _______ _____ _____    ______ ____
ROOT
ATOM      1  C   UNL     1       0.976   1.915   3.554  0.00  0.00    +0.047 C 
ATOM      2  C   UNL     1       0.899   1.992   2.028  0.00  0.00    +0.098 C 
ATOM      3  C   UNL     1       1.136   3.375   1.408  0.00  0.00    +0.007 C 
ATOM      4  C   UNL     1       1.462   3.134   0.147  0.00  0.00    +0.009 C 
ATOM      5  C   UNL     1       1.485   1.623   0.008  0.00  0.00    +0.127 C 
ATOM      6  O   UNL     1       1.884   1.164   1.279  0.00  0.00    -0.355 OA
ATOM      7  C   UNL     1      -0.004   1.093   0.009  0.00  0.00    +0.128 C 
ATOM      8  C   UNL     1      -0.470   1.570   1.361  0.00  0.00    +0.125 C 
ATOM      9  C   UNL     1      -0.459   1.586  -1.304  0.00  0.00    +0.223 C 
ATOM     10  O   UNL     1      -1.576   1.967  -1.585  0.00  0.00    -0.275 OA
ATOM     11  N   UNL     1       0.623   1.531  -2.149  0.00  0.00    -0.284 N 
ATOM     12  C   UNL     1       1.850   1.171  -1.372  0.00  0.00    +0.198 C 
ENDROOT
BRANCH   8  13
ATOM     13  C   UNL     1      -1.406   2.744   1.227  0.00  0.00    +0.220 C 
ATOM     14  O   UNL     1      -1.239   3.555   0.341  0.00  0.00    -0.275 OA
ATOM     15  N   UNL     1      -2.428   2.892   2.093  0.00  0.00    -0.310 N 
ATOM     16  H   UNL     1      -2.562   2.244   2.802  0.00  0.00    +0.149 HD
BRANCH  15  17
ATOM     17  C   UNL     1      -3.338   4.033   1.963  0.00  0.00    +0.146 C 
BRANCH  17  18
ATOM     18  C   UNL     1      -4.385   3.966   3.045  0.00  0.00    +0.007 A 
ATOM     19  C   UNL     1      -4.358   4.495   4.293  0.00  0.00    +0.013 A 
ATOM     20  C   UNL     1      -5.446   4.306   5.125  0.00  0.00    +0.008 A 
ATOM     21  C   UNL     1      -6.507   3.597   4.668  0.00  0.00    +0.045 A 
ATOM     22  S   UNL     1      -5.986   3.177   3.013  0.00  0.00    -0.100 S 
ENDBRANCH  17  18
ENDBRANCH  15  17
ENDBRANCH   8  13
BRANCH  12  23
ATOM     23  C   UNL     1       2.093  -0.316  -1.405  0.00  0.00    +0.237 C 
ATOM     24  O   UNL     1       1.227  -1.063  -1.810  0.00  0.00    -0.274 OA
ATOM     25  N   UNL     1       3.272  -0.816  -0.986  0.00  0.00    -0.311 N 
ATOM     26  H   UNL     1       3.965  -0.218  -0.662  0.00  0.00    +0.149 HD
BRANCH  25  27
ATOM     27  C   UNL     1       3.508  -2.261  -1.018  0.00  0.00    +0.073 C 
ATOM     28  C   UNL     1       2.952  -2.897   0.257  0.00  0.00    +0.022 C 
ATOM     29  C   UNL     1       3.199  -4.407   0.223  0.00  0.00    +0.002 C 
ATOM     30  C   UNL     1       4.702  -4.676   0.133  0.00  0.00    +0.000 C 
ATOM     31  C   UNL     1       5.258  -4.040  -1.143  0.00  0.00    +0.002 C 
ATOM     32  C   UNL     1       5.012  -2.530  -1.109  0.00  0.00    +0.022 C 
ENDBRANCH  25  27
ENDBRANCH  12  23
BRANCH  11  33
ATOM     33  C   UNL     1       0.582   1.787  -3.591  0.00  0.00    +0.140 C 
BRANCH  33  34
ATOM     34  C   UNL     1       0.309   0.477  -4.333  0.00  0.00    +0.136 C 
ATOM     35  C   UNL     1       0.378   0.715  -5.857  0.00  0.00    +0.035 C 
ATOM     36  C   UNL     1      -0.785  -0.171  -6.382  0.00  0.00    +0.031 C 
ATOM     37  C   UNL     1      -1.804  -0.033  -5.223  0.00  0.00    +0.160 C 
ATOM     38  O   UNL     1      -1.010   0.010  -4.027  0.00  0.00    -0.375 OA
ENDBRANCH  33  34
ENDBRANCH  11  33
TORSDOF 7
