REMARK  Name = ZINC09806247
REMARK  9 active torsions:
REMARK  status: ('A' for Active; 'I' for Inactive)
REMARK    1  A    between atoms: C_1  and  C_2
REMARK    2  A    between atoms: C_5  and  S_8
REMARK    3  A    between atoms: S_8  and  N_11
REMARK    4  A    between atoms: C_15  and  C_17
REMARK    5  A    between atoms: C_17  and  N_18
REMARK    6  A    between atoms: C_19  and  C_21
REMARK    7  A    between atoms: N_23  and  C_24
REMARK    8  A    between atoms: C_28  and  C_31
REMARK    9  A    between atoms: C_29  and  C_30
REMARK                            x       y       z     vdW  Elec       q    Type
REMARK                         _______ _______ _______ _____ _____    ______ ____
ROOT
ATOM      1  C   UNL     1      -0.221   0.306  -7.420  0.00  0.00    +0.125 C 
ENDROOT
BRANCH   1   6
ATOM      2  N   UNL     1      -1.370  -1.626  -8.410  0.00  0.00    -0.172 NA
ATOM      3  C   UNL     1      -2.139  -1.508  -9.662  0.00  0.00    +0.110 C 
ATOM      4  C   UNL     1      -1.103  -1.066 -10.725  0.00  0.00    +0.019 C 
ATOM      5  C   UNL     1      -0.197  -0.109  -9.901  0.00  0.00    +0.023 C 
ATOM      6  C   UNL     1      -0.178  -0.770  -8.507  0.00  0.00    +0.097 C 
BRANCH   2   7
ATOM      7  S   UNL     1      -1.779  -2.568  -7.111  0.00  0.00    +0.061 S 
ATOM      8  O   UNL     1      -2.512  -3.672  -7.624  0.00  0.00    -0.153 OA
ATOM      9  O   UNL     1      -0.597  -2.731  -6.339  0.00  0.00    -0.153 OA
BRANCH   7  14
ATOM     10  C   UNL     1      -5.620   0.630  -3.731  0.00  0.00    +0.044 C 
ATOM     11  C   UNL     1      -4.661  -0.169  -4.574  0.00  0.00    -0.050 A 
ATOM     12  C   UNL     1      -5.144  -1.060  -5.514  0.00  0.00    +0.005 A 
ATOM     13  C   UNL     1      -4.264  -1.793  -6.289  0.00  0.00    +0.029 A 
ATOM     14  C   UNL     1      -2.901  -1.634  -6.123  0.00  0.00    +0.106 A 
ATOM     15  C   UNL     1      -2.417  -0.747  -5.180  0.00  0.00    +0.029 A 
ATOM     16  C   UNL     1      -3.297  -0.011  -4.409  0.00  0.00    +0.005 A 
ENDBRANCH   7  14
ENDBRANCH   2   7
ENDBRANCH   1   6
BRANCH   1  17
ATOM     17  N   UNL     1       0.978   1.143  -7.514  0.00  0.00    -0.306 N 
ATOM     18  C   UNL     1       1.207   2.098  -6.591  0.00  0.00    +0.299 C 
ATOM     19  O   UNL     1       0.377   2.326  -5.735  0.00  0.00    -0.265 OA
ATOM     20  H   UNL     1       1.606   1.009  -8.240  0.00  0.00    +0.149 HD
BRANCH  18  21
ATOM     21  C   UNL     1       2.482   2.875  -6.622  0.00  0.00    +0.303 C 
ATOM     22  O   UNL     1       3.271   2.711  -7.529  0.00  0.00    -0.265 OA
ATOM     23  N   UNL     1       2.756   3.759  -5.642  0.00  0.00    -0.278 N 
ATOM     24  H   UNL     1       2.167   3.830  -4.874  0.00  0.00    +0.155 HD
BRANCH  23  25
ATOM     25  C   UNL     1       3.888   4.573  -5.731  0.00  0.00    +0.037 A 
ATOM     26  C   UNL     1       4.435   4.870  -6.974  0.00  0.00    +0.023 A 
ATOM     27  C   UNL     1       5.556   5.671  -7.058  0.00  0.00    +0.002 A 
ATOM     28  C   UNL     1       6.132   6.181  -5.909  0.00  0.00    +0.004 A 
ATOM     29  C   UNL     1       5.587   5.892  -4.672  0.00  0.00    -0.046 A 
ATOM     30  C   UNL     1       4.465   5.092  -4.580  0.00  0.00    -0.026 A 
ATOM     31  C   UNL     1       3.872   4.777  -3.231  0.00  0.00    +0.046 C 
ATOM     32  C   UNL     1       6.218   6.450  -3.422  0.00  0.00    +0.044 C 
ENDBRANCH  23  25
ENDBRANCH  18  21
ENDBRANCH   1  17
TORSDOF 6
