REMARK  Name = ZINC17026334
REMARK  9 active torsions:
REMARK  status: ('A' for Active; 'I' for Inactive)
REMARK    1  A    between atoms: C_1  and  C_2
REMARK    2  A    between atoms: C_5  and  C_35
REMARK    3  A    between atoms: C_6  and  N_8
REMARK    4  A    between atoms: C_9  and  C_11
REMARK    5  A    between atoms: C_11  and  S_12
REMARK    6  A    between atoms: S_12  and  C_13
REMARK    7  A    between atoms: C_16  and  C_24
REMARK    8  A    between atoms: N_17  and  C_18
REMARK    9  A    between atoms: C_24  and  C_25
REMARK                            x       y       z     vdW  Elec       q    Type
REMARK                         _______ _______ _______ _____ _____    ______ ____
ROOT
ATOM      1  C   UNL     1       0.158   0.934   2.735  0.00  0.00    +0.197 A 
ATOM      2  N   UNL     1       1.220   0.190   2.533  0.00  0.00    -0.122 NA
ATOM      3  N   UNL     1       1.728  -0.163   3.659  0.00  0.00    -0.133 NA
ATOM      4  C   UNL     1       1.023   0.322   4.641  0.00  0.00    +0.144 A 
ATOM      5  N   UNL     1      -0.005   1.040   4.089  0.00  0.00    -0.274 N 
ENDROOT
BRANCH   5   6
ATOM      6  C   UNL     1      -1.013   1.737   4.770  0.00  0.00    +0.050 A 
ATOM      7  C   UNL     1      -0.690   2.831   5.562  0.00  0.00    +0.026 A 
ATOM      8  C   UNL     1      -1.685   3.519   6.227  0.00  0.00    +0.002 A 
ATOM      9  C   UNL     1      -3.002   3.112   6.115  0.00  0.00    +0.000 A 
ATOM     10  C   UNL     1      -3.327   2.020   5.332  0.00  0.00    +0.002 A 
ATOM     11  C   UNL     1      -2.336   1.331   4.659  0.00  0.00    +0.026 A 
ENDBRANCH   5   6
BRANCH   1  12
ATOM     12  S   UNL     1      -0.869   1.655   1.497  0.00  0.00    -0.076 S 
BRANCH  12  13
ATOM     13  C   UNL     1      -0.021   1.073   0.008  0.00  0.00    +0.173 C 
BRANCH  13  15
ATOM     14  N   UNL     1      -0.288   1.272  -2.443  0.00  0.00    -0.285 N 
ATOM     15  C   UNL     1      -0.743   1.582  -1.213  0.00  0.00    +0.227 C 
ATOM     16  O   UNL     1      -1.734   2.271  -1.088  0.00  0.00    -0.275 OA
ATOM     17  H   UNL     1       0.547   0.790  -2.544  0.00  0.00    +0.155 HD
BRANCH  14  23
ATOM     18  C   UNL     1      -4.597   2.456  -4.493  0.00  0.00    +0.044 C 
ATOM     19  C   UNL     1      -3.111   2.227  -4.597  0.00  0.00    -0.049 A 
ATOM     20  C   UNL     1      -2.471   2.386  -5.812  0.00  0.00    +0.004 A 
ATOM     21  C   UNL     1      -1.108   2.176  -5.912  0.00  0.00    +0.005 A 
ATOM     22  C   UNL     1      -0.382   1.807  -4.796  0.00  0.00    -0.029 A 
ATOM     23  C   UNL     1      -1.022   1.646  -3.575  0.00  0.00    +0.037 A 
ATOM     24  C   UNL     1      -2.392   1.853  -3.479  0.00  0.00    +0.027 A 
ATOM     25  C   UNL     1       1.104   1.579  -4.906  0.00  0.00    +0.045 C 
ENDBRANCH  14  23
ENDBRANCH  13  15
ENDBRANCH  12  13
ENDBRANCH   1  12
BRANCH   4  26
ATOM     26  C   UNL     1       1.289   0.130   6.112  0.00  0.00    +0.130 C 
BRANCH  26  27
ATOM     27  C   UNL     1       0.566  -1.101   6.597  0.00  0.00    +0.033 A 
ATOM     28  C   UNL     1       1.209  -2.287   6.655  0.00  0.00    +0.091 A 
ATOM     29  C   UNL     1       0.509  -3.428   7.114  0.00  0.00    +0.254 A 
ATOM     30  O   UNL     1       1.068  -4.508   7.176  0.00  0.00    -0.268 OA
ATOM     31  N   UNL     1      -0.783  -3.308   7.482  0.00  0.00    -0.275 N 
ATOM     32  H   UNL     1      -1.284  -4.110   7.807  0.00  0.00    +0.173 HD
ATOM     33  C   UNL     1      -1.399  -2.114   7.413  0.00  0.00    +0.327 A 
ATOM     34  O   UNL     1      -2.564  -2.021   7.749  0.00  0.00    -0.247 OA
ATOM     35  N   UNL     1      -0.743  -1.020   6.985  0.00  0.00    -0.311 N 
ATOM     36  H   UNL     1      -1.217  -0.140   6.950  0.00  0.00    +0.170 HD
ENDBRANCH  26  27
ENDBRANCH   4  26
TORSDOF 7
