REMARK  Name = ZINC38891445
REMARK  11 active torsions:
REMARK  status: ('A' for Active; 'I' for Inactive)
REMARK    1  A    between atoms: C_1  and  C_2
REMARK    2  A    between atoms: C_2  and  N_3
REMARK    3  A    between atoms: N_3  and  C_4
REMARK    4  A    between atoms: C_4  and  C_5
REMARK    5  A    between atoms: C_6  and  C_8
REMARK    6  A    between atoms: C_13  and  N_14
REMARK    7  A    between atoms: C_15  and  C_17
REMARK    8  A    between atoms: N_22  and  C_24
REMARK    9  A    between atoms: C_24  and  C_25
REMARK   10  A    between atoms: C_27  and  C_30
REMARK   11  A    between atoms: C_33  and  C_36
REMARK                            x       y       z     vdW  Elec       q    Type
REMARK                         _______ _______ _______ _____ _____    ______ ____
ROOT
ATOM      1  C   UNL     1      -4.664  -2.884   5.169  0.00  0.00    +0.059 C 
ATOM      2  C   UNL     1      -5.844  -2.037   4.684  0.00  0.00    +0.009 C 
ATOM      3  C   UNL     1      -7.140  -2.833   4.864  0.00  0.00    -0.018 C 
ATOM      4  C   UNL     1      -7.283  -3.238   6.332  0.00  0.00    -0.078 C 
ATOM      5  N   UNL     1      -6.138  -4.067   6.729  0.00  0.00    +0.386 N 
ATOM      6  C   UNL     1      -4.898  -3.288   6.627  0.00  0.00    -0.065 C 
ATOM      7  H   UNL     1      -6.080  -4.870   6.121  0.00  0.00    -0.081 HD
ENDROOT
BRANCH   1   9
ATOM      8  N   UNL     1      -2.985  -1.613   3.871  0.00  0.00    -0.285 N 
ATOM      9  C   UNL     1      -3.393  -2.081   5.068  0.00  0.00    +0.219 C 
ATOM     10  O   UNL     1      -2.737  -1.855   6.063  0.00  0.00    -0.275 OA
ATOM     11  H   UNL     1      -3.542  -1.737   3.087  0.00  0.00    +0.155 HD
BRANCH   8  17
ATOM     12  C   UNL     1      -0.991  -1.089   2.598  0.00  0.00    +0.058 A 
ATOM     13  C   UNL     1       0.230  -0.417   2.498  0.00  0.00    +0.015 A 
ATOM     14  C   UNL     1       0.670   0.367   3.542  0.00  0.00    +0.001 A 
ATOM     15  C   UNL     1      -0.092   0.495   4.692  0.00  0.00    +0.002 A 
ATOM     16  C   UNL     1      -1.301  -0.163   4.805  0.00  0.00    +0.024 A 
ATOM     17  C   UNL     1      -1.763  -0.954   3.761  0.00  0.00    +0.046 A 
BRANCH  12  19
ATOM     18  N   UNL     1      -1.664  -1.388   0.266  0.00  0.00    -0.298 N 
ATOM     19  C   UNL     1      -1.468  -1.930   1.484  0.00  0.00    +0.248 C 
ATOM     20  O   UNL     1      -1.686  -3.113   1.666  0.00  0.00    -0.270 OA
BRANCH  18  22
ATOM     21  C   UNL     1      -2.535   0.897   0.232  0.00  0.00    +0.024 C 
ATOM     22  C   UNL     1      -1.306   0.011   0.021  0.00  0.00    +0.104 C 
ENDBRANCH  18  22
BRANCH  18  23
ATOM     23  C   UNL     1      -2.234  -2.198  -0.813  0.00  0.00    +0.104 C 
ATOM     24  C   UNL     1      -1.106  -2.888  -1.583  0.00  0.00    +0.024 C 
ENDBRANCH  18  23
ENDBRANCH  12  19
ENDBRANCH   8  17
ENDBRANCH   1   9
BRANCH   5  25
ATOM     25  C   UNL     1      -6.318  -4.518   8.115  0.00  0.00    +0.022 C 
BRANCH  25  26
ATOM     26  C   UNL     1      -7.517  -5.427   8.196  0.00  0.00    +0.211 A 
ATOM     27  N   UNL     1      -7.502  -6.721   8.051  0.00  0.00    -0.193 NA
ATOM     28  C   UNL     1      -8.746  -7.215   8.185  0.00  0.00    +0.202 A 
ATOM     29  N   UNL     1      -9.568  -6.221   8.418  0.00  0.00    -0.056 NA
ATOM     30  O   UNL     1      -8.777  -5.042   8.434  0.00  0.00    -0.340 OA
BRANCH  28  31
ATOM     31  C   UNL     1      -9.126  -8.646   8.084  0.00  0.00    +0.022 A 
ATOM     32  C   UNL     1      -8.152  -9.612   7.836  0.00  0.00    +0.012 A 
ATOM     33  C   UNL     1      -8.510 -10.941   7.743  0.00  0.00    +0.004 A 
ATOM     34  C   UNL     1      -9.833 -11.316   7.895  0.00  0.00    -0.050 A 
ATOM     35  C   UNL     1     -10.803 -10.362   8.142  0.00  0.00    +0.004 A 
ATOM     36  C   UNL     1     -10.455  -9.030   8.243  0.00  0.00    +0.012 A 
ATOM     37  C   UNL     1     -10.218 -12.769   7.792  0.00  0.00    +0.044 C 
ENDBRANCH  28  31
ENDBRANCH  25  26
ENDBRANCH   5  25
TORSDOF 8
