REMARK  Name = ZINC39691328
REMARK  7 active torsions:
REMARK  status: ('A' for Active; 'I' for Inactive)
REMARK    1  A    between atoms: C_10  and  C_11
REMARK    2  A    between atoms: C_11  and  C_12
REMARK    3  A    between atoms: N_14  and  C_15
REMARK    4  A    between atoms: C_15  and  C_16
REMARK    5  A    between atoms: C_16  and  N_17
REMARK    6  A    between atoms: C_18  and  C_20
REMARK    7  A    between atoms: C_31  and  C_33
REMARK                            x       y       z     vdW  Elec       q    Type
REMARK                         _______ _______ _______ _____ _____    ______ ____
ROOT
ATOM      1  N   UNL     1       9.451   2.980   3.471  0.00  0.00    -0.314 N 
ATOM      2  C   UNL     1       9.171   4.082   4.195  0.00  0.00    +0.218 C 
ATOM      3  O   UNL     1       8.451   4.943   3.734  0.00  0.00    -0.275 OA
ATOM      4  H   UNL     1      10.027   2.292   3.839  0.00  0.00    +0.149 HD
ENDROOT
BRANCH   2   5
ATOM      5  C   UNL     1       9.752   4.245   5.575  0.00  0.00    +0.100 C 
ATOM      6  C   UNL     1       8.801   5.077   6.465  0.00  0.00    +0.121 C 
ATOM      7  N   UNL     1       9.700   5.912   7.296  0.00  0.00    -0.296 N 
ATOM      8  C   UNL     1      10.786   6.317   6.371  0.00  0.00    +0.115 C 
ATOM      9  C   UNL     1      11.053   5.063   5.516  0.00  0.00    -0.004 C 
ATOM     10  C   UNL     1      11.360   5.463   4.076  0.00  0.00    -0.010 C 
ATOM     11  C   UNL     1      12.688   6.225   4.034  0.00  0.00    -0.082 C 
ATOM     12  N   UNL     1      13.759   5.374   4.566  0.00  0.00    +0.379 N 
ATOM     13  C   UNL     1      13.503   5.071   5.979  0.00  0.00    -0.082 C 
ATOM     14  C   UNL     1      12.210   4.260   6.103  0.00  0.00    -0.010 C 
ATOM     15  C   UNL     1       9.562   6.230   8.598  0.00  0.00    +0.247 C 
ATOM     16  O   UNL     1       8.683   5.714   9.260  0.00  0.00    -0.270 OA
ATOM     17  H   UNL     1      13.796   4.513   4.040  0.00  0.00    -0.086 HD
ATOM     18  H   UNL     1      14.642   5.855   4.481  0.00  0.00    -0.086 HD
BRANCH  15  19
ATOM     19  C   UNL     1      10.480   7.207   9.221  0.00  0.00    +0.037 A 
ATOM     20  C   UNL     1      11.188   8.110   8.426  0.00  0.00    +0.014 A 
ATOM     21  C   UNL     1      12.043   9.019   9.013  0.00  0.00    +0.021 A 
ATOM     22  C   UNL     1      12.200   9.037  10.389  0.00  0.00    +0.041 A 
ATOM     23  C   UNL     1      11.500   8.144  11.183  0.00  0.00    +0.021 A 
ATOM     24  C   UNL     1      10.639   7.234  10.608  0.00  0.00    +0.014 A 
ATOM     25 CL   UNL     1      13.278  10.184  11.120  0.00  0.00    -0.084 Cl
ENDBRANCH  15  19
ENDBRANCH   2   5
BRANCH   1  26
ATOM     26  C   UNL     1       8.886   2.821   2.129  0.00  0.00    +0.123 C 
BRANCH  26  27
ATOM     27  C   UNL     1       9.357   1.494   1.531  0.00  0.00    +0.123 C 
BRANCH  27  30
ATOM     28  C   UNL     1       9.072   0.234  -0.535  0.00  0.00    +0.217 C 
ATOM     29  O   UNL     1       9.792  -0.627  -0.075  0.00  0.00    -0.275 OA
ATOM     30  N   UNL     1       8.792   1.336   0.189  0.00  0.00    -0.314 N 
ATOM     31  H   UNL     1       8.216   2.024  -0.180  0.00  0.00    +0.149 HD
BRANCH  28  32
ATOM     32  C   UNL     1       8.491   0.071  -1.916  0.00  0.00    +0.131 C 
BRANCH  32  42
ATOM     33  C   UNL     1       6.926  -4.798  -1.689  0.00  0.00    +0.001 A 
ATOM     34  C   UNL     1       6.482  -3.598  -1.134  0.00  0.00    +0.001 A 
ATOM     35  C   UNL     1       7.129  -2.428  -1.388  0.00  0.00    +0.009 A 
ATOM     36  C   UNL     1       8.261  -2.425  -2.221  0.00  0.00    -0.014 A 
ATOM     37  C   UNL     1       8.712  -3.644  -2.784  0.00  0.00    -0.018 A 
ATOM     38  C   UNL     1       8.018  -4.833  -2.500  0.00  0.00    +0.008 A 
ATOM     39  C   UNL     1       9.844  -3.642  -3.617  0.00  0.00    +0.008 A 
ATOM     40  C   UNL     1      10.491  -2.471  -3.870  0.00  0.00    +0.001 A 
ATOM     41  C   UNL     1      10.047  -1.272  -3.315  0.00  0.00    +0.005 A 
ATOM     42  C   UNL     1       8.954  -1.236  -2.505  0.00  0.00    -0.031 A 
ENDBRANCH  32  42
ENDBRANCH  28  32
ENDBRANCH  27  30
ENDBRANCH  26  27
ENDBRANCH   1  26
TORSDOF 7
