REMARK  Name = ZINC13489293
REMARK  12 active torsions:
REMARK  status: ('A' for Active; 'I' for Inactive)
REMARK    1  A    between atoms: C_1  and  C_2
REMARK    2  A    between atoms: C_3  and  C_9
REMARK    3  A    between atoms: C_6  and  N_8
REMARK    4  A    between atoms: C_9  and  N_10
REMARK    5  A    between atoms: C_11  and  C_13
REMARK    6  A    between atoms: N_22  and  C_25
REMARK    7  A    between atoms: C_25  and  C_27
REMARK    8  A    between atoms: C_25  and  C_35
REMARK    9  A    between atoms: C_27  and  S_28
REMARK   10  A    between atoms: S_28  and  C_29
REMARK   11  A    between atoms: C_35  and  O_37
REMARK   12  A    between atoms: O_37  and  C_38
REMARK                            x       y       z     vdW  Elec       q    Type
REMARK                         _______ _______ _______ _____ _____    ______ ____
ROOT
ATOM      1  C   UNL     1       2.959   1.754  -4.246  0.00  0.00    +0.219 C 
ATOM      2  C   UNL     1       3.894   0.575  -4.394  0.00  0.00    +0.006 C 
ATOM      3  C   UNL     1       4.045  -0.060  -5.525  0.00  0.00    -0.005 C 
ATOM      4  C   UNL     1       3.296   0.333  -6.778  0.00  0.00    +0.174 C 
ATOM      5  N   UNL     1       3.120   1.788  -6.749  0.00  0.00    -0.226 N 
ATOM      6  N   UNL     1       2.956   2.478  -5.521  0.00  0.00    -0.215 N 
ATOM      7  C   UNL     1       2.820   3.772  -5.808  0.00  0.00    +0.350 A 
ATOM      8  O   UNL     1       2.660   4.668  -5.003  0.00  0.00    -0.245 OA
ATOM      9  N   UNL     1       2.891   3.914  -7.150  0.00  0.00    -0.229 N 
ATOM     10  C   UNL     1       3.075   2.698  -7.720  0.00  0.00    +0.349 A 
ATOM     11  O   UNL     1       3.180   2.476  -8.911  0.00  0.00    -0.245 OA
ENDROOT
BRANCH   1  13
ATOM     12  N   UNL     1       1.341   0.557  -2.809  0.00  0.00    -0.309 N 
ATOM     13  C   UNL     1       1.568   1.267  -3.931  0.00  0.00    +0.242 C 
ATOM     14  O   UNL     1       0.653   1.516  -4.687  0.00  0.00    -0.273 OA
ATOM     15  H   UNL     1       2.073   0.358  -2.204  0.00  0.00    +0.149 HD
BRANCH  12  16
ATOM     16  C   UNL     1      -0.011   0.084  -2.502  0.00  0.00    +0.141 C 
BRANCH  16  19
ATOM     17  C   UNL     1      -0.018   1.503   0.010  0.00  0.00    +0.063 C 
ATOM     18  C   UNL     1       0.002  -0.004   0.002  0.00  0.00    +0.019 A 
ATOM     19  C   UNL     1       0.005  -0.679  -1.202  0.00  0.00    -0.011 A 
ATOM     20  C   UNL     1       0.024  -2.067  -1.204  0.00  0.00    +0.010 A 
ATOM     21  C   UNL     1       0.039  -2.729   0.011  0.00  0.00    +0.041 A 
ATOM     22  C   UNL     1       0.035  -1.985   1.186  0.00  0.00    +0.094 A 
ATOM     23  N   UNL     1       0.022  -0.661   1.146  0.00  0.00    -0.347 N 
ATOM     24  H   UNL     1       0.023  -0.163   1.978  0.00  0.00    +0.167 HD
BRANCH  22  25
ATOM     25  N   UNL     1       0.049  -2.637   2.414  0.00  0.00    -0.345 N 
ATOM     26  H   UNL     1       0.062  -3.606   2.448  0.00  0.00    +0.144 HD
ATOM     27  H   UNL     1       0.046  -2.122   3.236  0.00  0.00    +0.144 HD
ENDBRANCH  22  25
ENDBRANCH  16  19
ENDBRANCH  12  16
ENDBRANCH   1  13
BRANCH   9  28
ATOM     28  C   UNL     1       2.786   5.184  -7.874  0.00  0.00    +0.215 C 
BRANCH  28  29
ATOM     29  C   UNL     1       4.051   5.420  -8.658  0.00  0.00    +0.331 C 
ATOM     30  O   UNL     1       4.948   4.612  -8.616  0.00  0.00    -0.248 OA
BRANCH  29  31
ATOM     31  O   UNL     1       4.182   6.530  -9.403  0.00  0.00    -0.466 OA
ATOM     32  C   UNL     1       5.407   6.689 -10.120  0.00  0.00    +0.280 C 
ENDBRANCH  29  31
ENDBRANCH  28  29
BRANCH  28  33
ATOM     33  C   UNL     1       1.595   5.128  -8.832  0.00  0.00    +0.106 C 
BRANCH  33  34
ATOM     34  S   UNL     1       0.058   4.991  -7.879  0.00  0.00    -0.155 S 
BRANCH  34  35
ATOM     35  C   UNL     1      -1.240   4.936  -9.145  0.00  0.00    +0.047 C 
ATOM     36  C   UNL     1      -1.274   6.267  -9.899  0.00  0.00    +0.014 C 
ATOM     37  C   UNL     1      -2.369   6.221 -10.966  0.00  0.00    +0.001 C 
ATOM     38  C   UNL     1      -3.723   5.979 -10.297  0.00  0.00    +0.000 C 
ATOM     39  C   UNL     1      -3.690   4.648  -9.543  0.00  0.00    +0.001 C 
ATOM     40  C   UNL     1      -2.595   4.694  -8.476  0.00  0.00    +0.014 C 
ENDBRANCH  34  35
ENDBRANCH  33  34
ENDBRANCH  28  33
ENDBRANCH   9  28
TORSDOF 10
