REMARK  Name = ZINC57398622
REMARK  6 active torsions:
REMARK  status: ('A' for Active; 'I' for Inactive)
REMARK    1  A    between atoms: C_3  and  O_25
REMARK    2  A    between atoms: C_4  and  N_22
REMARK    3  A    between atoms: C_6  and  C_7
REMARK    4  A    between atoms: C_8  and  C_9
REMARK    5  A    between atoms: C_8  and  C_11
REMARK    6  A    between atoms: N_13  and  C_14
REMARK                            x       y       z     vdW  Elec       q    Type
REMARK                         _______ _______ _______ _____ _____    ______ ____
ROOT
ATOM      1  C   UNL     1      -1.334  -0.769  -0.460  0.00  0.00    +0.032 C 
ATOM      2  C   UNL     1      -2.488  -0.108  -0.102  0.00  0.00    +0.114 C 
ENDROOT
BRANCH   1   8
ATOM      3  C   UNL     1      -0.188   1.255  -1.334  0.00  0.00    +0.011 A 
ATOM      4  C   UNL     1       0.956   1.957  -1.589  0.00  0.00    +0.048 A 
ATOM      5  C   UNL     1       2.194   1.417  -1.259  0.00  0.00    +0.147 A 
ATOM      6  C   UNL     1       2.277   0.161  -0.667  0.00  0.00    +0.168 A 
ATOM      7  C   UNL     1       1.141  -0.550  -0.407  0.00  0.00    +0.044 A 
ATOM      8  C   UNL     1      -0.112  -0.012  -0.737  0.00  0.00    -0.021 A 
BRANCH   6   9
ATOM      9  N   UNL     1       3.599  -0.406  -0.319  0.00  0.00    +0.060 N 
ATOM     10  O   UNL     1       3.673  -1.498   0.195  0.00  0.00    -0.126 OA
ATOM     11  O   UNL     1       4.606   0.223  -0.550  0.00  0.00    -0.126 OA
ENDBRANCH   6   9
BRANCH   5  12
ATOM     12  O   UNL     1       3.327   2.119  -1.516  0.00  0.00    -0.504 OA
ATOM     13  H   UNL     1       3.605   2.696  -0.791  0.00  0.00    +0.292 HD
ENDBRANCH   5  12
ENDBRANCH   1   8
BRANCH   2  14
ATOM     14  C   UNL     1      -3.754  -0.848   0.016  0.00  0.00    +0.259 C 
ATOM     15  O   UNL     1      -3.781  -2.045  -0.202  0.00  0.00    -0.269 OA
ATOM     16  N   UNL     1      -4.883  -0.201   0.366  0.00  0.00    -0.281 N 
ATOM     17  H   UNL     1      -4.878   0.764   0.467  0.00  0.00    +0.155 HD
BRANCH  16  18
ATOM     18  C   UNL     1      -6.063  -0.920   0.584  0.00  0.00    +0.035 A 
ATOM     19  C   UNL     1      -7.285  -0.386   0.197  0.00  0.00    +0.026 A 
ATOM     20  C   UNL     1      -8.449  -1.097   0.413  0.00  0.00    +0.041 A 
ATOM     21  C   UNL     1      -8.399  -2.343   1.016  0.00  0.00    +0.142 A 
ATOM     22  C   UNL     1      -7.181  -2.878   1.404  0.00  0.00    +0.078 A 
ATOM     23  C   UNL     1      -6.013  -2.172   1.183  0.00  0.00    +0.046 A 
ATOM     24 CL   UNL     1      -7.121  -4.440   2.160  0.00  0.00    -0.081 Cl
ATOM     25  F   UNL     1      -9.538  -3.037   1.226  0.00  0.00    -0.204 F 
ENDBRANCH  16  18
ENDBRANCH   2  14
BRANCH   2  26
ATOM     26  C   UNL     1      -2.456   1.301   0.154  0.00  0.00    +0.104 C 
ATOM     27  N   UNL     1      -2.430   2.418   0.358  0.00  0.00    -0.191 NA
ENDBRANCH   2  26
TORSDOF 6
