REMARK  Name = ZINC06155149
REMARK  7 active torsions:
REMARK  status: ('A' for Active; 'I' for Inactive)
REMARK    1  A    between atoms: C_4  and  C_7
REMARK    2  A    between atoms: C_7  and  N_8
REMARK    3  A    between atoms: C_12  and  C_14
REMARK    4  A    between atoms: C_14  and  O_15
REMARK    5  A    between atoms: O_15  and  C_16
REMARK    6  A    between atoms: C_16  and  C_18
REMARK    7  A    between atoms: C_18  and  C_19
REMARK                            x       y       z     vdW  Elec       q    Type
REMARK                         _______ _______ _______ _____ _____    ______ ____
ROOT
ATOM      1  O   UNL     1       4.234   5.842  -1.667  0.00  0.00    -0.455 OA
ENDROOT
BRANCH   1   2
ATOM      2  C   UNL     1       2.928   6.015  -1.409  0.00  0.00    +0.312 C 
ATOM      3  O   UNL     1       2.131   6.030  -2.317  0.00  0.00    -0.250 OA
BRANCH   2   4
ATOM      4  C   UNL     1       2.457   6.189   0.011  0.00  0.00    +0.159 C 
BRANCH   4   5
ATOM      5  C   UNL     1       0.960   6.363   0.026  0.00  0.00    +0.009 A 
ATOM      6  C   UNL     1       0.282   7.522   0.038  0.00  0.00    +0.200 A 
ATOM      7  O   UNL     1      -1.039   7.280   0.050  0.00  0.00    -0.463 OA
ATOM      8  C   UNL     1      -1.285   5.954   0.045  0.00  0.00    +0.136 A 
ATOM      9  C   UNL     1      -0.047   5.304   0.030  0.00  0.00    +0.032 A 
ATOM     10  C   UNL     1      -0.006   3.847   0.023  0.00  0.00    -0.007 A 
ATOM     11  C   UNL     1       1.202   3.142   0.007  0.00  0.00    +0.009 A 
ATOM     12  C   UNL     1       1.189   1.778   0.000  0.00  0.00    +0.001 A 
ATOM     13  C   UNL     1      -0.013   1.076   0.008  0.00  0.00    +0.001 A 
ATOM     14  C   UNL     1      -1.207   1.731   0.017  0.00  0.00    +0.008 A 
ATOM     15  C   UNL     1      -1.230   3.135   0.031  0.00  0.00    -0.017 A 
ATOM     16  C   UNL     1      -2.445   3.846   0.045  0.00  0.00    +0.012 A 
ATOM     17  C   UNL     1      -2.465   5.202   0.052  0.00  0.00    +0.047 A 
ENDBRANCH   4   5
ENDBRANCH   2   4
ENDBRANCH   1   2
BRANCH   1  18
ATOM     18  C   UNL     1       4.616   5.681  -3.059  0.00  0.00    +0.328 C 
BRANCH  18  23
ATOM     19  N   UNL     1       8.614   5.003  -5.641  0.00  0.00    -0.295 N 
ATOM     20  C   UNL     1       8.029   5.171  -4.439  0.00  0.00    +0.306 C 
ATOM     21  O   UNL     1       8.707   5.178  -3.429  0.00  0.00    -0.252 OA
ATOM     22  N   UNL     1       6.694   5.333  -4.355  0.00  0.00    -0.237 N 
ATOM     23  C   UNL     1       6.109   5.501  -3.152  0.00  0.00    +0.258 C 
ATOM     24  O   UNL     1       6.785   5.508  -2.146  0.00  0.00    -0.272 OA
ATOM     25  H   UNL     1       8.073   4.997  -6.447  0.00  0.00    +0.151 HD
ATOM     26  H   UNL     1       6.153   5.327  -5.160  0.00  0.00    +0.159 HD
BRANCH  19  27
ATOM     27  C   UNL     1      10.066   4.828  -5.732  0.00  0.00    +0.141 C 
BRANCH  27  31
ATOM     28  C   UNL     1      11.189   4.354  -9.826  0.00  0.00    +0.000 A 
ATOM     29  C   UNL     1      11.144   5.616  -9.263  0.00  0.00    +0.000 A 
ATOM     30  C   UNL     1      10.780   5.769  -7.939  0.00  0.00    +0.005 A 
ATOM     31  C   UNL     1      10.462   4.660  -7.176  0.00  0.00    -0.030 A 
ATOM     32  C   UNL     1      10.512   3.398  -7.738  0.00  0.00    +0.005 A 
ATOM     33  C   UNL     1      10.871   3.245  -9.064  0.00  0.00    +0.000 A 
ENDBRANCH  27  31
ENDBRANCH  19  27
ENDBRANCH  18  23
ENDBRANCH   1  18
TORSDOF 7
