REMARK  Name = ZINC39652693
REMARK  11 active torsions:
REMARK  status: ('A' for Active; 'I' for Inactive)
REMARK    1  A    between atoms: C_1  and  C_2
REMARK    2  A    between atoms: C_2  and  O_3
REMARK    3  A    between atoms: O_3  and  C_4
REMARK    4  A    between atoms: C_9  and  C_10
REMARK    5  A    between atoms: C_10  and  C_11
REMARK    6  A    between atoms: C_11  and  N_12
REMARK    7  A    between atoms: C_13  and  C_15
REMARK    8  A    between atoms: C_26  and  C_28
REMARK    9  A    between atoms: C_33  and  O_34
REMARK   10  A    between atoms: O_34  and  C_35
REMARK   11  A    between atoms: C_35  and  C_36
REMARK                            x       y       z     vdW  Elec       q    Type
REMARK                         _______ _______ _______ _____ _____    ______ ____
ROOT
ATOM      1  C   UNL     1       5.767   1.370  -4.955  0.00  0.00    +0.100 C 
ATOM      2  C   UNL     1       4.861   2.608  -5.137  0.00  0.00    +0.121 C 
ATOM      3  N   UNL     1       5.445   3.635  -4.242  0.00  0.00    -0.296 N 
ATOM      4  C   UNL     1       6.910   3.460  -4.388  0.00  0.00    +0.115 C 
ATOM      5  C   UNL     1       7.112   1.934  -4.467  0.00  0.00    -0.004 C 
ATOM      6  C   UNL     1       8.218   1.598  -5.462  0.00  0.00    -0.010 C 
ATOM      7  C   UNL     1       9.556   2.118  -4.927  0.00  0.00    -0.082 C 
ATOM      8  N   UNL     1       9.837   1.500  -3.626  0.00  0.00    +0.379 N 
ATOM      9  C   UNL     1       8.818   1.904  -2.649  0.00  0.00    -0.082 C 
ATOM     10  C   UNL     1       7.450   1.375  -3.088  0.00  0.00    -0.010 C 
ATOM     11  C   UNL     1       4.792   4.526  -3.470  0.00  0.00    +0.250 C 
ATOM     12  O   UNL     1       3.580   4.482  -3.384  0.00  0.00    -0.270 OA
ATOM     13  H   UNL     1       9.829   0.496  -3.723  0.00  0.00    -0.086 HD
ATOM     14  H   UNL     1      10.746   1.797  -3.304  0.00  0.00    -0.086 HD
ENDROOT
BRANCH  11  15
ATOM     15  C   UNL     1       5.548   5.555  -2.731  0.00  0.00    +0.078 A 
ATOM     16  C   UNL     1       6.699   6.117  -3.288  0.00  0.00    +0.017 A 
ATOM     17  C   UNL     1       7.401   7.078  -2.593  0.00  0.00    +0.001 A 
ATOM     18  C   UNL     1       6.969   7.490  -1.342  0.00  0.00    +0.004 A 
ATOM     19  C   UNL     1       5.832   6.944  -0.780  0.00  0.00    +0.046 A 
ATOM     20  C   UNL     1       5.111   5.979  -1.469  0.00  0.00    +0.133 A 
BRANCH  20  21
ATOM     21  O   UNL     1       3.992   5.445  -0.920  0.00  0.00    -0.491 OA
BRANCH  21  22
ATOM     22  C   UNL     1       3.608   5.926   0.370  0.00  0.00    +0.226 C 
ATOM     23  C   UNL     1       2.332   5.213   0.822  0.00  0.00    +0.048 C 
ENDBRANCH  21  22
ENDBRANCH  20  21
ENDBRANCH  11  15
BRANCH   1  25
ATOM     24  N   UNL     1       5.397  -0.888  -4.016  0.00  0.00    -0.315 N 
ATOM     25  C   UNL     1       5.183   0.439  -3.924  0.00  0.00    +0.218 C 
ATOM     26  O   UNL     1       4.520   0.885  -3.011  0.00  0.00    -0.275 OA
ATOM     27  H   UNL     1       5.927  -1.244  -4.746  0.00  0.00    +0.149 HD
BRANCH  24  28
ATOM     28  C   UNL     1       4.829  -1.793  -3.013  0.00  0.00    +0.109 C 
BRANCH  28  29
ATOM     29  C   UNL     1       5.219  -3.234  -3.348  0.00  0.00    +0.057 C 
BRANCH  29  35
ATOM     30  C   UNL     1       3.334  -4.626  -2.455  0.00  0.00    +0.124 A 
ATOM     31  C   UNL     1       2.801  -5.487  -1.507  0.00  0.00    +0.046 A 
ATOM     32  C   UNL     1       3.564  -5.879  -0.425  0.00  0.00    +0.004 A 
ATOM     33  C   UNL     1       4.860  -5.415  -0.287  0.00  0.00    +0.000 A 
ATOM     34  C   UNL     1       5.393  -4.556  -1.230  0.00  0.00    +0.007 A 
ATOM     35  C   UNL     1       4.635  -4.165  -2.317  0.00  0.00    -0.004 A 
BRANCH  30  36
ATOM     36  O   UNL     1       2.584  -4.239  -3.521  0.00  0.00    -0.492 OA
BRANCH  36  38
ATOM     37  C   UNL     1       0.570  -4.210  -4.856  0.00  0.00    +0.048 C 
ATOM     38  C   UNL     1       1.253  -4.752  -3.599  0.00  0.00    +0.225 C 
ENDBRANCH  36  38
ENDBRANCH  30  36
ENDBRANCH  29  35
ENDBRANCH  28  29
ENDBRANCH  24  28
ENDBRANCH   1  25
TORSDOF 9
