REMARK  Name = ZINC08891859
REMARK  7 active torsions:
REMARK  status: ('A' for Active; 'I' for Inactive)
REMARK    1  A    between atoms: C_1  and  C_2
REMARK    2  A    between atoms: C_2  and  C_3
REMARK    3  A    between atoms: C_3  and  C_26
REMARK    4  A    between atoms: N_6  and  C_10
REMARK    5  A    between atoms: C_10  and  C_11
REMARK    6  A    between atoms: N_16  and  C_17
REMARK    7  A    between atoms: C_23  and  C_25
REMARK                            x       y       z     vdW  Elec       q    Type
REMARK                         _______ _______ _______ _____ _____    ______ ____
ROOT
ATOM      1  C   UNL     1      -1.710  -6.405   0.618  0.00  0.00    +0.138 C 
ATOM      2  C   UNL     1      -1.986  -4.997   1.109  0.00  0.00    +0.251 C 
ATOM      3  O   UNL     1      -2.051  -4.623   2.260  0.00  0.00    -0.272 OA
ATOM      4  N   UNL     1      -2.145  -4.249  -0.000  0.00  0.00    -0.215 N 
ATOM      5  C   UNL     1      -2.014  -4.981  -1.112  0.00  0.00    +0.310 C 
ATOM      6  O   UNL     1      -2.119  -4.529  -2.236  0.00  0.00    -0.252 OA
ATOM      7  N   UNL     1      -1.749  -6.274  -0.849  0.00  0.00    -0.281 N 
ATOM      8  H   UNL     1      -1.614  -6.982  -1.498  0.00  0.00    +0.152 HD
ENDROOT
BRANCH   1   9
ATOM      9  C   UNL     1      -2.778  -7.353   1.098  0.00  0.00    -0.015 A 
ATOM     10  C   UNL     1      -2.620  -8.023   2.297  0.00  0.00    +0.009 A 
ATOM     11  C   UNL     1      -3.602  -8.888   2.740  0.00  0.00    +0.039 A 
ATOM     12  C   UNL     1      -4.739  -9.093   1.977  0.00  0.00    +0.123 A 
ATOM     13  C   UNL     1      -4.894  -8.427   0.774  0.00  0.00    +0.039 A 
ATOM     14  C   UNL     1      -3.913  -7.557   0.335  0.00  0.00    +0.009 A 
ATOM     15  F   UNL     1      -5.697  -9.944   2.407  0.00  0.00    -0.205 F 
ENDBRANCH   1   9
BRANCH   1  17
ATOM     16  C   UNL     1       0.741  -5.925   0.536  0.00  0.00    +0.007 C 
ATOM     17  C   UNL     1      -0.329  -6.875   1.080  0.00  0.00    +0.037 C 
ENDBRANCH   1  17
BRANCH   4  18
ATOM     18  C   UNL     1      -2.432  -2.813   0.010  0.00  0.00    +0.214 C 
BRANCH  18  19
ATOM     19  C   UNL     1      -1.137  -2.041   0.002  0.00  0.00    +0.238 C 
ATOM     20  O   UNL     1      -0.080  -2.633  -0.011  0.00  0.00    -0.274 OA
ATOM     21  N   UNL     1      -1.156  -0.694   0.009  0.00  0.00    -0.239 N 
ATOM     22  C   UNL     1       0.002  -0.004   0.002  0.00  0.00    +0.306 C 
ATOM     23  O   UNL     1       1.063  -0.597  -0.011  0.00  0.00    -0.252 OA
ATOM     24  N   UNL     1      -0.016   1.344   0.009  0.00  0.00    -0.296 N 
ATOM     25  H   UNL     1      -2.002  -0.220   0.020  0.00  0.00    +0.159 HD
ATOM     26  H   UNL     1      -0.863   1.817   0.016  0.00  0.00    +0.151 HD
BRANCH  24  27
ATOM     27  C   UNL     1       1.242   2.093   0.001  0.00  0.00    +0.077 C 
ATOM     28  C   UNL     1       1.731   2.254  -1.440  0.00  0.00    +0.022 C 
ATOM     29  C   UNL     1       3.046   3.037  -1.448  0.00  0.00    +0.002 C 
ATOM     30  C   UNL     1       2.821   4.418  -0.829  0.00  0.00    +0.000 C 
ATOM     31  C   UNL     1       2.332   4.257   0.612  0.00  0.00    +0.005 C 
ATOM     32  C   UNL     1       1.018   3.474   0.621  0.00  0.00    +0.006 C 
ATOM     33  C   UNL     1       0.529   3.313   2.062  0.00  0.00    +0.009 C 
ENDBRANCH  24  27
ENDBRANCH  18  19
ENDBRANCH   4  18
TORSDOF 5
