REMARK  Name = ZINC55472741
REMARK  7 active torsions:
REMARK  status: ('A' for Active; 'I' for Inactive)
REMARK    1  A    between atoms: C_1  and  C_2
REMARK    2  A    between atoms: N_4  and  C_5
REMARK    3  A    between atoms: C_8  and  C_11
REMARK    4  A    between atoms: C_11  and  N_12
REMARK    5  A    between atoms: N_12  and  C_13
REMARK    6  A    between atoms: C_13  and  C_14
REMARK    7  A    between atoms: C_17  and  C_19
REMARK                            x       y       z     vdW  Elec       q    Type
REMARK                         _______ _______ _______ _____ _____    ______ ____
ROOT
ATOM      1  N   UNL     1      -1.694  -6.755  -1.013  0.00  0.00    +0.386 N 
ATOM      2  H   UNL     1      -2.183  -6.366  -0.220  0.00  0.00    -0.085 HD
ATOM      3  H   UNL     1      -2.120  -6.425  -1.866  0.00  0.00    -0.085 HD
ENDROOT
BRANCH   1   4
ATOM      4  C   UNL     1      -0.287  -6.334  -0.974  0.00  0.00    -0.046 C 
BRANCH   4   8
ATOM      5  C   UNL     1      -0.071  -2.068  -1.121  0.00  0.00    +0.033 A 
ATOM      6  C   UNL     1      -0.152  -2.719   0.103  0.00  0.00    +0.023 A 
ATOM      7  C   UNL     1      -0.222  -4.098   0.147  0.00  0.00    +0.003 A 
ATOM      8  C   UNL     1      -0.211  -4.830  -1.026  0.00  0.00    -0.064 A 
ATOM      9  C   UNL     1      -0.130  -4.185  -2.246  0.00  0.00    +0.003 A 
ATOM     10  C   UNL     1      -0.066  -2.806  -2.297  0.00  0.00    +0.023 A 
BRANCH   5  14
ATOM     11  C   UNL     1      -0.617   1.507  -2.165  0.00  0.00    +0.109 C 
ATOM     12  C   UNL     1      -0.604  -0.000  -2.169  0.00  0.00    +0.214 C 
ATOM     13  O   UNL     1      -1.137  -0.609  -3.073  0.00  0.00    -0.276 OA
ATOM     14  N   UNL     1       0.000  -0.672  -1.169  0.00  0.00    -0.286 N 
ATOM     15  H   UNL     1       0.484  -0.187  -0.482  0.00  0.00    +0.155 HD
ENDBRANCH   5  14
ENDBRANCH   4   8
ENDBRANCH   1   4
BRANCH   1  16
ATOM     16  C   UNL     1      -1.768  -8.221  -0.962  0.00  0.00    -0.006 C 
BRANCH  16  17
ATOM     17  C   UNL     1      -3.212  -8.652  -1.002  0.00  0.00    +0.089 A 
ATOM     18  C   UNL     1      -3.921  -8.922  -2.115  0.00  0.00    +0.043 A 
ATOM     19  C   UNL     1      -5.218  -9.286  -1.700  0.00  0.00    +0.050 A 
ATOM     20  C   UNL     1      -5.229  -9.217  -0.343  0.00  0.00    +0.135 A 
ATOM     21  O   UNL     1      -4.003  -8.838   0.068  0.00  0.00    -0.462 OA
BRANCH  20  22
ATOM     22  C   UNL     1      -6.382  -9.515   0.532  0.00  0.00    +0.017 A 
ATOM     23  C   UNL     1      -7.599  -9.912  -0.025  0.00  0.00    +0.012 A 
ATOM     24  C   UNL     1      -8.673 -10.188   0.797  0.00  0.00    +0.016 A 
ATOM     25  C   UNL     1      -8.545 -10.071   2.170  0.00  0.00    +0.018 A 
ATOM     26  C   UNL     1      -7.340  -9.677   2.728  0.00  0.00    +0.016 A 
ATOM     27  C   UNL     1      -6.258  -9.405   1.918  0.00  0.00    +0.012 A 
ATOM     28 BR   UNL     1     -10.022 -10.450   3.289  0.00  0.00    -0.050 Br
ENDBRANCH  20  22
ENDBRANCH  16  17
ENDBRANCH   1  16
TORSDOF 6
