REMARK  Name = ZINC09289559
REMARK  5 active torsions:
REMARK  status: ('A' for Active; 'I' for Inactive)
REMARK    1  A    between atoms: C_4  and  C_7
REMARK    2  A    between atoms: C_8  and  C_17
REMARK    3  A    between atoms: N_27  and  C_28
REMARK    4  A    between atoms: C_28  and  C_29
REMARK    5  A    between atoms: C_34  and  C_37
REMARK                            x       y       z     vdW  Elec       q    Type
REMARK                         _______ _______ _______ _____ _____    ______ ____
ROOT
ATOM      1  C   UNL     1       4.267   3.274  -0.021  0.00  0.00    +0.141 C 
ATOM      2  C   UNL     1       4.046   3.903  -1.375  0.00  0.00    -0.010 A 
ATOM      3  C   UNL     1       4.500   3.603  -2.639  0.00  0.00    +0.006 A 
ATOM      4  C   UNL     1       4.114   4.384  -3.715  0.00  0.00    +0.000 A 
ATOM      5  C   UNL     1       3.274   5.467  -3.523  0.00  0.00    +0.001 A 
ATOM      6  C   UNL     1       2.814   5.776  -2.260  0.00  0.00    +0.013 A 
ATOM      7  C   UNL     1       3.198   4.993  -1.170  0.00  0.00    +0.042 A 
ATOM      8  C   UNL     1       2.880   5.068   0.269  0.00  0.00    +0.248 C 
ATOM      9  O   UNL     1       2.163   5.907   0.779  0.00  0.00    -0.270 OA
ATOM     10  N   UNL     1       3.496   4.076   0.935  0.00  0.00    -0.278 N 
ENDROOT
BRANCH   1  12
ATOM     11  C   UNL     1       4.532   0.730  -0.037  0.00  0.00    +0.053 A 
ATOM     12  C   UNL     1       3.770   1.852  -0.024  0.00  0.00    +0.010 A 
ATOM     13  C   UNL     1       2.374   1.418  -0.013  0.00  0.00    +0.006 A 
ATOM     14  C   UNL     1       1.150   2.094   0.002  0.00  0.00    +0.010 A 
ATOM     15  C   UNL     1      -0.017   1.384   0.010  0.00  0.00    +0.001 A 
ATOM     16  C   UNL     1       0.002  -0.004   0.002  0.00  0.00    +0.002 A 
ATOM     17  C   UNL     1       1.196  -0.691  -0.013  0.00  0.00    +0.026 A 
ATOM     18  C   UNL     1       2.398   0.010  -0.021  0.00  0.00    +0.047 A 
ATOM     19  N   UNL     1       3.719  -0.380  -0.035  0.00  0.00    -0.354 N 
ATOM     20  H   UNL     1       4.029  -1.299  -0.044  0.00  0.00    +0.166 HD
BRANCH  11  24
ATOM     21  C   UNL     1       8.779   0.655  -0.077  0.00  0.00    +0.000 A 
ATOM     22  C   UNL     1       8.068  -0.177  -0.923  0.00  0.00    +0.001 A 
ATOM     23  C   UNL     1       6.688  -0.157  -0.915  0.00  0.00    +0.010 A 
ATOM     24  C   UNL     1       6.011   0.704  -0.051  0.00  0.00    -0.001 A 
ATOM     25  C   UNL     1       6.734   1.544   0.797  0.00  0.00    +0.010 A 
ATOM     26  C   UNL     1       8.113   1.511   0.783  0.00  0.00    +0.001 A 
ENDBRANCH  11  24
ENDBRANCH   1  12
BRANCH  10  27
ATOM     27  C   UNL     1       3.412   3.836   2.378  0.00  0.00    +0.204 C 
BRANCH  27  28
ATOM     28  C   UNL     1       4.511   4.593   3.078  0.00  0.00    +0.233 C 
ATOM     29  O   UNL     1       5.288   5.266   2.435  0.00  0.00    -0.274 OA
ATOM     30  N   UNL     1       4.630   4.521   4.419  0.00  0.00    -0.300 N 
ATOM     31  C   UNL     1       3.692   3.714   5.211  0.00  0.00    +0.108 C 
ATOM     32  C   UNL     1       3.088   4.588   6.309  0.00  0.00    +0.032 C 
ATOM     33  C   UNL     1       4.213   5.228   7.125  0.00  0.00    +0.078 C 
ATOM     34  C   UNL     1       5.066   6.114   6.215  0.00  0.00    +0.032 C 
ATOM     35  C   UNL     1       5.696   5.253   5.116  0.00  0.00    +0.108 C 
BRANCH  33  36
ATOM     36  C   UNL     1       3.618   6.067   8.227  0.00  0.00    +0.214 C 
ATOM     37  O   UNL     1       3.853   7.255   8.279  0.00  0.00    -0.276 OA
ATOM     38  N   UNL     1       2.825   5.496   9.155  0.00  0.00    -0.329 N 
ATOM     39  H   UNL     1       2.637   4.545   9.114  0.00  0.00    +0.145 HD
ATOM     40  H   UNL     1       2.442   6.035   9.865  0.00  0.00    +0.145 HD
ENDBRANCH  33  36
ENDBRANCH  27  28
ENDBRANCH  10  27
TORSDOF 5
