REMARK  Name = ZINC66329835
REMARK  11 active torsions:
REMARK  status: ('A' for Active; 'I' for Inactive)
REMARK    1  A    between atoms: C_1  and  C_2
REMARK    2  A    between atoms: C_5  and  C_7
REMARK    3  A    between atoms: C_7  and  N_8
REMARK    4  A    between atoms: N_8  and  C_9
REMARK    5  A    between atoms: C_9  and  C_10
REMARK    6  A    between atoms: C_9  and  C_11
REMARK    7  A    between atoms: C_12  and  C_14
REMARK    8  A    between atoms: C_14  and  C_15
REMARK    9  A    between atoms: C_15  and  C_17
REMARK   10  A    between atoms: C_15  and  N_18
REMARK   11  A    between atoms: C_19  and  C_21
REMARK                            x       y       z     vdW  Elec       q    Type
REMARK                         _______ _______ _______ _____ _____    ______ ____
ROOT
ATOM      1  N   UNL     1       2.002  -3.675  -1.437  0.00  0.00    -0.292 N 
ATOM      2  C   UNL     1       1.308  -4.637  -2.077  0.00  0.00    +0.218 C 
ATOM      3  O   UNL     1       0.324  -5.122  -1.559  0.00  0.00    -0.276 OA
ENDROOT
BRANCH   1   4
ATOM      4  C   UNL     1       3.124  -3.013  -2.106  0.00  0.00    +0.070 C 
ATOM      5  C   UNL     1       2.792  -1.534  -2.316  0.00  0.00    +0.028 C 
ATOM      6  C   UNL     1       4.380  -3.136  -1.240  0.00  0.00    +0.028 C 
ENDBRANCH   1   4
BRANCH   1   7
ATOM      7  C   UNL     1       1.635  -3.293  -0.071  0.00  0.00    +0.182 C 
BRANCH   7  12
ATOM      8  C   UNL     1      -0.361   1.338  -0.198  0.00  0.00    +0.086 C 
ATOM      9  C   UNL     1      -0.246  -0.165  -0.172  0.00  0.00    +0.102 A 
ATOM     10  C   UNL     1      -1.274  -1.033  -0.188  0.00  0.00    +0.045 A 
ATOM     11  C   UNL     1      -0.715  -2.330  -0.153  0.00  0.00    +0.046 A 
ATOM     12  C   UNL     1       0.621  -2.178  -0.117  0.00  0.00    +0.122 A 
ATOM     13  O   UNL     1       0.899  -0.864  -0.135  0.00  0.00    -0.463 OA
ENDBRANCH   7  12
ENDBRANCH   1   7
BRANCH   2  14
ATOM     14  C   UNL     1       1.754  -5.109  -3.437  0.00  0.00    +0.118 C 
BRANCH  14  15
ATOM     15  C   UNL     1       0.732  -6.104  -3.992  0.00  0.00    +0.079 C 
ATOM     16  C   UNL     1       1.244  -6.678  -5.314  0.00  0.00    +0.028 C 
BRANCH  15  17
ATOM     17  N   UNL     1      -0.543  -5.418  -4.218  0.00  0.00    -0.312 N 
ATOM     18  C   UNL     1      -1.695  -6.118  -4.212  0.00  0.00    +0.216 C 
ATOM     19  O   UNL     1      -1.676  -7.316  -4.019  0.00  0.00    -0.276 OA
ATOM     20  H   UNL     1      -0.558  -4.461  -4.373  0.00  0.00    +0.149 HD
BRANCH  18  21
ATOM     21  C   UNL     1      -3.006  -5.413  -4.445  0.00  0.00    +0.075 C 
ATOM     22  C   UNL     1      -3.213  -4.351  -3.364  0.00  0.00    +0.013 C 
ATOM     23  C   UNL     1      -4.545  -3.635  -3.601  0.00  0.00    +0.001 C 
ATOM     24  C   UNL     1      -5.687  -4.652  -3.543  0.00  0.00    +0.000 C 
ATOM     25  C   UNL     1      -5.480  -5.714  -4.625  0.00  0.00    +0.001 C 
ATOM     26  C   UNL     1      -4.149  -6.429  -4.388  0.00  0.00    +0.013 C 
ENDBRANCH  18  21
ENDBRANCH  15  17
ENDBRANCH  14  15
ENDBRANCH   2  14
TORSDOF 7
