REMARK  Name = ZINC52551438
REMARK  9 active torsions:
REMARK  status: ('A' for Active; 'I' for Inactive)
REMARK    1  A    between atoms: C_1  and  C_2
REMARK    2  A    between atoms: C_11  and  N_12
REMARK    3  A    between atoms: N_12  and  C_13
REMARK    4  A    between atoms: C_14  and  C_36
REMARK    5  A    between atoms: C_20  and  C_23
REMARK    6  A    between atoms: C_24  and  C_25
REMARK    7  A    between atoms: C_30  and  N_33
REMARK    8  A    between atoms: N_33  and  C_34
REMARK    9  A    between atoms: N_33  and  C_35
REMARK                            x       y       z     vdW  Elec       q    Type
REMARK                         _______ _______ _______ _____ _____    ______ ____
ROOT
ATOM      1  C   UNL     1       0.136  -0.760   3.575  0.00  0.00    +0.056 A 
ATOM      2  C   UNL     1      -0.057  -2.154   3.549  0.00  0.00    +0.091 A 
ATOM      3  C   UNL     1       0.058  -2.883   4.733  0.00  0.00    +0.132 A 
ATOM      4  N   UNL     1       0.338  -2.262   5.860  0.00  0.00    -0.247 NA
ATOM      5  C   UNL     1       0.520  -0.953   5.917  0.00  0.00    +0.103 A 
ATOM      6  C   UNL     1       0.448  -0.135   4.792  0.00  0.00    +0.008 A 
ATOM      7  C   UNL     1       0.727   1.331   5.006  0.00  0.00    +0.058 C 
ATOM      8  C   UNL     1       0.546   1.737   6.487  0.00  0.00    +0.080 C 
ATOM      9  S   UNL     1       0.879   0.119   7.293  0.00  0.00    -0.098 S 
ENDROOT
BRANCH   1  10
ATOM     10  N   UNL     1       0.025  -0.014   2.410  0.00  0.00    -0.313 N 
ATOM     11  H   UNL     1      -0.844   0.305   2.119  0.00  0.00    +0.152 HD
BRANCH  10  22
ATOM     12  C   UNL     1      -0.321   1.296  -0.085  0.00  0.00    +0.046 C 
ATOM     13  C   UNL     1       1.041   0.914   0.434  0.00  0.00    -0.020 A 
ATOM     14  C   UNL     1       2.185   1.208  -0.311  0.00  0.00    +0.004 A 
ATOM     15  C   UNL     1       2.416   1.858  -1.604  0.00  0.00    +0.028 A 
ATOM     16  C   UNL     1       3.743   1.858  -1.812  0.00  0.00    +0.083 A 
ATOM     17  N   UNL     1       4.380   1.260  -0.759  0.00  0.00    -0.361 N 
ATOM     18  H   UNL     1       5.340   1.142  -0.683  0.00  0.00    +0.165 HD
ATOM     19  C   UNL     1       3.454   0.851   0.177  0.00  0.00    +0.047 A 
ATOM     20  C   UNL     1       3.560   0.206   1.406  0.00  0.00    +0.028 A 
ATOM     21  C   UNL     1       2.427  -0.079   2.134  0.00  0.00    +0.025 A 
ATOM     22  C   UNL     1       1.167   0.278   1.655  0.00  0.00    +0.035 A 
ENDBRANCH  10  22
ENDBRANCH   1  10
BRANCH   8  23
ATOM     23  C   UNL     1       1.552   2.781   6.897  0.00  0.00    -0.007 C 
ATOM     24  C   UNL     1       1.140   3.929   7.428  0.00  0.00    +0.064 C 
BRANCH  24  25
ATOM     25  C   UNL     1       2.121   4.948   7.829  0.00  0.00    +0.239 C 
ATOM     26  O   UNL     1       3.310   4.742   7.675  0.00  0.00    -0.271 OA
ATOM     27  N   UNL     1       1.704   6.112   8.367  0.00  0.00    -0.300 N 
ATOM     28  C   UNL     1       0.304   6.488   8.614  0.00  0.00    +0.106 C 
ATOM     29  C   UNL     1       0.311   7.910   9.213  0.00  0.00    +0.005 C 
ATOM     30  C   UNL     1       1.677   8.478   8.744  0.00  0.00    -0.050 C 
ATOM     31  C   UNL     1       2.575   7.215   8.810  0.00  0.00    +0.093 C 
BRANCH  30  32
ATOM     32  N   UNL     1       2.160   9.514   9.666  0.00  0.00    +0.379 N 
ATOM     33  C   UNL     1       3.452  10.027   9.192  0.00  0.00    -0.096 C 
ATOM     34  C   UNL     1       1.187  10.613   9.721  0.00  0.00    -0.096 C 
ATOM     35  H   UNL     1       2.273   9.119  10.588  0.00  0.00    -0.082 HD
ENDBRANCH  30  32
ENDBRANCH  24  25
ENDBRANCH   8  23
BRANCH   2  36
ATOM     36  C   UNL     1      -0.370  -2.817   2.320  0.00  0.00    +0.103 C 
ATOM     37  N   UNL     1      -0.618  -3.344   1.344  0.00  0.00    -0.191 NA
ENDBRANCH   2  36
TORSDOF 6
