REMARK  Name = ZINC42352956
REMARK  6 active torsions:
REMARK  status: ('A' for Active; 'I' for Inactive)
REMARK    1  A    between atoms: C_1  and  C_2
REMARK    2  A    between atoms: C_2  and  C_3
REMARK    3  A    between atoms: C_3  and  C_5
REMARK    4  A    between atoms: C_3  and  N_9
REMARK    5  A    between atoms: N_6  and  O_7
REMARK    6  A    between atoms: C_10  and  C_12
REMARK                            x       y       z     vdW  Elec       q    Type
REMARK                         _______ _______ _______ _____ _____    ______ ____
ROOT
ATOM      1  N   UNL     1      -0.055  -0.114  -2.441  0.00  0.00    -0.302 N 
ATOM      2  C   UNL     1       0.107   1.109  -2.984  0.00  0.00    +0.246 C 
ATOM      3  O   UNL     1       0.895   1.893  -2.492  0.00  0.00    -0.270 OA
ATOM      4  H   UNL     1      -0.683  -0.740  -2.833  0.00  0.00    +0.150 HD
ENDROOT
BRANCH   2   5
ATOM      5  C   UNL     1      -0.672   1.496  -4.178  0.00  0.00    +0.055 A 
ATOM      6  C   UNL     1      -1.582   0.599  -4.742  0.00  0.00    +0.016 A 
ATOM      7  C   UNL     1      -2.307   0.965  -5.856  0.00  0.00    +0.021 A 
ATOM      8  C   UNL     1      -2.134   2.221  -6.417  0.00  0.00    +0.042 A 
ATOM      9  C   UNL     1      -1.234   3.115  -5.863  0.00  0.00    +0.040 A 
ATOM     10  C   UNL     1      -0.507   2.762  -4.744  0.00  0.00    +0.054 A 
ATOM     11 CL   UNL     1       0.616   3.887  -4.046  0.00  0.00    -0.083 Cl
ATOM     12 CL   UNL     1      -3.051   2.674  -7.820  0.00  0.00    -0.083 Cl
ENDBRANCH   2   5
BRANCH   1  13
ATOM     13  C   UNL     1       0.718  -0.497  -1.257  0.00  0.00    +0.139 C 
BRANCH  13  14
ATOM     14  C   UNL     1       0.847  -1.998  -1.206  0.00  0.00    +0.152 C 
ATOM     15  N   UNL     1       1.839  -2.540  -0.579  0.00  0.00    -0.075 NA
ATOM     16  N   UNL     1      -0.091  -2.792  -1.827  0.00  0.00    -0.342 N 
ATOM     17  H   UNL     1      -0.836  -2.385  -2.297  0.00  0.00    +0.144 HD
ATOM     18  H   UNL     1      -0.008  -3.757  -1.794  0.00  0.00    +0.144 HD
BRANCH  15  19
ATOM     19  O   UNL     1       1.960  -3.950  -0.531  0.00  0.00    -0.408 OA
ATOM     20  H   UNL     1       2.732  -4.262  -0.041  0.00  0.00    +0.328 HD
ENDBRANCH  15  19
ENDBRANCH  13  14
BRANCH  13  22
ATOM     21  C   UNL     1      -0.019   1.526   0.010  0.00  0.00    +0.006 C 
ATOM     22  C   UNL     1       0.002  -0.004   0.002  0.00  0.00    +0.027 C 
ENDBRANCH  13  22
ENDBRANCH   1  13
TORSDOF 5
