REMARK  Name = ZINC15323907
REMARK  14 active torsions:
REMARK  status: ('A' for Active; 'I' for Inactive)
REMARK    1  A    between atoms: C_1  and  C_2
REMARK    2  A    between atoms: C_2  and  C_3
REMARK    3  A    between atoms: C_3  and  C_4
REMARK    4  A    between atoms: C_4  and  N_5
REMARK    5  A    between atoms: C_6  and  N_37
REMARK    6  A    between atoms: C_7  and  N_14
REMARK    7  A    between atoms: N_14  and  C_15
REMARK    8  A    between atoms: C_15  and  C_16
REMARK    9  A    between atoms: C_16  and  C_17
REMARK   10  A    between atoms: C_16  and  C_18
REMARK   11  A    between atoms: C_19  and  C_21
REMARK   12  A    between atoms: C_24  and  C_36
REMARK   13  A    between atoms: C_25  and  S_27
REMARK   14  A    between atoms: S_27  and  N_30
REMARK                            x       y       z     vdW  Elec       q    Type
REMARK                         _______ _______ _______ _____ _____    ______ ____
ROOT
ATOM      1  N   UNL     1       6.139  -3.314   3.502  0.00  0.00    -0.260 N 
ATOM      2  C   UNL     1       6.821  -2.591   2.592  0.00  0.00    +0.251 C 
ATOM      3  O   UNL     1       7.964  -2.245   2.822  0.00  0.00    -0.270 OA
ENDROOT
BRANCH   1   6
ATOM      4  N   UNL     1       2.488  -3.500   3.865  0.00  0.00    -0.280 N 
ATOM      5  C   UNL     1       3.799  -3.166   4.114  0.00  0.00    +0.127 A 
ATOM      6  C   UNL     1       4.786  -3.639   3.274  0.00  0.00    +0.140 A 
ATOM      7  C   UNL     1       4.419  -4.453   2.185  0.00  0.00    +0.277 A 
ATOM      8  O   UNL     1       5.271  -4.885   1.427  0.00  0.00    -0.266 OA
ATOM      9  N   UNL     1       3.120  -4.750   1.986  0.00  0.00    -0.273 N 
ATOM     10  H   UNL     1       2.866  -5.311   1.237  0.00  0.00    +0.173 HD
ATOM     11  C   UNL     1       2.172  -4.284   2.819  0.00  0.00    +0.331 A 
ATOM     12  O   UNL     1       1.008  -4.573   2.619  0.00  0.00    -0.246 OA
BRANCH   5  13
ATOM     13  N   UNL     1       4.122  -2.369   5.186  0.00  0.00    -0.343 N 
ATOM     14  H   UNL     1       3.419  -1.983   5.733  0.00  0.00    +0.144 HD
ATOM     15  H   UNL     1       5.052  -2.192   5.397  0.00  0.00    +0.144 HD
ENDBRANCH   5  13
BRANCH   4  16
ATOM     16  C   UNL     1       1.430  -3.004   4.749  0.00  0.00    +0.128 C 
BRANCH  16  17
ATOM     17  C   UNL     1       1.208  -4.001   5.888  0.00  0.00    +0.021 C 
BRANCH  17  19
ATOM     18  C   UNL     1      -0.118  -4.480   7.951  0.00  0.00    +0.004 C 
ATOM     19  C   UNL     1       0.103  -3.483   6.811  0.00  0.00    -0.002 C 
ENDBRANCH  17  19
ENDBRANCH  16  17
ENDBRANCH   4  16
ENDBRANCH   1   6
BRANCH   2  20
ATOM     20  C   UNL     1       6.179  -2.217   1.313  0.00  0.00    +0.039 A 
ATOM     21  C   UNL     1       4.795  -2.049   1.247  0.00  0.00    +0.013 A 
ATOM     22  C   UNL     1       4.202  -1.701   0.051  0.00  0.00    +0.006 A 
ATOM     23  C   UNL     1       4.977  -1.517  -1.081  0.00  0.00    -0.024 A 
ATOM     24  C   UNL     1       6.349  -1.682  -1.022  0.00  0.00    +0.109 A 
ATOM     25  C   UNL     1       6.955  -2.025   0.170  0.00  0.00    +0.041 A 
ATOM     26  C   UNL     1       4.323  -1.137  -2.384  0.00  0.00    +0.046 C 
BRANCH  24  27
ATOM     27  S   UNL     1       7.327  -1.446  -2.469  0.00  0.00    +0.061 S 
ATOM     28  O   UNL     1       8.668  -1.745  -2.107  0.00  0.00    -0.153 OA
ATOM     29  O   UNL     1       6.655  -2.117  -3.526  0.00  0.00    -0.153 OA
BRANCH  27  30
ATOM     30  N   UNL     1       7.283   0.170  -2.831  0.00  0.00    -0.177 NA
ATOM     31  C   UNL     1       6.287   0.699  -3.772  0.00  0.00    +0.109 C 
ATOM     32  C   UNL     1       5.531   1.847  -3.096  0.00  0.00    +0.017 C 
ATOM     33  C   UNL     1       6.534   2.887  -2.592  0.00  0.00    +0.003 C 
ATOM     34  C   UNL     1       7.461   2.244  -1.558  0.00  0.00    +0.017 C 
ATOM     35  C   UNL     1       8.236   1.101  -2.212  0.00  0.00    +0.109 C 
ENDBRANCH  27  30
ENDBRANCH  24  27
ENDBRANCH   2  20
BRANCH   1  36
ATOM     36  C   UNL     1       6.804  -3.762   4.728  0.00  0.00    +0.117 C 
BRANCH  36  37
ATOM     37  C   UNL     1       7.372  -5.166   4.516  0.00  0.00    +0.001 C 
ATOM     38  C   UNL     1       8.436  -5.125   3.417  0.00  0.00    +0.009 C 
ATOM     39  C   UNL     1       8.003  -5.663   5.819  0.00  0.00    +0.009 C 
ENDBRANCH  36  37
ENDBRANCH   1  36
TORSDOF 10
