REMARK  Name = ZINC06441955
REMARK  9 active torsions:
REMARK  status: ('A' for Active; 'I' for Inactive)
REMARK    1  A    between atoms: C_1  and  C_2
REMARK    2  A    between atoms: C_7  and  C_15
REMARK    3  A    between atoms: C_13  and  C_14
REMARK    4  A    between atoms: C_15  and  C_17
REMARK    5  A    between atoms: C_15  and  N_73
REMARK    6  A    between atoms: N_21  and  C_22
REMARK    7  A    between atoms: N_29  and  C_32
REMARK    8  A    between atoms: C_37  and  O_38
REMARK    9  A    between atoms: O_38  and  C_39
REMARK                            x       y       z     vdW  Elec       q    Type
REMARK                         _______ _______ _______ _____ _____    ______ ____
ROOT
ATOM      1  C   UNL     1      -4.789   1.073   0.159  0.00  0.00    +0.039 C 
ENDROOT
BRANCH   1   8
ATOM      2  C   UNL     1       2.980   2.746   0.845  0.00  0.00    +0.044 C 
ATOM      3  C   UNL     1       1.580   2.207   0.699  0.00  0.00    -0.046 A 
ATOM      4  C   UNL     1       1.383   0.842   0.538  0.00  0.00    +0.004 A 
ATOM      5  C   UNL     1       0.122   0.333   0.405  0.00  0.00    +0.010 A 
ATOM      6  C   UNL     1      -0.979   1.195   0.425  0.00  0.00    -0.001 A 
ATOM      7  C   UNL     1      -2.344   0.684   0.279  0.00  0.00    +0.017 A 
ATOM      8  C   UNL     1      -3.372   1.566   0.306  0.00  0.00    +0.011 A 
ATOM      9  C   UNL     1      -3.122   2.945   0.472  0.00  0.00    +0.251 A 
ATOM     10  O   UNL     1      -4.061   3.722   0.493  0.00  0.00    -0.268 OA
ATOM     11  N   UNL     1      -1.873   3.423   0.618  0.00  0.00    -0.322 N 
ATOM     12  H   UNL     1      -1.736   4.377   0.730  0.00  0.00    +0.169 HD
ATOM     13  C   UNL     1      -0.784   2.578   0.594  0.00  0.00    +0.052 A 
ATOM     14  C   UNL     1       0.509   3.074   0.727  0.00  0.00    -0.024 A 
ATOM     15  C   UNL     1       0.738   4.553   0.903  0.00  0.00    +0.046 C 
ENDBRANCH   1   8
BRANCH   1  21
ATOM     16  C   UNL     1      -4.994   1.106   2.571  0.00  0.00    -0.058 C 
ATOM     17  C   UNL     1      -5.812   1.675   3.733  0.00  0.00    +0.086 C 
ATOM     18  N   UNL     1      -7.202   1.212   3.623  0.00  0.00    -0.331 N 
ATOM     19  C   UNL     1      -7.798   1.643   2.351  0.00  0.00    +0.086 C 
ATOM     20  C   UNL     1      -6.981   1.074   1.189  0.00  0.00    -0.058 C 
ATOM     21  N   UNL     1      -5.591   1.565   1.299  0.00  0.00    +0.391 N 
ATOM     22  H   UNL     1      -5.597   2.592   1.285  0.00  0.00    -0.080 HD
BRANCH  18  23
ATOM     23  C   UNL     1      -7.966   1.654   4.710  0.00  0.00    +0.072 A 
ATOM     24  C   UNL     1      -7.444   2.590   5.591  0.00  0.00    +0.027 A 
ATOM     25  C   UNL     1      -8.202   3.028   6.661  0.00  0.00    +0.002 A 
ATOM     26  C   UNL     1      -9.476   2.529   6.861  0.00  0.00    +0.004 A 
ATOM     27  C   UNL     1     -10.000   1.592   5.989  0.00  0.00    +0.047 A 
ATOM     28  C   UNL     1      -9.249   1.151   4.912  0.00  0.00    +0.141 A 
BRANCH  28  29
ATOM     29  O   UNL     1      -9.763   0.229   4.054  0.00  0.00    -0.493 OA
ATOM     30  C   UNL     1     -11.085  -0.241   4.324  0.00  0.00    +0.277 C 
ENDBRANCH  28  29
ENDBRANCH  18  23
ENDBRANCH   1  21
BRANCH   1  31
ATOM     31  C   UNL     1      -5.377   1.611  -1.120  0.00  0.00    +0.143 A 
ATOM     32  N   UNL     1      -5.791   2.836  -1.337  0.00  0.00    -0.115 NA
ATOM     33  N   UNL     1      -6.223   2.901  -2.549  0.00  0.00    -0.023 NA
ATOM     34  N   UNL     1      -6.103   1.748  -3.109  0.00  0.00    -0.044 NA
ATOM     35  N   UNL     1      -5.585   0.926  -2.260  0.00  0.00    -0.227 N 
BRANCH  35  36
ATOM     36  C   UNL     1      -5.280  -0.488  -2.493  0.00  0.00    +0.111 C 
ATOM     37  C   UNL     1      -4.313  -0.631  -3.686  0.00  0.00    +0.027 C 
ATOM     38  C   UNL     1      -4.791  -1.915  -4.410  0.00  0.00    +0.002 C 
ATOM     39  C   UNL     1      -6.332  -1.826  -4.284  0.00  0.00    +0.002 C 
ATOM     40  C   UNL     1      -6.563  -1.248  -2.872  0.00  0.00    +0.027 C 
ENDBRANCH  35  36
ENDBRANCH   1  31
TORSDOF 6
