REMARK  Name = ZINC35926280
REMARK  5 active torsions:
REMARK  status: ('A' for Active; 'I' for Inactive)
REMARK    1  A    between atoms: C_1  and  C_2
REMARK    2  A    between atoms: C_7  and  C_8
REMARK    3  A    between atoms: C_22  and  C_24
REMARK    4  A    between atoms: C_24  and  N_25
REMARK    5  A    between atoms: N_28  and  C_31
REMARK                            x       y       z     vdW  Elec       q    Type
REMARK                         _______ _______ _______ _____ _____    ______ ____
ROOT
ATOM      1  C   UNL     1       2.301   0.076   2.668  0.00  0.00    +0.247 C 
ATOM      2  O   UNL     1       2.408  -0.592   1.658  0.00  0.00    -0.270 OA
ATOM      3  N   UNL     1       2.143  -0.529   3.862  0.00  0.00    -0.295 N 
ATOM      4  C   UNL     1       1.879   0.263   5.072  0.00  0.00    +0.127 C 
ATOM      5  C   UNL     1       0.592  -0.256   5.726  0.00  0.00    +0.127 C 
ATOM      6  N   UNL     1       0.681  -1.719   5.841  0.00  0.00    -0.298 N 
ATOM      7  C   UNL     1       0.945  -2.510   4.631  0.00  0.00    +0.127 C 
ATOM      8  C   UNL     1       2.226  -1.992   3.976  0.00  0.00    +0.127 C 
ATOM      9  C   UNL     1       0.521  -2.333   7.054  0.00  0.00    +0.198 A 
ATOM     10  N   UNL     1       0.387  -1.574   8.175  0.00  0.00    -0.295 N 
ATOM     11  H   UNL     1       0.405  -0.606   8.113  0.00  0.00    +0.172 HD
ATOM     12  C   UNL     1       0.228  -2.172   9.375  0.00  0.00    +0.253 A 
ATOM     13  O   UNL     1       0.106  -1.507  10.390  0.00  0.00    -0.268 OA
ATOM     14  C   UNL     1       0.206  -3.577   9.432  0.00  0.00    +0.091 A 
ATOM     15  C   UNL     1       0.345  -4.286   8.274  0.00  0.00    +0.034 A 
ATOM     16  N   UNL     1       0.494  -3.649   7.115  0.00  0.00    -0.223 NA
ENDROOT
BRANCH   1  23
ATOM     17  C   UNL     1       0.607   1.454   0.769  0.00  0.00    +0.044 C 
ATOM     18  C   UNL     1       1.531   2.227   1.674  0.00  0.00    -0.038 A 
ATOM     19  C   UNL     1       1.572   3.604   1.607  0.00  0.00    +0.004 A 
ATOM     20  C   UNL     1       2.419   4.316   2.437  0.00  0.00    +0.000 A 
ATOM     21  C   UNL     1       3.232   3.652   3.340  0.00  0.00    +0.001 A 
ATOM     22  C   UNL     1       3.200   2.275   3.417  0.00  0.00    +0.013 A 
ATOM     23  C   UNL     1       2.344   1.552   2.586  0.00  0.00    +0.040 A 
ENDBRANCH   1  23
BRANCH  15  24
ATOM     24  C   UNL     1       0.325  -5.793   8.308  0.00  0.00    -0.022 C 
BRANCH  24  25
ATOM     25  N   UNL     1      -0.853  -6.283   7.580  0.00  0.00    +0.385 N 
ATOM     26  C   UNL     1      -2.071  -5.852   8.278  0.00  0.00    -0.059 C 
ATOM     27  C   UNL     1      -3.300  -6.264   7.460  0.00  0.00    +0.086 C 
ATOM     28  N   UNL     1      -3.226  -7.711   7.204  0.00  0.00    -0.331 N 
ATOM     29  C   UNL     1      -1.974  -8.255   6.655  0.00  0.00    +0.086 C 
ATOM     30  C   UNL     1      -0.808  -7.749   7.511  0.00  0.00    -0.059 C 
ATOM     31  H   UNL     1      -0.852  -5.903   6.646  0.00  0.00    -0.081 HD
BRANCH  28  32
ATOM     32  C   UNL     1      -4.315  -8.545   7.475  0.00  0.00    +0.065 A 
ATOM     33  C   UNL     1      -5.266  -8.789   6.494  0.00  0.00    +0.026 A 
ATOM     34  C   UNL     1      -6.341  -9.614   6.765  0.00  0.00    +0.002 A 
ATOM     35  C   UNL     1      -6.470 -10.198   8.012  0.00  0.00    +0.003 A 
ATOM     36  C   UNL     1      -5.526  -9.958   8.992  0.00  0.00    +0.040 A 
ATOM     37  C   UNL     1      -4.444  -9.138   8.727  0.00  0.00    +0.144 A 
ATOM     38  F   UNL     1      -3.518  -8.908   9.683  0.00  0.00    -0.204 F 
ENDBRANCH  28  32
ENDBRANCH  24  25
ENDBRANCH  15  24
TORSDOF 4
