REMARK  Name = ZINC08645160
REMARK  6 active torsions:
REMARK  status: ('A' for Active; 'I' for Inactive)
REMARK    1  A    between atoms: C_3  and  N_25
REMARK    2  A    between atoms: C_6  and  C_7
REMARK    3  A    between atoms: C_8  and  C_9
REMARK    4  A    between atoms: C_14  and  N_16
REMARK    5  A    between atoms: N_16  and  C_17
REMARK    6  A    between atoms: C_20  and  O_23
REMARK                            x       y       z     vdW  Elec       q    Type
REMARK                         _______ _______ _______ _____ _____    ______ ____
ROOT
ATOM      1  C   UNL     1       1.263   2.925  -0.308  0.00  0.00    +0.040 C 
ATOM      2  C   UNL     1       2.420   2.896   0.414  0.00  0.00    +0.080 C 
ATOM      3  C   UNL     1       2.835   1.987   1.506  0.00  0.00    +0.276 C 
ATOM      4  O   UNL     1       2.111   1.089   1.905  0.00  0.00    -0.267 OA
ATOM      5  N   UNL     1       4.027   2.197   2.020  0.00  0.00    -0.152 NA
ATOM      6  C   UNL     1       4.818   3.172   1.602  0.00  0.00    +0.175 C 
ATOM      7  S   UNL     1       3.860   3.952   0.311  0.00  0.00    -0.050 S 
ENDROOT
BRANCH   1   9
ATOM      8  C   UNL     1      -1.124   2.742  -0.370  0.00  0.00    +0.028 C 
ATOM      9  C   UNL     1       0.040   2.592   0.309  0.00  0.00    +0.043 C 
ATOM     10 CL   UNL     1       0.024   1.985   1.935  0.00  0.00    -0.083 Cl
BRANCH   8  16
ATOM     11  C   UNL     1      -2.548   0.846   0.381  0.00  0.00    +0.010 A 
ATOM     12  C   UNL     1      -3.724   0.367   0.917  0.00  0.00    +0.033 A 
ATOM     13  C   UNL     1      -4.739   1.243   1.262  0.00  0.00    +0.126 A 
ATOM     14  C   UNL     1      -4.580   2.605   1.078  0.00  0.00    +0.033 A 
ATOM     15  C   UNL     1      -3.408   3.101   0.548  0.00  0.00    +0.010 A 
ATOM     16  C   UNL     1      -2.377   2.222   0.196  0.00  0.00    -0.024 A 
BRANCH  13  17
ATOM     17  N   UNL     1      -6.001   0.719   1.832  0.00  0.00    +0.056 N 
ATOM     18  O   UNL     1      -6.896   1.487   2.136  0.00  0.00    -0.126 OA
ATOM     19  O   UNL     1      -6.145  -0.479   1.995  0.00  0.00    -0.126 OA
ENDBRANCH  13  17
ENDBRANCH   8  16
ENDBRANCH   1   9
BRANCH   6  20
ATOM     20  N   UNL     1       6.070   3.504   2.051  0.00  0.00    -0.192 NA
BRANCH  20  21
ATOM     21  C   UNL     1       6.635   2.808   3.126  0.00  0.00    +0.056 A 
ATOM     22  C   UNL     1       7.527   3.448   3.976  0.00  0.00    +0.029 A 
ATOM     23  C   UNL     1       8.079   2.762   5.040  0.00  0.00    +0.047 A 
ATOM     24  C   UNL     1       7.753   1.431   5.252  0.00  0.00    +0.117 A 
ATOM     25  C   UNL     1       6.868   0.788   4.398  0.00  0.00    +0.047 A 
ATOM     26  C   UNL     1       6.310   1.474   3.338  0.00  0.00    +0.029 A 
BRANCH  24  27
ATOM     27  O   UNL     1       8.302   0.754   6.296  0.00  0.00    -0.507 OA
ATOM     28  H   UNL     1       8.043  -0.302   6.464  0.00  0.00    +0.292 HD
ENDBRANCH  24  27
ENDBRANCH  20  21
ENDBRANCH   6  20
TORSDOF 6
