REMARK  Name = ZINC39676119
REMARK  7 active torsions:
REMARK  status: ('A' for Active; 'I' for Inactive)
REMARK    1  A    between atoms: C_4  and  C_7
REMARK    2  A    between atoms: C_7  and  N_8
REMARK    3  A    between atoms: C_10  and  C_13
REMARK    4  A    between atoms: C_13  and  N_14
REMARK    5  A    between atoms: C_15  and  C_17
REMARK    6  A    between atoms: C_28  and  C_30
REMARK    7  A    between atoms: C_33  and  C_35
REMARK                            x       y       z     vdW  Elec       q    Type
REMARK                         _______ _______ _______ _____ _____    ______ ____
ROOT
ATOM      1  C   UNL     1       8.824  -4.257   4.774  0.00  0.00    +0.100 C 
ATOM      2  C   UNL     1       9.535  -2.918   5.076  0.00  0.00    +0.121 C 
ATOM      3  N   UNL     1       9.850  -2.980   6.523  0.00  0.00    -0.294 N 
ATOM      4  C   UNL     1      10.265  -4.385   6.750  0.00  0.00    +0.115 C 
ATOM      5  C   UNL     1       9.309  -5.218   5.873  0.00  0.00    -0.004 C 
ATOM      6  C   UNL     1       8.127  -5.710   6.703  0.00  0.00    -0.010 C 
ATOM      7  C   UNL     1       8.627  -6.708   7.752  0.00  0.00    -0.082 C 
ATOM      8  N   UNL     1       9.284  -7.836   7.082  0.00  0.00    +0.379 N 
ATOM      9  C   UNL     1      10.474  -7.367   6.361  0.00  0.00    -0.082 C 
ATOM     10  C   UNL     1      10.052  -6.397   5.253  0.00  0.00    -0.010 C 
ATOM     11  C   UNL     1       9.777  -1.984   7.428  0.00  0.00    +0.282 C 
ATOM     12  O   UNL     1      10.073  -2.194   8.589  0.00  0.00    -0.267 OA
ATOM     13  H   UNL     1       9.559  -8.521   7.771  0.00  0.00    -0.086 HD
ATOM     14  H   UNL     1       8.642  -8.259   6.429  0.00  0.00    -0.086 HD
ENDROOT
BRANCH  11  15
ATOM     15  C   UNL     1       9.341  -0.648   7.013  0.00  0.00    +0.190 A 
ATOM     16  C   UNL     1       9.228   0.456   7.830  0.00  0.00    +0.055 A 
ATOM     17  C   UNL     1       8.782   1.509   7.024  0.00  0.00    +0.050 A 
ATOM     18  C   UNL     1       8.642   1.016   5.759  0.00  0.00    +0.136 A 
ATOM     19  O   UNL     1       8.987  -0.283   5.763  0.00  0.00    -0.450 OA
BRANCH  18  20
ATOM     20  C   UNL     1       8.191   1.784   4.581  0.00  0.00    +0.017 A 
ATOM     21  C   UNL     1       7.871   3.137   4.706  0.00  0.00    +0.011 A 
ATOM     22  C   UNL     1       7.451   3.849   3.601  0.00  0.00    +0.001 A 
ATOM     23  C   UNL     1       7.347   3.224   2.371  0.00  0.00    +0.000 A 
ATOM     24  C   UNL     1       7.662   1.883   2.240  0.00  0.00    +0.001 A 
ATOM     25  C   UNL     1       8.089   1.161   3.335  0.00  0.00    +0.011 A 
ENDBRANCH  18  20
ENDBRANCH  11  15
BRANCH   1  27
ATOM     26  N   UNL     1       6.523  -4.875   4.112  0.00  0.00    -0.311 N 
ATOM     27  C   UNL     1       7.329  -4.086   4.849  0.00  0.00    +0.218 C 
ATOM     28  O   UNL     1       6.851  -3.237   5.572  0.00  0.00    -0.275 OA
ATOM     29  H   UNL     1       6.905  -5.554   3.534  0.00  0.00    +0.149 HD
BRANCH  26  30
ATOM     30  C   UNL     1       5.069  -4.709   4.184  0.00  0.00    +0.142 C 
BRANCH  30  33
ATOM     31  N   UNL     1       3.459  -7.524   2.516  0.00  0.00    -0.267 N 
ATOM     32  C   UNL     1       4.010  -6.956   3.610  0.00  0.00    +0.113 A 
ATOM     33  C   UNL     1       4.403  -5.706   3.272  0.00  0.00    +0.007 A 
ATOM     34  C   UNL     1       4.082  -5.503   1.925  0.00  0.00    +0.139 A 
ATOM     35  N   UNL     1       3.521  -6.594   1.470  0.00  0.00    -0.179 NA
BRANCH  31  36
ATOM     36  C   UNL     1       2.900  -8.876   2.436  0.00  0.00    +0.178 C 
BRANCH  36  40
ATOM     37  C   UNL     1      -1.117  -8.675   0.998  0.00  0.00    +0.000 A 
ATOM     38  C   UNL     1      -0.070  -8.804   0.106  0.00  0.00    +0.000 A 
ATOM     39  C   UNL     1       1.230  -8.869   0.571  0.00  0.00    +0.005 A 
ATOM     40  C   UNL     1       1.483  -8.804   1.929  0.00  0.00    -0.026 A 
ATOM     41  C   UNL     1       0.435  -8.674   2.821  0.00  0.00    +0.005 A 
ATOM     42  C   UNL     1      -0.865  -8.611   2.356  0.00  0.00    +0.000 A 
ENDBRANCH  36  40
ENDBRANCH  31  36
ENDBRANCH  30  33
ENDBRANCH  26  30
ENDBRANCH   1  27
TORSDOF 7
