REMARK  Name = ZINC00104205
REMARK  3 active torsions:
REMARK  status: ('A' for Active; 'I' for Inactive)
REMARK    1  A    between atoms: C_4  and  C_7
REMARK    2  A    between atoms: C_10  and  C_24
REMARK    3  A    between atoms: N_17  and  C_18
REMARK                            x       y       z     vdW  Elec       q    Type
REMARK                         _______ _______ _______ _____ _____    ______ ____
ROOT
ATOM      1  C   UNL     1       3.711  -0.707  -0.038  0.00  0.00    +0.146 C 
ATOM      2  C   UNL     1       4.018  -1.187  -1.430  0.00  0.00    +0.038 A 
ATOM      3  C   UNL     1       4.258  -0.851  -2.768  0.00  0.00    +0.133 A 
ATOM      4  N   UNL     1       4.463  -1.977  -3.426  0.00  0.00    -0.170 NA
ATOM      5  N   UNL     1       4.376  -2.988  -2.636  0.00  0.00    -0.272 N 
ATOM      6  H   UNL     1       4.490  -3.913  -2.902  0.00  0.00    +0.189 HD
ATOM      7  C   UNL     1       4.098  -2.564  -1.367  0.00  0.00    +0.127 A 
ATOM      8  C   UNL     1       3.854  -2.983   0.017  0.00  0.00    +0.270 C 
ATOM      9  O   UNL     1       3.855  -4.137   0.404  0.00  0.00    -0.268 OA
ATOM     10  N   UNL     1       3.628  -1.911   0.800  0.00  0.00    -0.255 N 
ENDROOT
BRANCH   1  14
ATOM     11  C   UNL     1      -0.017   1.378   0.010  0.00  0.00    +0.000 A 
ATOM     12  C   UNL     1       1.171   2.086   0.002  0.00  0.00    +0.000 A 
ATOM     13  C   UNL     1       2.377   1.411  -0.013  0.00  0.00    +0.006 A 
ATOM     14  C   UNL     1       2.396   0.029  -0.020  0.00  0.00    -0.022 A 
ATOM     15  C   UNL     1       1.208  -0.679  -0.012  0.00  0.00    +0.006 A 
ATOM     16  C   UNL     1       0.002  -0.004   0.002  0.00  0.00    +0.000 A 
ENDBRANCH   1  14
BRANCH  10  17
ATOM     17  C   UNL     1       3.361  -1.938   2.172  0.00  0.00    +0.038 A 
ATOM     18  C   UNL     1       3.139  -0.752   2.861  0.00  0.00    +0.023 A 
ATOM     19  C   UNL     1       2.875  -0.782   4.216  0.00  0.00    +0.002 A 
ATOM     20  C   UNL     1       2.831  -1.990   4.887  0.00  0.00    +0.000 A 
ATOM     21  C   UNL     1       3.051  -3.172   4.204  0.00  0.00    +0.002 A 
ATOM     22  C   UNL     1       3.310  -3.150   2.848  0.00  0.00    +0.023 A 
ENDBRANCH  10  17
BRANCH   3  23
ATOM     23  C   UNL     1       4.279   0.513  -3.339  0.00  0.00    +0.155 A 
ATOM     24  C   UNL     1       5.087   0.946  -4.343  0.00  0.00    +0.051 A 
ATOM     25  C   UNL     1       4.769   2.301  -4.564  0.00  0.00    +0.042 A 
ATOM     26  C   UNL     1       3.793   2.625  -3.694  0.00  0.00    +0.196 A 
ATOM     27  O   UNL     1       3.495   1.540  -2.959  0.00  0.00    -0.461 OA
ENDBRANCH   3  23
TORSDOF 3
