REMARK  Name = ZINC37423888
REMARK  12 active torsions:
REMARK  status: ('A' for Active; 'I' for Inactive)
REMARK    1  A    between atoms: C_1  and  C_2
REMARK    2  A    between atoms: C_2  and  C_3
REMARK    3  A    between atoms: C_2  and  N_4
REMARK    4  A    between atoms: N_7  and  C_8
REMARK    5  A    between atoms: N_7  and  C_30
REMARK    6  A    between atoms: C_8  and  C_9
REMARK    7  A    between atoms: C_14  and  O_15
REMARK    8  A    between atoms: O_15  and  S_16
REMARK    9  A    between atoms: S_16  and  C_19
REMARK   10  A    between atoms: C_22  and  N_25
REMARK   11  A    between atoms: C_26  and  C_28
REMARK   12  A    between atoms: C_30  and  C_31
REMARK                            x       y       z     vdW  Elec       q    Type
REMARK                         _______ _______ _______ _____ _____    ______ ____
ROOT
ATOM      1  C   UNL     1       4.915  -2.285  -1.873  0.00  0.00    +0.016 A 
ATOM      2  C   UNL     1       5.495  -2.381  -0.623  0.00  0.00    +0.029 A 
ATOM      3  C   UNL     1       5.941  -3.605  -0.158  0.00  0.00    +0.042 A 
ATOM      4  C   UNL     1       5.806  -4.736  -0.944  0.00  0.00    +0.023 A 
ATOM      5  C   UNL     1       5.227  -4.645  -2.195  0.00  0.00    +0.050 A 
ATOM      6  C   UNL     1       4.774  -3.419  -2.660  0.00  0.00    +0.162 A 
ATOM      7 CL   UNL     1       6.670  -3.723   1.413  0.00  0.00    -0.084 Cl
ENDROOT
BRANCH   1   8
ATOM      8  C   UNL     1       4.429  -0.951  -2.379  0.00  0.00    +0.148 C 
BRANCH   8  12
ATOM      9  N   UNL     1       1.145  -0.263  -0.876  0.00  0.00    -0.297 N 
ATOM     10  C   UNL     1       2.479  -0.351  -1.048  0.00  0.00    +0.303 C 
ATOM     11  O   UNL     1       3.231   0.027  -0.170  0.00  0.00    -0.253 OA
ATOM     12  N   UNL     1       2.979  -0.857  -2.192  0.00  0.00    -0.279 N 
ATOM     13  H   UNL     1       0.545  -0.565  -1.576  0.00  0.00    +0.150 HD
BRANCH   9  15
ATOM     14  C   UNL     1       0.540   1.812   0.268  0.00  0.00    +0.027 C 
ATOM     15  C   UNL     1       0.601   0.286   0.368  0.00  0.00    +0.068 C 
ATOM     16  C   UNL     1      -0.807  -0.266   0.598  0.00  0.00    +0.027 C 
ENDBRANCH   9  15
BRANCH  12  17
ATOM     17  C   UNL     1       2.073  -1.312  -3.250  0.00  0.00    +0.141 C 
BRANCH  17  18
ATOM     18  C   UNL     1       1.769  -0.149  -4.197  0.00  0.00    +0.136 C 
ATOM     19  C   UNL     1       0.784  -0.600  -5.304  0.00  0.00    +0.035 C 
ATOM     20  C   UNL     1       0.139   0.758  -5.696  0.00  0.00    +0.031 C 
ATOM     21  C   UNL     1       0.110   1.508  -4.347  0.00  0.00    +0.160 C 
ATOM     22  O   UNL     1       1.090   0.903  -3.493  0.00  0.00    -0.375 OA
ENDBRANCH  17  18
ENDBRANCH  12  17
ENDBRANCH   8  12
ENDBRANCH   1   8
BRANCH   6  23
ATOM     23  O   UNL     1       4.198  -3.328  -3.888  0.00  0.00    -0.342 OA
BRANCH  23  24
ATOM     24  S   UNL     1       5.183  -3.047  -5.014  0.00  0.00    +0.151 S 
ATOM     25  O   UNL     1       4.407  -2.778  -6.174  0.00  0.00    -0.131 OA
ATOM     26  O   UNL     1       6.133  -2.123  -4.502  0.00  0.00    -0.131 OA
BRANCH  24  27
ATOM     27  C   UNL     1       6.055  -4.545  -5.329  0.00  0.00    +0.128 A 
ATOM     28  C   UNL     1       7.224  -4.819  -4.643  0.00  0.00    +0.032 A 
ATOM     29  C   UNL     1       7.911  -5.993  -4.888  0.00  0.00    +0.025 A 
ATOM     30  C   UNL     1       7.425  -6.898  -5.822  0.00  0.00    +0.033 A 
ATOM     31  C   UNL     1       6.251  -6.620  -6.509  0.00  0.00    +0.025 A 
ATOM     32  C   UNL     1       5.566  -5.447  -6.256  0.00  0.00    +0.032 A 
BRANCH  30  33
ATOM     33  N   UNL     1       8.119  -8.087  -6.072  0.00  0.00    -0.286 N 
ATOM     34  C   UNL     1       8.789  -8.698  -5.076  0.00  0.00    +0.214 C 
ATOM     35  O   UNL     1       8.714  -8.272  -3.943  0.00  0.00    -0.276 OA
ATOM     36  C   UNL     1       9.633  -9.912  -5.369  0.00  0.00    +0.109 C 
ATOM     37  H   UNL     1       8.117  -8.472  -6.963  0.00  0.00    +0.155 HD
ENDBRANCH  30  33
ENDBRANCH  24  27
ENDBRANCH  23  24
ENDBRANCH   6  23
TORSDOF 9
