REMARK  Name = ZINC09445781
REMARK  6 active torsions:
REMARK  status: ('A' for Active; 'I' for Inactive)
REMARK    1  A    between atoms: C_1  and  C_2
REMARK    2  A    between atoms: C_5  and  S_8
REMARK    3  A    between atoms: S_8  and  N_11
REMARK    4  A    between atoms: N_11  and  C_12
REMARK    5  A    between atoms: C_17  and  C_18
REMARK    6  A    between atoms: C_23  and  C_26
REMARK                            x       y       z     vdW  Elec       q    Type
REMARK                         _______ _______ _______ _____ _____    ______ ____
ROOT
ATOM      1  C   UNL     1     -10.323  -1.062  -0.609  0.00  0.00    +0.252 C 
ATOM      2  O   UNL     1     -10.934  -0.773   0.402  0.00  0.00    -0.270 OA
ATOM      3  N   UNL     1      -8.986  -0.904  -0.657  0.00  0.00    -0.261 N 
ATOM      4  C   UNL     1      -8.305  -0.412   0.449  0.00  0.00    +0.165 A 
ATOM      5  N   UNL     1      -7.013  -0.186   0.602  0.00  0.00    -0.225 NA
ATOM      6  C   UNL     1      -6.529   0.291   1.739  0.00  0.00    +0.080 A 
ATOM      7  C   UNL     1      -7.381   0.550   2.776  0.00  0.00    +0.076 A 
ATOM      8  S   UNL     1      -8.944   0.084   2.043  0.00  0.00    -0.060 S 
ATOM      9  H   UNL     1      -8.498  -1.133  -1.464  0.00  0.00    +0.157 HD
ENDROOT
BRANCH   6  10
ATOM     10  C   UNL     1      -5.073   0.535   1.888  0.00  0.00    +0.001 A 
ATOM     11  C   UNL     1      -4.551   0.938   3.117  0.00  0.00    +0.010 A 
ATOM     12  C   UNL     1      -3.199   1.163   3.240  0.00  0.00    +0.004 A 
ATOM     13  C   UNL     1      -2.348   0.995   2.154  0.00  0.00    -0.044 A 
ATOM     14  C   UNL     1      -2.858   0.593   0.938  0.00  0.00    -0.044 A 
ATOM     15  C   UNL     1      -4.219   0.365   0.804  0.00  0.00    +0.014 A 
ATOM     16  C   UNL     1      -1.991   0.383  -0.276  0.00  0.00    +0.035 C 
ATOM     17  C   UNL     1      -0.641   1.075  -0.098  0.00  0.00    +0.005 C 
ATOM     18  C   UNL     1      -0.050   0.644   1.250  0.00  0.00    +0.005 C 
ATOM     19  C   UNL     1      -0.881   1.274   2.365  0.00  0.00    +0.035 C 
ENDBRANCH   6  10
BRANCH   1  25
ATOM     20  C   UNL     1     -12.438  -1.756  -1.736  0.00  0.00    +0.060 A 
ATOM     21  C   UNL     1     -13.108  -2.244  -2.851  0.00  0.00    +0.025 A 
ATOM     22  C   UNL     1     -12.405  -2.567  -3.993  0.00  0.00    +0.002 A 
ATOM     23  C   UNL     1     -11.030  -2.404  -4.041  0.00  0.00    +0.001 A 
ATOM     24  C   UNL     1     -10.348  -1.917  -2.947  0.00  0.00    +0.015 A 
ATOM     25  C   UNL     1     -11.046  -1.584  -1.783  0.00  0.00    +0.059 A 
BRANCH  20  26
ATOM     26  N   UNL     1     -13.143  -1.435  -0.583  0.00  0.00    -0.216 N 
ATOM     27  H   UNL     1     -12.867  -0.679  -0.041  0.00  0.00    +0.174 HD
BRANCH  26  28
ATOM     28  S   UNL     1     -14.453  -2.342  -0.134  0.00  0.00    +0.072 S 
ATOM     29  O   UNL     1     -14.870  -1.854   1.134  0.00  0.00    -0.150 OA
ATOM     30  O   UNL     1     -15.323  -2.383  -1.257  0.00  0.00    -0.150 OA
BRANCH  28  35
ATOM     31  C   UNL     1     -12.502  -7.983   0.745  0.00  0.00    +0.044 C 
ATOM     32  C   UNL     1     -12.989  -6.574   0.525  0.00  0.00    -0.050 A 
ATOM     33  C   UNL     1     -12.995  -5.674   1.574  0.00  0.00    +0.005 A 
ATOM     34  C   UNL     1     -13.442  -4.381   1.373  0.00  0.00    +0.029 A 
ATOM     35  C   UNL     1     -13.883  -3.989   0.123  0.00  0.00    +0.109 A 
ATOM     36  C   UNL     1     -13.883  -4.891  -0.925  0.00  0.00    +0.029 A 
ATOM     37  C   UNL     1     -13.431  -6.183  -0.725  0.00  0.00    +0.005 A 
ENDBRANCH  28  35
ENDBRANCH  26  28
ENDBRANCH  20  26
ENDBRANCH   1  25
TORSDOF 5
