REMARK  Name = ZINC35527833
REMARK  10 active torsions:
REMARK  status: ('A' for Active; 'I' for Inactive)
REMARK    1  A    between atoms: C_1  and  C_2
REMARK    2  A    between atoms: C_5  and  C_8
REMARK    3  A    between atoms: C_10  and  C_13
REMARK    4  A    between atoms: N_18  and  S_19
REMARK    5  A    between atoms: S_19  and  C_22
REMARK    6  A    between atoms: C_25  and  N_28
REMARK    7  A    between atoms: C_29  and  C_31
REMARK    8  A    between atoms: C_31  and  C_32
REMARK    9  A    between atoms: C_32  and  C_33
REMARK   10  A    between atoms: C_32  and  C_34
REMARK                            x       y       z     vdW  Elec       q    Type
REMARK                         _______ _______ _______ _____ _____    ______ ____
ROOT
ATOM      1  C   UNL     1      -0.041  -7.167   1.778  0.00  0.00    +0.168 C 
ATOM      2  C   UNL     1       1.433  -7.623   1.825  0.00  0.00    +0.031 C 
ATOM      3  C   UNL     1       1.317  -9.170   1.846  0.00  0.00    +0.019 C 
ATOM      4  C   UNL     1       0.086  -9.403   0.935  0.00  0.00    +0.110 C 
ATOM      5  N   UNL     1      -0.831  -8.287   1.246  0.00  0.00    -0.165 NA
ENDROOT
BRANCH   1   8
ATOM      6  C   UNL     1      -0.452  -3.926   0.196  0.00  0.00    +0.202 A 
ATOM      7  N   UNL     1      -0.381  -4.742   1.263  0.00  0.00    -0.190 NA
ATOM      8  C   UNL     1      -0.178  -5.968   0.875  0.00  0.00    +0.247 A 
ATOM      9  O   UNL     1      -0.110  -5.984  -0.463  0.00  0.00    -0.336 OA
ATOM     10  N   UNL     1      -0.296  -4.643  -0.890  0.00  0.00    -0.056 NA
BRANCH   6  15
ATOM     11  C   UNL     1      -1.319   1.765   0.368  0.00  0.00    +0.044 C 
ATOM     12  C   UNL     1      -1.092   0.276   0.323  0.00  0.00    -0.050 A 
ATOM     13  C   UNL     1      -0.942  -0.362  -0.896  0.00  0.00    +0.004 A 
ATOM     14  C   UNL     1      -0.734  -1.725  -0.943  0.00  0.00    +0.012 A 
ATOM     15  C   UNL     1      -0.675  -2.460   0.240  0.00  0.00    +0.022 A 
ATOM     16  C   UNL     1      -0.827  -1.812   1.464  0.00  0.00    +0.012 A 
ATOM     17  C   UNL     1      -1.029  -0.447   1.500  0.00  0.00    +0.004 A 
ENDBRANCH   6  15
ENDBRANCH   1   8
BRANCH   5  18
ATOM     18  S   UNL     1      -2.474  -8.293   1.032  0.00  0.00    +0.062 S 
ATOM     19  O   UNL     1      -2.880  -9.655   1.051  0.00  0.00    -0.153 OA
ATOM     20  O   UNL     1      -3.004  -7.327   1.929  0.00  0.00    -0.153 OA
BRANCH  18  21
ATOM     21  C   UNL     1      -2.789  -7.696  -0.595  0.00  0.00    +0.106 A 
ATOM     22  C   UNL     1      -2.967  -6.342  -0.811  0.00  0.00    +0.030 A 
ATOM     23  C   UNL     1      -3.215  -5.870  -2.085  0.00  0.00    +0.025 A 
ATOM     24  C   UNL     1      -3.285  -6.758  -3.151  0.00  0.00    +0.033 A 
ATOM     25  C   UNL     1      -3.106  -8.117  -2.931  0.00  0.00    +0.025 A 
ATOM     26  C   UNL     1      -2.854  -8.582  -1.655  0.00  0.00    +0.030 A 
BRANCH  24  27
ATOM     27  N   UNL     1      -3.537  -6.283  -4.443  0.00  0.00    -0.285 N 
ATOM     28  C   UNL     1      -4.243  -7.035  -5.311  0.00  0.00    +0.217 C 
ATOM     29  O   UNL     1      -4.742  -8.077  -4.944  0.00  0.00    -0.275 OA
ATOM     30  H   UNL     1      -3.202  -5.414  -4.714  0.00  0.00    +0.155 HD
BRANCH  28  31
ATOM     31  C   UNL     1      -4.412  -6.579  -6.737  0.00  0.00    +0.099 C 
BRANCH  31  32
ATOM     32  C   UNL     1      -5.249  -7.604  -7.504  0.00  0.00    -0.008 C 
ATOM     33  C   UNL     1      -6.663  -7.647  -6.922  0.00  0.00    +0.008 C 
ATOM     34  C   UNL     1      -5.317  -7.206  -8.980  0.00  0.00    +0.008 C 
ENDBRANCH  31  32
ENDBRANCH  28  31
ENDBRANCH  24  27
ENDBRANCH  18  21
ENDBRANCH   5  18
TORSDOF 7
