REMARK  Name = ZINC20805928
REMARK  10 active torsions:
REMARK  status: ('A' for Active; 'I' for Inactive)
REMARK    1  A    between atoms: C_1  and  O_2
REMARK    2  A    between atoms: O_2  and  C_3
REMARK    3  A    between atoms: C_3  and  C_5
REMARK    4  A    between atoms: C_8  and  C_11
REMARK    5  A    between atoms: N_12  and  N_13
REMARK    6  A    between atoms: C_17  and  S_20
REMARK    7  A    between atoms: N_18  and  N_19
REMARK    8  A    between atoms: S_20  and  C_21
REMARK    9  A    between atoms: C_21  and  C_22
REMARK   10  A    between atoms: N_24  and  C_25
REMARK                            x       y       z     vdW  Elec       q    Type
REMARK                         _______ _______ _______ _____ _____    ______ ____
ROOT
ATOM      1  N   UNL     1      -6.241   5.982   0.129  0.00  0.00    -0.204 N 
ATOM      2  C   UNL     1      -6.260   7.370   0.126  0.00  0.00    +0.254 A 
ATOM      3  N   UNL     1      -5.216   8.161   0.128  0.00  0.00    -0.109 NA
ATOM      4  N   UNL     1      -5.595   9.389   0.121  0.00  0.00    -0.119 NA
ATOM      5  C   UNL     1      -6.904   9.456   0.125  0.00  0.00    +0.210 A 
ATOM      6  N   UNL     1      -7.374   8.169   0.128  0.00  0.00    -0.211 N 
ATOM      7  H   UNL     1      -7.186   5.420   0.133  0.00  0.00    +0.177 HD
ENDROOT
BRANCH   6   8
ATOM      8  N   UNL     1      -8.679   7.767   0.131  0.00  0.00    -0.294 N 
ATOM      9  H   UNL     1      -9.485   8.515   0.132  0.00  0.00    +0.163 HD
ATOM     10  H   UNL     1      -8.924   6.694   0.133  0.00  0.00    +0.163 HD
ENDBRANCH   6   8
BRANCH   1  12
ATOM     11  C   UNL     1      -5.002   3.998   0.129  0.00  0.00    +0.138 C 
ATOM     12  N   UNL     1      -5.019   5.298   0.127  0.00  0.00    -0.188 NA
BRANCH  11  16
ATOM     13  C   UNL     1      -1.305   1.929   0.124  0.00  0.00    +0.059 A 
ATOM     14  C   UNL     1      -1.324   3.328   0.127  0.00  0.00    +0.015 A 
ATOM     15  C   UNL     1      -2.515   3.995   0.123  0.00  0.00    +0.010 A 
ATOM     16  C   UNL     1      -3.718   3.279   0.127  0.00  0.00    -0.005 A 
ATOM     17  C   UNL     1      -3.699   1.879   0.130  0.00  0.00    +0.010 A 
ATOM     18  C   UNL     1      -2.507   1.213   0.128  0.00  0.00    +0.015 A 
BRANCH  13  19
ATOM     19  C   UNL     1      -0.019   1.208   0.123  0.00  0.00    +0.339 C 
ATOM     20  O   UNL     1      -0.003  -0.007   0.125  0.00  0.00    -0.245 OA
BRANCH  19  22
ATOM     21  C   UNL     1       2.367   1.123   0.106  0.00  0.00    +0.280 C 
ATOM     22  O   UNL     1       1.139   1.898   0.113  0.00  0.00    -0.464 OA
ENDBRANCH  19  22
ENDBRANCH  13  19
ENDBRANCH  11  16
ENDBRANCH   1  12
BRANCH   5  23
ATOM     23  S   UNL     1      -7.877  10.925   0.126  0.00  0.00    -0.075 S 
BRANCH  23  24
ATOM     24  C   UNL     1      -6.564  12.171   0.120  0.00  0.00    +0.173 C 
BRANCH  24  25
ATOM     25  C   UNL     1      -7.178  13.548   0.120  0.00  0.00    +0.228 C 
ATOM     26  O   UNL     1      -8.384  13.673   0.123  0.00  0.00    -0.275 OA
ATOM     27  N   UNL     1      -6.387  14.639   0.116  0.00  0.00    -0.284 N 
ATOM     28  H   UNL     1      -5.295  14.526   0.187  0.00  0.00    +0.155 HD
BRANCH  27  29
ATOM     29  C   UNL     1      -6.954  15.914   0.021  0.00  0.00    +0.047 A 
ATOM     30  C   UNL     1      -8.179  16.178   0.621  0.00  0.00    +0.024 A 
ATOM     31  C   UNL     1      -8.735  17.439   0.528  0.00  0.00    +0.002 A 
ATOM     32  C   UNL     1      -8.077  18.437  -0.168  0.00  0.00    +0.001 A 
ATOM     33  C   UNL     1      -6.860  18.177  -0.770  0.00  0.00    +0.017 A 
ATOM     34  C   UNL     1      -6.296  16.919  -0.678  0.00  0.00    +0.039 A 
ATOM     35 BR   UNL     1      -4.632  16.564  -1.503  0.00  0.00    -0.048 Br
ENDBRANCH  27  29
ENDBRANCH  24  25
ENDBRANCH  23  24
ENDBRANCH   5  23
TORSDOF 9
