REMARK  Name = ZINC17215459
REMARK  10 active torsions:
REMARK  status: ('A' for Active; 'I' for Inactive)
REMARK    1  A    between atoms: C_1  and  C_2
REMARK    2  A    between atoms: C_2  and  C_10
REMARK    3  A    between atoms: N_3  and  N_4
REMARK    4  A    between atoms: C_5  and  C_7
REMARK    5  A    between atoms: C_7  and  C_8
REMARK    6  A    between atoms: C_10  and  C_12
REMARK    7  A    between atoms: C_10  and  C_19
REMARK    8  A    between atoms: C_12  and  N_13
REMARK    9  A    between atoms: C_19  and  C_21
REMARK   10  A    between atoms: C_19  and  C_27
REMARK                            x       y       z     vdW  Elec       q    Type
REMARK                         _______ _______ _______ _____ _____    ______ ____
ROOT
ATOM      1  C   UNL     1       4.806   0.559   1.206  0.00  0.00    +0.030 C 
ENDROOT
BRANCH   1   3
ATOM      2  C   UNL     1       3.310   1.883   2.885  0.00  0.00    +0.062 C 
ATOM      3  C   UNL     1       4.497   1.827   1.959  0.00  0.00    +0.036 C 
ATOM      4  N   UNL     1       5.243   2.857   1.812  0.00  0.00    -0.189 NA
BRANCH   4   5
ATOM      5  N   UNL     1       6.281   2.841   0.870  0.00  0.00    -0.206 N 
ATOM      6  C   UNL     1       7.045   3.936   0.692  0.00  0.00    +0.246 C 
ATOM      7  O   UNL     1       6.896   4.904   1.408  0.00  0.00    -0.273 OA
ATOM      8  H   UNL     1       6.471   1.935   0.277  0.00  0.00    +0.177 HD
BRANCH   6   9
ATOM      9  C   UNL     1       8.086   3.959  -0.398  0.00  0.00    +0.215 C 
BRANCH   9  10
ATOM     10  C   UNL     1       8.866   5.204  -0.305  0.00  0.00    +0.072 C 
ATOM     11  N   UNL     1       9.469   6.165  -0.233  0.00  0.00    -0.196 NA
ENDBRANCH   9  10
ENDBRANCH   6   9
ENDBRANCH   4   5
ENDBRANCH   1   3
BRANCH   1  12
ATOM     12  C   UNL     1       3.552   0.085   0.468  0.00  0.00    -0.069 C 
BRANCH  12  13
ATOM     13  N   UNL     1       3.434   0.804  -0.807  0.00  0.00    +0.380 N 
ATOM     14  C   UNL     1       2.209   0.417  -1.518  0.00  0.00    -0.079 C 
ATOM     15  C   UNL     1       2.191   1.072  -2.901  0.00  0.00    -0.019 C 
ATOM     16  C   UNL     1       2.253   2.594  -2.741  0.00  0.00    -0.004 C 
ATOM     17  C   UNL     1       3.514   2.966  -1.956  0.00  0.00    -0.019 C 
ATOM     18  C   UNL     1       3.493   2.257  -0.601  0.00  0.00    -0.079 C 
ATOM     19  H   UNL     1       4.290   0.521  -1.437  0.00  0.00    -0.082 HD
ENDBRANCH  12  13
ENDBRANCH   1  12
BRANCH   1  20
ATOM     20  C   UNL     1       5.256  -0.522   2.191  0.00  0.00    +0.067 C 
BRANCH  20  21
ATOM     21  C   UNL     1       6.538  -0.092   2.857  0.00  0.00    +0.092 A 
ATOM     22  C   UNL     1       7.649   0.294   2.078  0.00  0.00    +0.200 A 
ATOM     23  O   UNL     1       7.600   0.289   0.859  0.00  0.00    -0.287 OA
ATOM     24  C   UNL     1       8.871   0.708   2.796  0.00  0.00    +0.065 A 
ATOM     25  C   UNL     1      10.015   1.109   2.110  0.00  0.00    +0.015 A 
ATOM     26  C   UNL     1      11.137   1.482   2.818  0.00  0.00    +0.001 A 
ATOM     27  C   UNL     1      11.128   1.460   4.205  0.00  0.00    +0.004 A 
ATOM     28  C   UNL     1      10.002   1.065   4.895  0.00  0.00    +0.047 A 
ATOM     29  C   UNL     1       8.861   0.685   4.199  0.00  0.00    +0.143 A 
ATOM     30  O   UNL     1       7.747   0.294   4.854  0.00  0.00    -0.422 OA
ATOM     31  C   UNL     1       6.633  -0.079   4.213  0.00  0.00    +0.345 A 
ATOM     32  O   UNL     1       5.561  -0.457   4.941  0.00  0.00    -0.245 OA
ENDBRANCH  20  21
BRANCH  20  33
ATOM     33  C   UNL     1       5.485  -1.814   1.450  0.00  0.00    -0.039 A 
ATOM     34  C   UNL     1       6.007  -1.793   0.170  0.00  0.00    +0.004 A 
ATOM     35  C   UNL     1       6.221  -2.978  -0.509  0.00  0.00    +0.000 A 
ATOM     36  C   UNL     1       5.903  -4.184   0.089  0.00  0.00    +0.000 A 
ATOM     37  C   UNL     1       5.376  -4.204   1.367  0.00  0.00    +0.000 A 
ATOM     38  C   UNL     1       5.167  -3.019   2.047  0.00  0.00    +0.004 A 
ENDBRANCH  20  33
ENDBRANCH   1  20
TORSDOF 9
