REMARK  Name = ZINC34374845
REMARK  14 active torsions:
REMARK  status: ('A' for Active; 'I' for Inactive)
REMARK    1  A    between atoms: C_1  and  C_2
REMARK    2  A    between atoms: C_4  and  O_39
REMARK    3  A    between atoms: C_6  and  O_35
REMARK    4  A    between atoms: C_8  and  O_34
REMARK    5  A    between atoms: C_10  and  O_13
REMARK    6  A    between atoms: O_13  and  C_14
REMARK    7  A    between atoms: C_18  and  O_33
REMARK    8  A    between atoms: C_20  and  O_32
REMARK    9  A    between atoms: C_24  and  C_25
REMARK   10  A    between atoms: C_28  and  O_31
REMARK   11  A    between atoms: O_35  and  C_36
REMARK   12  A    between atoms: C_36  and  C_38
REMARK   13  A    between atoms: O_39  and  C_40
REMARK   14  A    between atoms: C_40  and  C_42
REMARK                            x       y       z     vdW  Elec       q    Type
REMARK                         _______ _______ _______ _____ _____    ______ ____
ROOT
ATOM      1  C   UNL     1      -1.269  -2.112   2.432  0.00  0.00    +0.214 A 
ATOM      2  C   UNL     1      -0.813  -2.569   3.695  0.00  0.00    +0.238 A 
ATOM      3  O   UNL     1       0.274  -3.112   3.818  0.00  0.00    -0.283 OA
ATOM      4  C   UNL     1      -1.700  -2.363   4.851  0.00  0.00    +0.109 A 
ATOM      5  C   UNL     1      -1.329  -2.783   6.135  0.00  0.00    +0.135 A 
ATOM      6  C   UNL     1      -2.190  -2.571   7.196  0.00  0.00    +0.091 A 
ATOM      7  C   UNL     1      -3.415  -1.945   6.987  0.00  0.00    +0.124 A 
ATOM      8  C   UNL     1      -3.788  -1.527   5.719  0.00  0.00    +0.092 A 
ATOM      9  C   UNL     1      -2.938  -1.731   4.643  0.00  0.00    +0.147 A 
ATOM     10  O   UNL     1      -3.287  -1.329   3.403  0.00  0.00    -0.451 OA
ATOM     11  C   UNL     1      -2.486  -1.505   2.338  0.00  0.00    +0.181 A 
ENDROOT
BRANCH  11  12
ATOM     12  C   UNL     1      -2.942  -1.031   1.019  0.00  0.00    +0.021 A 
ATOM     13  C   UNL     1      -2.891  -1.882  -0.089  0.00  0.00    +0.015 A 
ATOM     14  C   UNL     1      -3.319  -1.434  -1.319  0.00  0.00    +0.046 A 
ATOM     15  C   UNL     1      -3.802  -0.139  -1.460  0.00  0.00    +0.117 A 
ATOM     16  C   UNL     1      -3.855   0.711  -0.361  0.00  0.00    +0.046 A 
ATOM     17  C   UNL     1      -3.434   0.270   0.874  0.00  0.00    +0.015 A 
BRANCH  15  18
ATOM     18  O   UNL     1      -4.222   0.299  -2.675  0.00  0.00    -0.507 OA
ATOM     19  H   UNL     1      -5.160   0.141  -2.847  0.00  0.00    +0.292 HD
ENDBRANCH  15  18
ENDBRANCH  11  12
BRANCH   7  20
ATOM     20  O   UNL     1      -4.253  -1.742   8.035  0.00  0.00    -0.507 OA
ATOM     21  H   UNL     1      -4.120  -0.897   8.488  0.00  0.00    +0.292 HD
ENDBRANCH   7  20
BRANCH   5  22
ATOM     22  O   UNL     1      -0.134  -3.394   6.337  0.00  0.00    -0.506 OA
ATOM     23  H   UNL     1       0.589  -2.785   6.543  0.00  0.00    +0.292 HD
ENDBRANCH   5  22
BRANCH   1  24
ATOM     24  O   UNL     1      -0.495  -2.272   1.324  0.00  0.00    -0.453 OA
BRANCH  24  30
ATOM     25  C   UNL     1      -0.315   1.567  -0.361  0.00  0.00    +0.042 C 
ATOM     26  C   UNL     1      -0.116   0.059  -0.198  0.00  0.00    +0.164 C 
ATOM     27  C   UNL     1       0.737  -0.471  -1.354  0.00  0.00    +0.248 C 
ATOM     28  C   UNL     1       0.983  -1.970  -1.152  0.00  0.00    +0.254 C 
ATOM     29  C   UNL     1       1.649  -2.187   0.210  0.00  0.00    +0.227 C 
ATOM     30  C   UNL     1       0.761  -1.591   1.305  0.00  0.00    +0.341 C 
ATOM     31  O   UNL     1       0.547  -0.203   1.040  0.00  0.00    -0.333 OA
BRANCH  29  32
ATOM     32  O   UNL     1       1.819  -3.587   0.441  0.00  0.00    -0.382 OA
ATOM     33  H   UNL     1       2.236  -3.799   1.287  0.00  0.00    +0.210 HD
ENDBRANCH  29  32
BRANCH  28  34
ATOM     34  O   UNL     1      -0.263  -2.668  -1.193  0.00  0.00    -0.455 OA
BRANCH  34  35
ATOM     35  C   UNL     1      -0.239  -3.931  -1.646  0.00  0.00    +0.304 C 
ATOM     36  O   UNL     1       0.806  -4.428  -1.996  0.00  0.00    -0.251 OA
ATOM     37  C   UNL     1      -1.515  -4.731  -1.718  0.00  0.00    +0.136 C 
ENDBRANCH  34  35
ENDBRANCH  28  34
BRANCH  27  38
ATOM     38  O   UNL     1       0.051  -0.261  -2.590  0.00  0.00    -0.455 OA
BRANCH  38  39
ATOM     39  C   UNL     1       0.279   0.900  -3.223  0.00  0.00    +0.304 C 
ATOM     40  O   UNL     1       1.036   1.711  -2.745  0.00  0.00    -0.251 OA
ATOM     41  C   UNL     1      -0.409   1.192  -4.532  0.00  0.00    +0.136 C 
ENDBRANCH  38  39
ENDBRANCH  27  38
ENDBRANCH  24  30
ENDBRANCH   1  24
TORSDOF 11
