REMARK  Name = ZINC08629595
REMARK  8 active torsions:
REMARK  status: ('A' for Active; 'I' for Inactive)
REMARK    1  A    between atoms: C_4  and  C_7
REMARK    2  A    between atoms: C_7  and  C_9
REMARK    3  A    between atoms: C_7  and  O_19
REMARK    4  A    between atoms: N_11  and  C_12
REMARK    5  A    between atoms: O_19  and  C_20
REMARK    6  A    between atoms: C_20  and  C_22
REMARK    7  A    between atoms: C_22  and  N_23
REMARK    8  A    between atoms: C_24  and  C_26
REMARK                            x       y       z     vdW  Elec       q    Type
REMARK                         _______ _______ _______ _____ _____    ______ ____
ROOT
ATOM      1  C   UNL     1       8.104   4.327  -0.058  0.00  0.00    +0.292 C 
ENDROOT
BRANCH   1   5
ATOM      2  C   UNL     1       8.946   5.458  -4.090  0.00  0.00    +0.000 A 
ATOM      3  C   UNL     1       8.823   6.427  -3.112  0.00  0.00    +0.000 A 
ATOM      4  C   UNL     1       8.550   6.061  -1.807  0.00  0.00    +0.008 A 
ATOM      5  C   UNL     1       8.401   4.726  -1.480  0.00  0.00    +0.002 A 
ATOM      6  C   UNL     1       8.529   3.757  -2.457  0.00  0.00    +0.008 A 
ATOM      7  C   UNL     1       8.797   4.123  -3.763  0.00  0.00    +0.000 A 
ENDBRANCH   1   5
BRANCH   1   8
ATOM      8  C   UNL     1       9.392   3.984   0.647  0.00  0.00    +0.263 C 
ATOM      9  O   UNL     1       9.591   2.850   1.028  0.00  0.00    -0.271 OA
ATOM     10  N   UNL     1      10.321   4.937   0.854  0.00  0.00    -0.282 N 
ATOM     11  H   UNL     1      10.192   5.828   0.491  0.00  0.00    +0.155 HD
BRANCH  10  12
ATOM     12  C   UNL     1      11.474   4.643   1.592  0.00  0.00    +0.034 A 
ATOM     13  C   UNL     1      12.042   5.611   2.409  0.00  0.00    +0.026 A 
ATOM     14  C   UNL     1      13.176   5.317   3.141  0.00  0.00    +0.040 A 
ATOM     15  C   UNL     1      13.752   4.061   3.052  0.00  0.00    +0.124 A 
ATOM     16  C   UNL     1      13.191   3.096   2.233  0.00  0.00    +0.040 A 
ATOM     17  C   UNL     1      12.054   3.384   1.504  0.00  0.00    +0.026 A 
ATOM     18  F   UNL     1      14.864   3.776   3.765  0.00  0.00    -0.205 F 
ENDBRANCH  10  12
ENDBRANCH   1   8
BRANCH   1  19
ATOM     19  O   UNL     1       7.226   3.170  -0.052  0.00  0.00    -0.446 OA
BRANCH  19  20
ATOM     20  C   UNL     1       5.905   3.408  -0.046  0.00  0.00    +0.325 C 
ATOM     21  O   UNL     1       5.496   4.545  -0.045  0.00  0.00    -0.249 OA
BRANCH  20  22
ATOM     22  C   UNL     1       4.933   2.257  -0.040  0.00  0.00    +0.225 C 
BRANCH  22  23
ATOM     23  N   UNL     1       3.563   2.775  -0.034  0.00  0.00    -0.300 N 
ATOM     24  C   UNL     1       2.519   1.922  -0.028  0.00  0.00    +0.253 C 
ATOM     25  O   UNL     1       2.716   0.721  -0.028  0.00  0.00    -0.270 OA
ATOM     26  H   UNL     1       3.406   3.732  -0.034  0.00  0.00    +0.150 HD
BRANCH  24  27
ATOM     27  C   UNL     1       1.146   2.441  -0.022  0.00  0.00    +0.093 A 
ATOM     28  C   UNL     1      -0.024   1.746  -0.016  0.00  0.00    +0.068 A 
ATOM     29  C   UNL     1      -1.250   2.437  -0.016  0.00  0.00    +0.008 A 
ATOM     30  C   UNL     1      -2.562   1.897  -0.015  0.00  0.00    +0.010 A 
ATOM     31  C   UNL     1      -3.648   2.711  -0.015  0.00  0.00    +0.001 A 
ATOM     32  C   UNL     1      -3.522   4.095  -0.016  0.00  0.00    +0.001 A 
ATOM     33  C   UNL     1      -2.264   4.662  -0.008  0.00  0.00    +0.016 A 
ATOM     34  C   UNL     1      -1.151   3.848  -0.012  0.00  0.00    +0.021 A 
ATOM     35  S   UNL     1       0.600   4.140  -0.021  0.00  0.00    -0.082 S 
ATOM     36 CL   UNL     1      -0.003   0.010  -0.015  0.00  0.00    -0.082 Cl
ENDBRANCH  24  27
ENDBRANCH  22  23
ENDBRANCH  20  22
ENDBRANCH  19  20
ENDBRANCH   1  19
TORSDOF 8
