REMARK  Name = ZINC63373250
REMARK  10 active torsions:
REMARK  status: ('A' for Active; 'I' for Inactive)
REMARK    1  A    between atoms: C_1  and  C_2
REMARK    2  A    between atoms: C_2  and  C_3
REMARK    3  A    between atoms: C_3  and  O_4
REMARK    4  A    between atoms: O_4  and  C_5
REMARK    5  A    between atoms: C_8  and  C_14
REMARK    6  A    between atoms: C_10  and  O_11
REMARK    7  A    between atoms: O_11  and  C_12
REMARK    8  A    between atoms: C_12  and  C_13
REMARK    9  A    between atoms: N_20  and  C_35
REMARK   10  A    between atoms: C_23  and  C_34
REMARK                            x       y       z     vdW  Elec       q    Type
REMARK                         _______ _______ _______ _____ _____    ______ ____
ROOT
ATOM      1  C   UNL     1      -6.396  -4.569   0.073  0.00  0.00    +0.065 C 
ATOM      2  C   UNL     1      -7.218  -4.139   1.305  0.00  0.00    +0.123 C 
ATOM      3  N   UNL     1      -8.623  -4.482   1.065  0.00  0.00    -0.268 N 
ATOM      4  C   UNL     1      -9.436  -5.227   1.825  0.00  0.00    +0.317 C 
ATOM      5  O   UNL     1      -9.138  -5.644   2.927  0.00  0.00    -0.252 OA
ATOM      6  N   UNL     1     -10.614  -5.458   1.232  0.00  0.00    -0.192 N 
ATOM      7  C   UNL     1     -10.705  -4.828   0.043  0.00  0.00    +0.253 C 
ATOM      8  O   UNL     1     -11.634  -4.866  -0.736  0.00  0.00    -0.272 OA
ATOM      9  C   UNL     1      -9.409  -4.065  -0.119  0.00  0.00    +0.137 C 
ATOM     10  C   UNL     1      -8.651  -4.569  -1.353  0.00  0.00    +0.139 C 
ATOM     11  C   UNL     1      -7.190  -4.181  -1.149  0.00  0.00    -0.027 C 
ATOM     12  C   UNL     1      -6.843  -3.468  -2.216  0.00  0.00    -0.000 A 
ATOM     13  C   UNL     1      -5.553  -2.891  -2.629  0.00  0.00    +0.010 A 
ATOM     14  C   UNL     1      -5.556  -2.190  -3.794  0.00  0.00    +0.001 A 
ATOM     15  C   UNL     1      -6.699  -2.007  -4.579  0.00  0.00    +0.002 A 
ATOM     16  C   UNL     1      -7.923  -2.509  -4.280  0.00  0.00    +0.026 A 
ATOM     17  C   UNL     1      -8.045  -3.272  -3.082  0.00  0.00    +0.043 A 
ATOM     18  N   UNL     1      -9.088  -3.884  -2.571  0.00  0.00    -0.375 N 
ATOM     19  C   UNL     1      -9.635  -2.553  -0.155  0.00  0.00    +0.044 C 
ATOM     20  H   UNL     1      -9.989  -3.885  -2.930  0.00  0.00    +0.160 HD
ENDROOT
BRANCH   6  21
ATOM     21  C   UNL     1     -11.629  -6.255   1.780  0.00  0.00    +0.048 A 
ATOM     22  C   UNL     1     -12.864  -6.340   1.151  0.00  0.00    +0.024 A 
ATOM     23  C   UNL     1     -13.862  -7.126   1.692  0.00  0.00    +0.005 A 
ATOM     24  C   UNL     1     -13.633  -7.830   2.860  0.00  0.00    +0.038 A 
ATOM     25  C   UNL     1     -12.403  -7.748   3.491  0.00  0.00    +0.125 A 
ATOM     26  C   UNL     1     -11.398  -6.967   2.949  0.00  0.00    +0.062 A 
ATOM     27  F   UNL     1     -12.182  -8.437   4.632  0.00  0.00    -0.205 F 
ENDBRANCH   6  21
BRANCH   1  31
ATOM     28  C   UNL     1      -2.626  -2.551   0.063  0.00  0.00    +0.162 A 
ATOM     29  C   UNL     1      -3.805  -1.823   0.048  0.00  0.00    +0.050 A 
ATOM     30  C   UNL     1      -5.022  -2.478   0.051  0.00  0.00    +0.008 A 
ATOM     31  C   UNL     1      -5.067  -3.860   0.070  0.00  0.00    -0.035 A 
ATOM     32  C   UNL     1      -3.894  -4.592   0.085  0.00  0.00    +0.053 A 
ATOM     33  C   UNL     1      -2.671  -3.942   0.075  0.00  0.00    +0.162 A 
BRANCH  28  34
ATOM     34  O   UNL     1      -1.428  -1.908   0.059  0.00  0.00    -0.488 OA
BRANCH  34  35
ATOM     35  C   UNL     1      -1.458  -0.479   0.046  0.00  0.00    +0.229 C 
BRANCH  35  37
ATOM     36  C   UNL     1      -0.060   1.591   0.029  0.00  0.00    +0.007 C 
ATOM     37  C   UNL     1      -0.027   0.062   0.044  0.00  0.00    +0.038 C 
ENDBRANCH  35  37
ENDBRANCH  34  35
ENDBRANCH  28  34
BRANCH  33  38
ATOM     38  O   UNL     1      -1.517  -4.661   0.084  0.00  0.00    -0.489 OA
BRANCH  38  39
ATOM     39  C   UNL     1      -1.639  -6.084   0.097  0.00  0.00    +0.226 C 
ATOM     40  C   UNL     1      -0.246  -6.716   0.106  0.00  0.00    +0.048 C 
ENDBRANCH  38  39
ENDBRANCH  33  38
ENDBRANCH   1  31
TORSDOF 7
