REMARK  Name = ZINC66194853
REMARK  9 active torsions:
REMARK  status: ('A' for Active; 'I' for Inactive)
REMARK    1  A    between atoms: C_1  and  C_2
REMARK    2  A    between atoms: C_2  and  C_3
REMARK    3  A    between atoms: C_3  and  C_4
REMARK    4  A    between atoms: C_4  and  C_6
REMARK    5  A    between atoms: C_4  and  N_17
REMARK    6  A    between atoms: N_20  and  C_21
REMARK    7  A    between atoms: C_21  and  C_23
REMARK    8  A    between atoms: C_21  and  C_24
REMARK    9  A    between atoms: C_26  and  C_29
REMARK                            x       y       z     vdW  Elec       q    Type
REMARK                         _______ _______ _______ _____ _____    ______ ____
ROOT
ATOM      1  C   UNL     1       0.739  -2.027  -1.265  0.00  0.00    +0.161 C 
ENDROOT
BRANCH   1   2
ATOM      2  C   UNL     1       1.334  -2.514  -2.561  0.00  0.00    +0.236 C 
ATOM      3  O   UNL     1       2.335  -3.198  -2.550  0.00  0.00    -0.274 OA
ATOM      4  N   UNL     1       0.753  -2.190  -3.733  0.00  0.00    -0.295 N 
ATOM      5  C   UNL     1       1.321  -2.665  -5.004  0.00  0.00    +0.113 C 
ATOM      6  C   UNL     1       0.307  -3.614  -5.661  0.00  0.00    +0.061 C 
ATOM      7  C   UNL     1      -1.058  -3.020  -5.533  0.00  0.00    -0.004 A 
ATOM      8  C   UNL     1      -1.460  -2.020  -4.702  0.00  0.00    -0.020 A 
ATOM      9  C   UNL     1      -2.802  -1.651  -4.772  0.00  0.00    +0.013 A 
ATOM     10  C   UNL     1      -3.632  -2.276  -5.638  0.00  0.00    +0.046 A 
ATOM     11  S   UNL     1      -2.532  -3.447  -6.421  0.00  0.00    -0.101 S 
ATOM     12  C   UNL     1      -0.461  -1.363  -3.759  0.00  0.00    +0.143 C 
ENDBRANCH   1   2
BRANCH   1  13
ATOM     13  N   UNL     1       1.548  -2.511  -0.144  0.00  0.00    -0.288 N 
ATOM     14  C   UNL     1       0.993  -2.654   1.076  0.00  0.00    +0.301 C 
ATOM     15  O   UNL     1      -0.179  -2.381   1.246  0.00  0.00    -0.253 OA
ATOM     16  N   UNL     1       1.738  -3.099   2.107  0.00  0.00    -0.288 N 
ATOM     17  H   UNL     1       2.484  -2.728  -0.280  0.00  0.00    +0.151 HD
ATOM     18  H   UNL     1       2.674  -3.316   1.972  0.00  0.00    +0.151 HD
BRANCH  16  19
ATOM     19  C   UNL     1       1.135  -3.254   3.433  0.00  0.00    +0.160 C 
ATOM     20  C   UNL     1       0.453  -4.621   3.526  0.00  0.00    +0.038 C 
BRANCH  19  21
ATOM     21  C   UNL     1       2.206  -3.154   4.488  0.00  0.00    +0.247 A 
ATOM     22  N   UNL     1       2.127  -2.470   5.595  0.00  0.00    -0.195 NA
ATOM     23  C   UNL     1       3.257  -2.603   6.299  0.00  0.00    +0.169 A 
ATOM     24  N   UNL     1       4.074  -3.377   5.643  0.00  0.00    -0.062 NA
ATOM     25  O   UNL     1       3.402  -3.756   4.451  0.00  0.00    -0.336 OA
ATOM     26  C   UNL     1       3.540  -1.961   7.633  0.00  0.00    +0.091 C 
ENDBRANCH  19  21
ENDBRANCH  16  19
ENDBRANCH   1  13
BRANCH   1  27
ATOM     27  C   UNL     1       0.718  -0.497  -1.257  0.00  0.00    +0.031 C 
BRANCH  27  29
ATOM     28  C   UNL     1      -0.019   1.526   0.010  0.00  0.00    +0.004 C 
ATOM     29  C   UNL     1       0.002  -0.004   0.002  0.00  0.00    -0.001 C 
ENDBRANCH  27  29
ENDBRANCH   1  27
TORSDOF 6
