REMARK  Name = ZINC23261978
REMARK  8 active torsions:
REMARK  status: ('A' for Active; 'I' for Inactive)
REMARK    1  A    between atoms: C_1  and  C_2
REMARK    2  A    between atoms: C_2  and  C_3
REMARK    3  A    between atoms: C_3  and  C_29
REMARK    4  A    between atoms: N_6  and  C_10
REMARK    5  A    between atoms: C_10  and  C_11
REMARK    6  A    between atoms: N_13  and  C_14
REMARK    7  A    between atoms: C_14  and  C_16
REMARK    8  A    between atoms: C_14  and  C_22
REMARK                            x       y       z     vdW  Elec       q    Type
REMARK                         _______ _______ _______ _____ _____    ______ ____
ROOT
ATOM      1  C   UNL     1      -1.331   2.079   0.020  0.00  0.00    +0.213 C 
ENDROOT
BRANCH   1   5
ATOM      2  C   UNL     1      -0.716   5.690  -0.598  0.00  0.00    +0.138 C 
ATOM      3  C   UNL     1      -0.960   4.275  -1.085  0.00  0.00    +0.251 C 
ATOM      4  O   UNL     1      -1.032   3.899  -2.235  0.00  0.00    -0.272 OA
ATOM      5  N   UNL     1      -1.083   3.523   0.026  0.00  0.00    -0.215 N 
ATOM      6  C   UNL     1      -0.956   4.259   1.137  0.00  0.00    +0.310 C 
ATOM      7  O   UNL     1      -1.034   3.804   2.261  0.00  0.00    -0.252 OA
ATOM      8  N   UNL     1      -0.730   5.558   0.869  0.00  0.00    -0.281 N 
ATOM      9  H   UNL     1      -0.572   6.443   1.503  0.00  0.00    +0.152 HD
BRANCH   2  10
ATOM     10  C   UNL     1       0.623   6.190  -1.075  0.00  0.00    -0.015 A 
ATOM     11  C   UNL     1       0.721   6.859  -2.281  0.00  0.00    +0.007 A 
ATOM     12  C   UNL     1       1.948   7.323  -2.716  0.00  0.00    +0.020 A 
ATOM     13  C   UNL     1       3.080   7.109  -1.950  0.00  0.00    +0.041 A 
ATOM     14  C   UNL     1       2.982   6.436  -0.746  0.00  0.00    +0.020 A 
ATOM     15  C   UNL     1       1.754   5.977  -0.309  0.00  0.00    +0.007 A 
ATOM     16 CL   UNL     1       4.622   7.686  -2.500  0.00  0.00    -0.084 Cl
ENDBRANCH   2  10
BRANCH   2  18
ATOM     17  C   UNL     1      -3.156   6.194  -0.424  0.00  0.00    +0.007 C 
ATOM     18  C   UNL     1      -1.835   6.622  -1.066  0.00  0.00    +0.037 C 
ENDBRANCH   2  18
ENDBRANCH   1   5
BRANCH   1  19
ATOM     19  C   UNL     1      -0.016   1.344   0.009  0.00  0.00    +0.232 C 
ATOM     20  O   UNL     1       1.026   1.964   0.003  0.00  0.00    -0.274 OA
ATOM     21  N   UNL     1       0.002  -0.004   0.002  0.00  0.00    -0.303 N 
ATOM     22  H   UNL     1      -0.943  -0.567   0.008  0.00  0.00    +0.150 HD
BRANCH  21  23
ATOM     23  C   UNL     1       1.281  -0.719  -0.014  0.00  0.00    +0.134 C 
BRANCH  23  24
ATOM     24  C   UNL     1       1.085  -2.085  -0.620  0.00  0.00    -0.023 A 
ATOM     25  C   UNL     1      -0.046  -2.820  -0.316  0.00  0.00    +0.007 A 
ATOM     26  C   UNL     1      -0.229  -4.071  -0.875  0.00  0.00    +0.020 A 
ATOM     27  C   UNL     1       0.725  -4.591  -1.732  0.00  0.00    +0.041 A 
ATOM     28  C   UNL     1       1.859  -3.857  -2.032  0.00  0.00    +0.020 A 
ATOM     29  C   UNL     1       2.038  -2.605  -1.476  0.00  0.00    +0.007 A 
ATOM     30 CL   UNL     1       0.499  -6.164  -2.430  0.00  0.00    -0.084 Cl
ENDBRANCH  23  24
BRANCH  23  31
ATOM     31  C   UNL     1       1.793  -0.864   1.396  0.00  0.00    -0.023 A 
ATOM     32  C   UNL     1       0.915  -1.151   2.424  0.00  0.00    +0.006 A 
ATOM     33  C   UNL     1       1.385  -1.288   3.717  0.00  0.00    +0.000 A 
ATOM     34  C   UNL     1       2.733  -1.129   3.982  0.00  0.00    +0.000 A 
ATOM     35  C   UNL     1       3.610  -0.837   2.955  0.00  0.00    +0.000 A 
ATOM     36  C   UNL     1       3.140  -0.705   1.661  0.00  0.00    +0.006 A 
ENDBRANCH  23  31
ENDBRANCH  21  23
ENDBRANCH   1  19
TORSDOF 7
