REMARK  Name = ZINC14034697
REMARK  8 active torsions:
REMARK  status: ('A' for Active; 'I' for Inactive)
REMARK    1  A    between atoms: C_1  and  C_2
REMARK    2  A    between atoms: C_2  and  C_3
REMARK    3  A    between atoms: C_2  and  C_4
REMARK    4  A    between atoms: C_2  and  C_5
REMARK    5  A    between atoms: C_14  and  C_16
REMARK    6  A    between atoms: C_16  and  C_17
REMARK    7  A    between atoms: N_19  and  C_20
REMARK    8  A    between atoms: C_23  and  C_26
REMARK                            x       y       z     vdW  Elec       q    Type
REMARK                         _______ _______ _______ _____ _____    ______ ____
ROOT
ATOM      1  C   UNL     1       5.049   4.279   0.059  0.00  0.00    +0.122 C 
ENDROOT
BRANCH   1  11
ATOM      2  C   UNL     1       2.793   6.808   3.674  0.00  0.00    +0.055 A 
ATOM      3  C   UNL     1       2.198   5.873   2.878  0.00  0.00    +0.094 A 
ATOM      4  C   UNL     1       2.809   5.504   1.675  0.00  0.00    +0.255 A 
ATOM      5  O   UNL     1       2.284   4.669   0.957  0.00  0.00    -0.268 OA
ATOM      6  N   UNL     1       3.995   6.079   1.302  0.00  0.00    -0.283 N 
ATOM      7  C   UNL     1       4.522   7.003   2.152  0.00  0.00    +0.172 A 
ATOM      8  N   UNL     1       3.945   7.348   3.284  0.00  0.00    -0.227 NA
ATOM      9  S   UNL     1       6.041   7.571   1.418  0.00  0.00    -0.086 S 
ATOM     10  C   UNL     1       6.029   6.560  -0.104  0.00  0.00    +0.103 C 
ATOM     11  C   UNL     1       4.721   5.773   0.071  0.00  0.00    +0.112 C 
BRANCH   2  13
ATOM     12  C   UNL     1       0.851   6.449   5.173  0.00  0.00    +0.017 C 
ATOM     13  C   UNL     1       2.156   7.222   4.975  0.00  0.00    +0.005 C 
ATOM     14  C   UNL     1       3.110   6.915   6.131  0.00  0.00    +0.017 C 
ATOM     15  C   UNL     1       1.861   8.723   4.943  0.00  0.00    +0.017 C 
ENDBRANCH   2  13
ENDBRANCH   1  11
BRANCH   1  16
ATOM     16  C   UNL     1       5.665   3.910  -1.266  0.00  0.00    +0.219 C 
ATOM     17  O   UNL     1       5.727   4.732  -2.156  0.00  0.00    -0.275 OA
ATOM     18  N   UNL     1       6.147   2.667  -1.462  0.00  0.00    -0.285 N 
ATOM     19  H   UNL     1       6.030   1.988  -0.779  0.00  0.00    +0.155 HD
BRANCH  18  20
ATOM     20  C   UNL     1       6.815   2.357  -2.646  0.00  0.00    +0.033 A 
ATOM     21  C   UNL     1       6.711   1.079  -3.188  0.00  0.00    +0.024 A 
ATOM     22  C   UNL     1       7.369   0.770  -4.357  0.00  0.00    +0.015 A 
ATOM     23  C   UNL     1       8.142   1.741  -5.000  0.00  0.00    +0.037 A 
ATOM     24  C   UNL     1       8.245   3.023  -4.453  0.00  0.00    +0.015 A 
ATOM     25  C   UNL     1       7.584   3.325  -3.283  0.00  0.00    +0.024 A 
BRANCH  23  26
ATOM     26  C   UNL     1       8.849   1.413  -6.253  0.00  0.00    +0.242 C 
ATOM     27  O   UNL     1       8.759   0.297  -6.728  0.00  0.00    -0.270 OA
ATOM     28  N   UNL     1       9.594   2.350  -6.872  0.00  0.00    -0.325 N 
ATOM     29  H   UNL     1       9.666   3.240  -6.493  0.00  0.00    +0.145 HD
ATOM     30  H   UNL     1      10.058   2.134  -7.696  0.00  0.00    +0.145 HD
ENDBRANCH  23  26
ENDBRANCH  18  20
ENDBRANCH   1  16
TORSDOF 5
