REMARK  Name = ZINC11335784
REMARK  6 active torsions:
REMARK  status: ('A' for Active; 'I' for Inactive)
REMARK    1  A    between atoms: C_1  and  N_2
REMARK    2  A    between atoms: N_2  and  C_3
REMARK    3  A    between atoms: C_6  and  C_11
REMARK    4  A    between atoms: C_11  and  C_25
REMARK    5  A    between atoms: C_12  and  C_13
REMARK    6  A    between atoms: C_16  and  N_19
REMARK                            x       y       z     vdW  Elec       q    Type
REMARK                         _______ _______ _______ _____ _____    ______ ____
ROOT
ATOM      1  C   UNL     1      -0.064   0.195  -0.699  0.00  0.00    +0.097 C 
ATOM      2  C   UNL     1      -0.016   1.361   0.009  0.00  0.00    +0.030 C 
ENDROOT
BRANCH   1   8
ATOM      3  C   UNL     1      -1.309  -4.146  -2.813  0.00  0.00    +0.132 C 
ATOM      4  N   UNL     1      -2.452  -3.739  -1.992  0.00  0.00    -0.306 N 
ATOM      5  C   UNL     1      -3.647  -4.583  -1.931  0.00  0.00    +0.132 C 
ATOM      6  C   UNL     1      -2.402  -2.560  -1.275  0.00  0.00    +0.222 A 
ATOM      7  N   UNL     1      -1.317  -1.794  -1.330  0.00  0.00    -0.194 NA
ATOM      8  C   UNL     1      -1.270  -0.657  -0.639  0.00  0.00    +0.177 A 
ATOM      9  N   UNL     1      -2.308  -0.292   0.111  0.00  0.00    -0.194 NA
ATOM     10  C   UNL     1      -3.394  -1.056   0.160  0.00  0.00    +0.217 A 
ATOM     11  N   UNL     1      -3.440  -2.191  -0.531  0.00  0.00    -0.181 NA
ATOM     12  N   UNL     1      -4.472  -0.674   0.932  0.00  0.00    -0.327 N 
ATOM     13  H   UNL     1      -5.263  -1.234   0.971  0.00  0.00    +0.145 HD
ATOM     14  H   UNL     1      -4.439   0.154   1.436  0.00  0.00    +0.145 HD
ENDBRANCH   1   8
BRANCH   2  15
ATOM     15  C   UNL     1       1.229   2.131   0.070  0.00  0.00    -0.024 A 
ATOM     16  C   UNL     1       2.466   1.475  -0.009  0.00  0.00    +0.010 A 
ATOM     17  C   UNL     1       3.623   2.198   0.042  0.00  0.00    +0.024 A 
ATOM     18  C   UNL     1       3.577   3.583   0.184  0.00  0.00    +0.030 A 
ATOM     19  C   UNL     1       2.350   4.238   0.269  0.00  0.00    +0.024 A 
ATOM     20  C   UNL     1       1.187   3.525   0.213  0.00  0.00    +0.010 A 
BRANCH  18  21
ATOM     21  N   UNL     1       4.758   4.313   0.242  0.00  0.00    -0.330 N 
ATOM     22  C   UNL     1       4.783   5.356  -0.792  0.00  0.00    +0.105 C 
ATOM     23  C   UNL     1       6.026   6.230  -0.607  0.00  0.00    +0.019 C 
ATOM     24  C   UNL     1       7.278   5.355  -0.708  0.00  0.00    +0.003 C 
ATOM     25  C   UNL     1       7.205   4.248   0.347  0.00  0.00    +0.019 C 
ATOM     26  C   UNL     1       5.928   3.432   0.135  0.00  0.00    +0.105 C 
ENDBRANCH  18  21
ENDBRANCH   2  15
BRANCH   1  27
ATOM     27  C   UNL     1       1.054  -0.201  -1.501  0.00  0.00    +0.103 C 
ATOM     28  N   UNL     1       1.941  -0.516  -2.138  0.00  0.00    -0.191 NA
ENDBRANCH   1  27
TORSDOF 4
