REMARK  Name = ZINC10913083
REMARK  7 active torsions:
REMARK  status: ('A' for Active; 'I' for Inactive)
REMARK    1  A    between atoms: C_4  and  C_7
REMARK    2  A    between atoms: C_7  and  C_9
REMARK    3  A    between atoms: C_7  and  O_19
REMARK    4  A    between atoms: N_11  and  C_12
REMARK    5  A    between atoms: O_19  and  C_20
REMARK    6  A    between atoms: C_20  and  C_22
REMARK    7  A    between atoms: C_22  and  C_23
REMARK                            x       y       z     vdW  Elec       q    Type
REMARK                         _______ _______ _______ _____ _____    ______ ____
ROOT
ATOM      1  C   UNL     1       2.422  -4.239  -0.260  0.00  0.00    +0.292 C 
ENDROOT
BRANCH   1   5
ATOM      2  C   UNL     1       0.539  -5.387  -3.918  0.00  0.00    +0.000 A 
ATOM      3  C   UNL     1      -0.191  -5.357  -2.745  0.00  0.00    +0.000 A 
ATOM      4  C   UNL     1       0.418  -4.986  -1.561  0.00  0.00    +0.008 A 
ATOM      5  C   UNL     1       1.757  -4.644  -1.551  0.00  0.00    +0.002 A 
ATOM      6  C   UNL     1       2.486  -4.668  -2.725  0.00  0.00    +0.008 A 
ATOM      7  C   UNL     1       1.878  -5.044  -3.908  0.00  0.00    +0.000 A 
ENDBRANCH   1   5
BRANCH   1   8
ATOM      8  C   UNL     1       2.407  -2.737  -0.138  0.00  0.00    +0.263 C 
ATOM      9  O   UNL     1       3.450  -2.118  -0.144  0.00  0.00    -0.271 OA
ATOM     10  N   UNL     1       1.236  -2.081  -0.021  0.00  0.00    -0.282 N 
ATOM     11  H   UNL     1       0.407  -2.579   0.061  0.00  0.00    +0.155 HD
BRANCH  10  12
ATOM     12  C   UNL     1       1.214  -0.681  -0.019  0.00  0.00    +0.034 A 
ATOM     13  C   UNL     1       2.138   0.030  -0.774  0.00  0.00    +0.026 A 
ATOM     14  C   UNL     1       2.115   1.411  -0.770  0.00  0.00    +0.040 A 
ATOM     15  C   UNL     1       1.171   2.087  -0.014  0.00  0.00    +0.124 A 
ATOM     16  C   UNL     1       0.249   1.379   0.739  0.00  0.00    +0.040 A 
ATOM     17  C   UNL     1       0.269  -0.002   0.738  0.00  0.00    +0.026 A 
ATOM     18  F   UNL     1       1.151   3.437  -0.011  0.00  0.00    -0.205 F 
ENDBRANCH  10  12
ENDBRANCH   1   8
BRANCH   1  19
ATOM     19  O   UNL     1       3.794  -4.712  -0.253  0.00  0.00    -0.447 OA
BRANCH  19  20
ATOM     20  C   UNL     1       4.015  -5.935   0.255  0.00  0.00    +0.314 C 
ATOM     21  O   UNL     1       3.091  -6.588   0.679  0.00  0.00    -0.250 OA
BRANCH  20  22
ATOM     22  C   UNL     1       5.414  -6.493   0.296  0.00  0.00    +0.178 C 
BRANCH  22  23
ATOM     23  C   UNL     1       5.388  -7.870   0.908  0.00  0.00    +0.080 A 
ATOM     24  C   UNL     1       6.630  -8.628   1.054  0.00  0.00    +0.011 A 
ATOM     25  C   UNL     1       7.862  -8.110   0.650  0.00  0.00    +0.010 A 
ATOM     26  C   UNL     1       8.996  -8.855   0.814  0.00  0.00    +0.001 A 
ATOM     27  C   UNL     1       8.942 -10.122   1.382  0.00  0.00    +0.001 A 
ATOM     28  C   UNL     1       7.741 -10.657   1.795  0.00  0.00    +0.014 A 
ATOM     29  C   UNL     1       6.572  -9.915   1.638  0.00  0.00    +0.050 A 
ATOM     30  C   UNL     1       5.262 -10.428   2.057  0.00  0.00    +0.272 A 
ATOM     31  O   UNL     1       5.160 -11.533   2.560  0.00  0.00    -0.266 OA
ATOM     32  N   UNL     1       4.172  -9.653   1.874  0.00  0.00    -0.242 N 
ATOM     33  H   UNL     1       3.304  -9.987   2.150  0.00  0.00    +0.192 HD
ATOM     34  N   UNL     1       4.261  -8.385   1.301  0.00  0.00    -0.175 NA
ENDBRANCH  22  23
ENDBRANCH  20  22
ENDBRANCH  19  20
ENDBRANCH   1  19
TORSDOF 7
