REMARK  Name = ZINC15280741
REMARK  12 active torsions:
REMARK  status: ('A' for Active; 'I' for Inactive)
REMARK    1  A    between atoms: C_1  and  C_2
REMARK    2  A    between atoms: C_2  and  C_3
REMARK    3  A    between atoms: C_2  and  C_4
REMARK    4  A    between atoms: C_4  and  C_6
REMARK    5  A    between atoms: C_4  and  S_12
REMARK    6  A    between atoms: S_12  and  C_13
REMARK    7  A    between atoms: C_17  and  C_19
REMARK    8  A    between atoms: C_19  and  C_20
REMARK    9  A    between atoms: C_19  and  C_21
REMARK   10  A    between atoms: C_19  and  C_22
REMARK   11  A    between atoms: N_23  and  C_30
REMARK   12  A    between atoms: N_26  and  C_29
REMARK                            x       y       z     vdW  Elec       q    Type
REMARK                         _______ _______ _______ _____ _____    ______ ____
ROOT
ATOM      1  C   UNL     1       0.173   2.862   4.589  0.00  0.00    +0.116 A 
ATOM      2  C   UNL     1      -0.523   2.595   3.399  0.00  0.00    +0.114 A 
ATOM      3  C   UNL     1       0.214   2.352   2.225  0.00  0.00    +0.154 A 
ATOM      4  N   UNL     1       1.538   2.383   2.283  0.00  0.00    -0.213 NA
ATOM      5  C   UNL     1       2.153   2.639   3.422  0.00  0.00    +0.138 A 
ATOM      6  N   UNL     1       1.506   2.872   4.546  0.00  0.00    -0.224 NA
ATOM      7  N   UNL     1      -0.470   2.090   1.057  0.00  0.00    -0.281 N 
ATOM      8  C   UNL     1      -1.814   2.073   1.040  0.00  0.00    +0.333 A 
ATOM      9  O   UNL     1      -2.379   1.842  -0.012  0.00  0.00    -0.246 OA
ATOM     10  N   UNL     1      -2.560   2.293   2.134  0.00  0.00    -0.263 N 
ATOM     11  C   UNL     1      -1.987   2.560   3.329  0.00  0.00    +0.268 A 
ATOM     12  O   UNL     1      -2.666   2.764   4.317  0.00  0.00    -0.267 OA
ATOM     13  C   UNL     1      -4.021   2.251   2.030  0.00  0.00    +0.157 C 
ATOM     14  C   UNL     1       0.276   1.834  -0.178  0.00  0.00    +0.155 C 
ENDROOT
BRANCH   5  15
ATOM     15  C   UNL     1       3.660   2.664   3.439  0.00  0.00    +0.022 C 
ATOM     16  C   UNL     1       4.165   3.645   2.379  0.00  0.00    +0.019 C 
ATOM     17  C   UNL     1       4.147   3.108   4.819  0.00  0.00    +0.019 C 
ATOM     18  C   UNL     1       4.197   1.263   3.135  0.00  0.00    +0.019 C 
ENDBRANCH   5  15
BRANCH   1  19
ATOM     19  S   UNL     1      -0.690   3.175   6.093  0.00  0.00    -0.092 S 
BRANCH  19  20
ATOM     20  C   UNL     1       0.706   3.271   7.241  0.00  0.00    +0.141 C 
BRANCH  20  21
ATOM     21  C   UNL     1       1.329   1.907   7.390  0.00  0.00    +0.234 C 
ATOM     22  O   UNL     1       0.695   0.916   7.095  0.00  0.00    -0.274 OA
ATOM     23  N   UNL     1       2.589   1.788   7.852  0.00  0.00    -0.239 N 
ATOM     24  C   UNL     1       3.146   0.568   7.985  0.00  0.00    +0.303 C 
ATOM     25  O   UNL     1       2.511  -0.425   7.689  0.00  0.00    -0.253 OA
ATOM     26  N   UNL     1       4.407   0.449   8.447  0.00  0.00    -0.313 N 
ATOM     27  H   UNL     1       3.096   2.581   8.088  0.00  0.00    +0.159 HD
ATOM     28  H   UNL     1       4.913   1.242   8.683  0.00  0.00    +0.146 HD
ATOM     29  H   UNL     1       4.808  -0.429   8.543  0.00  0.00    +0.146 HD
ENDBRANCH  20  21
BRANCH  20  31
ATOM     30  C   UNL     1       1.394   3.852   9.572  0.00  0.00    +0.009 C 
ATOM     31  C   UNL     1       0.212   3.758   8.605  0.00  0.00    +0.005 C 
ATOM     32  C   UNL     1      -0.432   5.137   8.451  0.00  0.00    +0.009 C 
ENDBRANCH  20  31
ENDBRANCH  19  20
ENDBRANCH   1  19
TORSDOF 5
