REMARK  Name = ZINC37299439
REMARK  3 active torsions:
REMARK  status: ('A' for Active; 'I' for Inactive)
REMARK    1  A    between atoms: C_10  and  N_12
REMARK    2  A    between atoms: N_12  and  C_13
REMARK    3  A    between atoms: C_17  and  N_19
REMARK                            x       y       z     vdW  Elec       q    Type
REMARK                         _______ _______ _______ _____ _____    ______ ____
ROOT
ATOM      1  N   UNL     1       4.666   0.194   0.730  0.00  0.00    -0.336 N 
ATOM      2  H   UNL     1       4.306   0.725   1.458  0.00  0.00    +0.147 HD
ENDROOT
BRANCH   1  12
ATOM      3  C   UNL     1      -0.017   1.371   0.010  0.00  0.00    +0.000 A 
ATOM      4  C   UNL     1       1.181   2.063   0.002  0.00  0.00    +0.000 A 
ATOM      5  C   UNL     1       2.365   1.366  -0.023  0.00  0.00    +0.006 A 
ATOM      6  C   UNL     1       2.392  -0.034  -0.035  0.00  0.00    -0.023 A 
ATOM      7  C   UNL     1       1.204  -0.714  -0.011  0.00  0.00    -0.033 A 
ATOM      8  C   UNL     1       0.002  -0.004   0.002  0.00  0.00    +0.005 A 
ATOM      9  C   UNL     1       1.050  -2.215   0.031  0.00  0.00    +0.104 C 
ATOM     10  S   UNL     1       2.585  -3.020  -0.506  0.00  0.00    -0.154 S 
ATOM     11  C   UNL     1       3.840  -2.063   0.403  0.00  0.00    +0.096 C 
ATOM     12  C   UNL     1       3.771  -0.626  -0.091  0.00  0.00    +0.111 C 
ENDBRANCH   1  12
BRANCH   1  13
ATOM     13  C   UNL     1       6.037   0.211   0.464  0.00  0.00    +0.030 A 
ATOM     14  C   UNL     1       6.553  -0.544  -0.581  0.00  0.00    +0.024 A 
ATOM     15  C   UNL     1       7.909  -0.525  -0.842  0.00  0.00    +0.024 A 
ATOM     16  C   UNL     1       8.754   0.245  -0.062  0.00  0.00    +0.071 A 
ATOM     17  C   UNL     1       8.243   0.999   0.980  0.00  0.00    +0.146 A 
ATOM     18  C   UNL     1       6.887   0.988   1.241  0.00  0.00    +0.057 A 
ATOM     19 CL   UNL     1      10.459   0.267  -0.392  0.00  0.00    -0.081 Cl
BRANCH  17  20
ATOM     20  N   UNL     1       9.150   1.821   1.812  0.00  0.00    +0.058 N 
ATOM     21  O   UNL     1       8.704   2.479   2.723  0.00  0.00    -0.126 OA
ATOM     22  O   UNL     1      10.337   1.835   1.581  0.00  0.00    -0.126 OA
ENDBRANCH  17  20
ENDBRANCH   1  13
TORSDOF 3
