REMARK  Name = ZINC39886137
REMARK  4 active torsions:
REMARK  status: ('A' for Active; 'I' for Inactive)
REMARK    1  A    between atoms: C_1  and  O_2
REMARK    2  A    between atoms: O_2  and  C_3
REMARK    3  A    between atoms: C_6  and  C_9
REMARK    4  A    between atoms: N_12  and  C_13
REMARK                            x       y       z     vdW  Elec       q    Type
REMARK                         _______ _______ _______ _____ _____    ______ ____
ROOT
ATOM      1  C   UNL     1      -4.952  -2.614   0.036  0.00  0.00    +0.026 C 
ATOM      2  C   UNL     1      -5.007  -3.966  -0.068  0.00  0.00    +0.058 C 
ATOM      3  C   UNL     1      -6.184  -4.849  -0.186  0.00  0.00    +0.140 C 
ATOM      4  N   UNL     1      -7.411  -4.376  -0.205  0.00  0.00    -0.231 NA
ATOM      5  N   UNL     1      -5.925  -6.180  -0.274  0.00  0.00    -0.260 N 
ATOM      6  C   UNL     1      -4.658  -6.638  -0.252  0.00  0.00    +0.282 C 
ATOM      7  O   UNL     1      -4.274  -7.791  -0.321  0.00  0.00    -0.262 OA
ATOM      8  S   UNL     1      -3.676  -5.156  -0.106  0.00  0.00    -0.028 S 
ATOM      9  H   UNL     1      -6.660  -6.808  -0.353  0.00  0.00    +0.157 HD
ENDROOT
BRANCH   4  10
ATOM     10  C   UNL     1      -8.471  -5.231  -0.316  0.00  0.00    +0.066 A 
ATOM     11  C   UNL     1      -8.438  -6.274  -1.246  0.00  0.00    +0.030 A 
ATOM     12  C   UNL     1      -9.510  -7.133  -1.353  0.00  0.00    +0.040 A 
ATOM     13  C   UNL     1     -10.621  -6.965  -0.541  0.00  0.00    +0.124 A 
ATOM     14  C   UNL     1     -10.660  -5.933   0.383  0.00  0.00    +0.040 A 
ATOM     15  C   UNL     1      -9.592  -5.069   0.504  0.00  0.00    +0.030 A 
ATOM     16  F   UNL     1     -11.669  -7.810  -0.651  0.00  0.00    -0.205 F 
ENDBRANCH   4  10
BRANCH   1  20
ATOM     17  C   UNL     1      -1.212  -0.623  -0.160  0.00  0.00    +0.120 A 
ATOM     18  C   UNL     1      -1.323  -1.933  -0.610  0.00  0.00    +0.046 A 
ATOM     19  C   UNL     1      -2.535  -2.584  -0.549  0.00  0.00    +0.011 A 
ATOM     20  C   UNL     1      -3.656  -1.924  -0.032  0.00  0.00    -0.024 A 
ATOM     21  C   UNL     1      -3.538  -0.605   0.421  0.00  0.00    +0.011 A 
ATOM     22  C   UNL     1      -2.320   0.035   0.360  0.00  0.00    +0.046 A 
BRANCH  17  24
ATOM     23  C   UNL     1       1.084  -0.720  -0.767  0.00  0.00    +0.277 C 
ATOM     24  O   UNL     1      -0.014   0.014  -0.222  0.00  0.00    -0.495 OA
ENDBRANCH  17  24
ENDBRANCH   1  20
TORSDOF 3
