REMARK  Name = ZINC39661018
REMARK  7 active torsions:
REMARK  status: ('A' for Active; 'I' for Inactive)
REMARK    1  A    between atoms: C_1  and  O_2
REMARK    2  A    between atoms: O_2  and  C_3
REMARK    3  A    between atoms: C_5  and  C_11
REMARK    4  A    between atoms: C_7  and  O_9
REMARK    5  A    between atoms: O_9  and  C_10
REMARK    6  A    between atoms: C_15  and  C_24
REMARK    7  A    between atoms: N_26  and  C_27
REMARK                            x       y       z     vdW  Elec       q    Type
REMARK                         _______ _______ _______ _____ _____    ______ ____
ROOT
ATOM      1  C   UNL     1       1.392  -4.104   2.220  0.00  0.00    +0.247 C 
ATOM      2  O   UNL     1       0.797  -4.772   1.397  0.00  0.00    -0.270 OA
ATOM      3  N   UNL     1       2.097  -4.709   3.196  0.00  0.00    -0.296 N 
ATOM      4  C   UNL     1       2.775  -4.077   4.352  0.00  0.00    +0.121 C 
ATOM      5  C   UNL     1       2.518  -5.043   5.531  0.00  0.00    +0.100 C 
ATOM      6  C   UNL     1       2.255  -6.407   4.870  0.00  0.00    -0.004 C 
ATOM      7  C   UNL     1       2.364  -6.159   3.359  0.00  0.00    +0.115 C 
ATOM      8  C   UNL     1       0.854  -6.901   5.218  0.00  0.00    -0.010 C 
ATOM      9  C   UNL     1       0.637  -8.283   4.597  0.00  0.00    -0.082 C 
ATOM     10  N   UNL     1       1.647  -9.216   5.111  0.00  0.00    +0.379 N 
ATOM     11  C   UNL     1       2.986  -8.784   4.693  0.00  0.00    -0.082 C 
ATOM     12  C   UNL     1       3.303  -7.422   5.317  0.00  0.00    -0.010 C 
ATOM     13  H   UNL     1       1.602  -9.239   6.118  0.00  0.00    -0.086 HD
ATOM     14  H   UNL     1       1.466 -10.140   4.748  0.00  0.00    -0.086 HD
ENDROOT
BRANCH   1  17
ATOM     15  C   UNL     1       2.316  -0.484   2.644  0.00  0.00    +0.124 A 
ATOM     16  C   UNL     1       2.367  -1.866   2.712  0.00  0.00    +0.059 A 
ATOM     17  C   UNL     1       1.342  -2.628   2.150  0.00  0.00    +0.044 A 
ATOM     18  C   UNL     1       0.270  -1.993   1.523  0.00  0.00    +0.059 A 
ATOM     19  C   UNL     1       0.227  -0.610   1.460  0.00  0.00    +0.124 A 
ATOM     20  C   UNL     1       1.245   0.144   2.024  0.00  0.00    +0.091 A 
BRANCH  15  22
ATOM     21  C   UNL     1       3.195   1.680   3.090  0.00  0.00    +0.277 C 
ATOM     22  O   UNL     1       3.314   0.260   3.191  0.00  0.00    -0.495 OA
ENDBRANCH  15  22
BRANCH  19  23
ATOM     23  O   UNL     1      -0.817   0.009   0.848  0.00  0.00    -0.495 OA
ATOM     24  C   UNL     1      -0.797   1.438   0.820  0.00  0.00    +0.277 C 
ENDBRANCH  19  23
ENDBRANCH   1  17
BRANCH   5  25
ATOM     25  C   UNL     1       3.731  -5.115   6.423  0.00  0.00    +0.219 C 
ATOM     26  O   UNL     1       4.829  -4.864   5.975  0.00  0.00    -0.275 OA
ATOM     27  N   UNL     1       3.594  -5.458   7.720  0.00  0.00    -0.304 N 
ATOM     28  H   UNL     1       2.715  -5.658   8.078  0.00  0.00    +0.149 HD
BRANCH  27  29
ATOM     29  C   UNL     1       4.772  -5.528   8.587  0.00  0.00    +0.151 C 
ATOM     30  C   UNL     1       4.343  -5.264  10.032  0.00  0.00    +0.042 C 
ATOM     31  C   UNL     1       5.407  -5.893  10.962  0.00  0.00    +0.079 C 
ATOM     32  S   UNL     1       6.011  -7.294   9.943  0.00  0.00    -0.086 S 
ATOM     33  C   UNL     1       5.419  -6.883   8.429  0.00  0.00    +0.209 C 
ATOM     34  O   UNL     1       5.496  -7.542   7.413  0.00  0.00    -0.283 OA
ENDBRANCH  27  29
ENDBRANCH   5  25
TORSDOF 5
