REMARK  Name = ZINC38899435
REMARK  5 active torsions:
REMARK  status: ('A' for Active; 'I' for Inactive)
REMARK    1  A    between atoms: C_4  and  C_7
REMARK    2  A    between atoms: C_17  and  S_19
REMARK    3  A    between atoms: S_19  and  C_20
REMARK    4  A    between atoms: C_23  and  C_31
REMARK    5  A    between atoms: N_24  and  C_25
REMARK                            x       y       z     vdW  Elec       q    Type
REMARK                         _______ _______ _______ _____ _____    ______ ____
ROOT
ATOM      1  C   UNL     1       3.447  -0.604  -0.153  0.00  0.00    -0.009 C 
ATOM      2  C   UNL     1       4.564   0.163  -0.494  0.00  0.00    +0.002 A 
ATOM      3  C   UNL     1       4.475   1.569  -0.572  0.00  0.00    +0.011 A 
ATOM      4  C   UNL     1       5.574   2.296  -0.905  0.00  0.00    +0.021 A 
ATOM      5  C   UNL     1       6.796   1.680  -1.174  0.00  0.00    +0.043 A 
ATOM      6  C   UNL     1       6.944   0.315  -1.114  0.00  0.00    +0.044 A 
ATOM      7  C   UNL     1       5.846  -0.493  -0.775  0.00  0.00    +0.042 A 
ATOM      8  N   UNL     1       5.991  -1.821  -0.717  0.00  0.00    -0.284 N 
ATOM      9  C   UNL     1       5.011  -2.648  -0.408  0.00  0.00    +0.235 C 
ATOM     10  O   UNL     1       5.216  -3.847  -0.375  0.00  0.00    -0.274 OA
ATOM     11  C   UNL     1       3.637  -2.107  -0.087  0.00  0.00    +0.171 C 
ATOM     12 CL   UNL     1       8.165   2.662  -1.595  0.00  0.00    -0.083 Cl
ATOM     13  H   UNL     1       6.863  -2.197  -0.914  0.00  0.00    +0.155 HD
ENDROOT
BRANCH   1  17
ATOM     14  C   UNL     1      -0.258   1.171   0.669  0.00  0.00    +0.000 A 
ATOM     15  C   UNL     1       0.287   1.274  -0.600  0.00  0.00    +0.001 A 
ATOM     16  C   UNL     1       1.504   0.694  -0.880  0.00  0.00    +0.008 A 
ATOM     17  C   UNL     1       2.193  -0.003   0.126  0.00  0.00    -0.020 A 
ATOM     18  C   UNL     1       1.631  -0.101   1.409  0.00  0.00    +0.008 A 
ATOM     19  C   UNL     1       0.413   0.486   1.669  0.00  0.00    +0.001 A 
ENDBRANCH   1  17
BRANCH  11  20
ATOM     20  S   UNL     1       2.463  -2.867  -1.242  0.00  0.00    -0.068 S 
BRANCH  20  21
ATOM     21  C   UNL     1       2.665  -4.598  -0.978  0.00  0.00    +0.193 A 
ATOM     22  N   UNL     1       3.486  -5.165  -0.123  0.00  0.00    -0.122 NA
ATOM     23  N   UNL     1       3.377  -6.444  -0.189  0.00  0.00    -0.128 NA
ATOM     24  C   UNL     1       2.481  -6.771  -1.090  0.00  0.00    +0.167 A 
ATOM     25  N   UNL     1       1.993  -5.599  -1.619  0.00  0.00    -0.299 N 
BRANCH  25  26
ATOM     26  C   UNL     1       0.969  -5.455  -2.657  0.00  0.00    +0.091 C 
ATOM     27  C   UNL     1       1.582  -4.784  -3.888  0.00  0.00    +0.025 C 
ATOM     28  C   UNL     1       0.512  -4.633  -4.972  0.00  0.00    +0.002 C 
ATOM     29  C   UNL     1      -0.635  -3.772  -4.440  0.00  0.00    +0.000 C 
ATOM     30  C   UNL     1      -1.248  -4.443  -3.208  0.00  0.00    +0.002 C 
ATOM     31  C   UNL     1      -0.178  -4.593  -2.125  0.00  0.00    +0.025 C 
ENDBRANCH  25  26
BRANCH  24  32
ATOM     32  C   UNL     1       2.070  -8.142  -1.463  0.00  0.00    +0.037 A 
ATOM     33  C   UNL     1       1.659  -8.431  -2.769  0.00  0.00    +0.014 A 
ATOM     34  C   UNL     1       1.284  -9.729  -3.067  0.00  0.00    +0.020 A 
ATOM     35  C   UNL     1       1.327 -10.691  -2.073  0.00  0.00    +0.111 A 
ATOM     36  N   UNL     1       1.718 -10.389  -0.850  0.00  0.00    -0.263 NA
ATOM     37  C   UNL     1       2.089  -9.170  -0.519  0.00  0.00    +0.122 A 
ENDBRANCH  24  32
ENDBRANCH  20  21
ENDBRANCH  11  20
TORSDOF 5
