REMARK  Name = ZINC67559618
REMARK  5 active torsions:
REMARK  status: ('A' for Active; 'I' for Inactive)
REMARK    1  A    between atoms: C_4  and  C_7
REMARK    2  A    between atoms: C_10  and  N_12
REMARK    3  A    between atoms: N_15  and  C_16
REMARK    4  A    between atoms: C_19  and  S_22
REMARK    5  A    between atoms: S_22  and  C_25
REMARK                            x       y       z     vdW  Elec       q    Type
REMARK                         _______ _______ _______ _____ _____    ______ ____
ROOT
ATOM      1  N   UNL     1       2.944  -1.755  -2.246  0.00  0.00    -0.296 N 
ATOM      2  C   UNL     1       3.276  -2.110  -3.503  0.00  0.00    +0.304 C 
ATOM      3  O   UNL     1       4.437  -2.338  -3.784  0.00  0.00    -0.253 OA
ATOM      4  N   UNL     1       2.321  -2.213  -4.449  0.00  0.00    -0.269 N 
ATOM      5  H   UNL     1       2.018  -1.573  -2.022  0.00  0.00    +0.151 HD
ATOM      6  H   UNL     1       1.388  -2.097  -4.210  0.00  0.00    +0.156 HD
ENDROOT
BRANCH   4   7
ATOM      7  C   UNL     1       2.675  -2.487  -5.774  0.00  0.00    +0.035 A 
ATOM      8  C   UNL     1       1.959  -1.916  -6.818  0.00  0.00    +0.025 A 
ATOM      9  C   UNL     1       2.312  -2.188  -8.126  0.00  0.00    +0.029 A 
ATOM     10  C   UNL     1       3.377  -3.027  -8.396  0.00  0.00    +0.095 A 
ATOM     11  C   UNL     1       4.092  -3.597  -7.359  0.00  0.00    +0.029 A 
ATOM     12  C   UNL     1       3.748  -3.325  -6.049  0.00  0.00    +0.025 A 
BRANCH  10  13
ATOM     13  S   UNL     1       3.824  -3.371 -10.065  0.00  0.00    +0.058 S 
ATOM     14  O   UNL     1       4.460  -4.641 -10.016  0.00  0.00    -0.164 OA
ATOM     15  O   UNL     1       2.625  -3.190 -10.806  0.00  0.00    -0.164 OA
BRANCH  13  16
ATOM     16  C   UNL     1       5.028  -2.086 -10.500  0.00  0.00    +0.485 C 
ATOM     17  F   UNL     1       4.432  -0.827 -10.373  0.00  0.00    -0.183 F 
ATOM     18  F   UNL     1       6.129  -2.169  -9.642  0.00  0.00    -0.183 F 
ENDBRANCH  13  16
ENDBRANCH  10  13
ENDBRANCH   4   7
BRANCH   1  21
ATOM     19  C   UNL     1       3.706  -0.718  -0.032  0.00  0.00    +0.041 C 
ATOM     20  C   UNL     1       3.679  -2.235   0.161  0.00  0.00    +0.033 C 
ATOM     21  C   UNL     1       3.982  -1.644  -1.218  0.00  0.00    +0.083 C 
BRANCH  19  25
ATOM     22  C   UNL     1      -0.035   1.345   0.027  0.00  0.00    +0.000 A 
ATOM     23  C   UNL     1       1.148   2.059   0.021  0.00  0.00    +0.000 A 
ATOM     24  C   UNL     1       2.359   1.392   0.002  0.00  0.00    +0.004 A 
ATOM     25  C   UNL     1       2.386   0.010  -0.011  0.00  0.00    -0.042 A 
ATOM     26  C   UNL     1       1.203  -0.705  -0.004  0.00  0.00    +0.004 A 
ATOM     27  C   UNL     1      -0.008  -0.037   0.013  0.00  0.00    +0.000 A 
ENDBRANCH  19  25
ENDBRANCH   1  21
TORSDOF 5
