REMARK  Name = ZINC02286655
REMARK  6 active torsions:
REMARK  status: ('A' for Active; 'I' for Inactive)
REMARK    1  A    between atoms: C_9  and  S_11
REMARK    2  A    between atoms: S_11  and  C_12
REMARK    3  A    between atoms: C_12  and  C_13
REMARK    4  A    between atoms: N_15  and  N_16
REMARK    5  A    between atoms: C_17  and  C_18
REMARK    6  A    between atoms: C_23  and  O_24
REMARK                            x       y       z     vdW  Elec       q    Type
REMARK                         _______ _______ _______ _____ _____    ______ ____
ROOT
ATOM      1  C   UNL     1       3.441   6.305   0.002  0.00  0.00    +0.242 C 
ATOM      2  O   UNL     1       4.496   5.707  -0.011  0.00  0.00    -0.273 OA
ATOM      3  N   UNL     1       2.279   5.621   0.009  0.00  0.00    -0.206 N 
ATOM      4  H   UNL     1       1.435   6.099   0.020  0.00  0.00    +0.177 HD
ENDROOT
BRANCH   3   5
ATOM      5  N   UNL     1       2.291   4.220   0.002  0.00  0.00    -0.188 NA
ATOM      6  C   UNL     1       1.172   3.562   0.009  0.00  0.00    +0.142 C 
BRANCH   6   7
ATOM      7  C   UNL     1       1.185   2.088   0.002  0.00  0.00    +0.037 A 
ATOM      8  C   UNL     1      -0.017   1.376   0.010  0.00  0.00    +0.028 A 
ATOM      9  C   UNL     1       0.002  -0.004   0.002  0.00  0.00    +0.019 A 
ATOM     10  C   UNL     1       1.208  -0.686  -0.013  0.00  0.00    +0.019 A 
ATOM     11  C   UNL     1       2.403   0.008  -0.020  0.00  0.00    +0.047 A 
ATOM     12  C   UNL     1       2.402   1.394  -0.013  0.00  0.00    +0.126 A 
ATOM     13 BR   UNL     1      -1.625  -0.968   0.012  0.00  0.00    -0.050 Br
BRANCH  12  14
ATOM     14  O   UNL     1       3.576   2.076  -0.021  0.00  0.00    -0.506 OA
ATOM     15  H   UNL     1       3.908   2.278  -0.906  0.00  0.00    +0.292 HD
ENDBRANCH  12  14
ENDBRANCH   6   7
ENDBRANCH   3   5
BRANCH   1  16
ATOM     16  C   UNL     1       3.428   7.812   0.010  0.00  0.00    +0.171 C 
BRANCH  16  17
ATOM     17  S   UNL     1       5.133   8.431  -0.003  0.00  0.00    -0.114 S 
BRANCH  17  26
ATOM     18  C   UNL     1       3.536  12.133   0.030  0.00  0.00    +0.002 A 
ATOM     19  C   UNL     1       4.617  12.962   0.025  0.00  0.00    +0.010 A 
ATOM     20  C   UNL     1       5.914  12.423   0.010  0.00  0.00    +0.001 A 
ATOM     21  C   UNL     1       7.051  13.253   0.004  0.00  0.00    +0.011 A 
ATOM     22  C   UNL     1       8.281  12.660   0.007  0.00  0.00    +0.020 A 
ATOM     23  C   UNL     1       8.384  11.271  -0.001  0.00  0.00    +0.111 A 
ATOM     24  N   UNL     1       7.322  10.502  -0.001  0.00  0.00    -0.254 NA
ATOM     25  C   UNL     1       6.090  11.018   0.007  0.00  0.00    +0.084 A 
ATOM     26  C   UNL     1       4.950  10.183   0.008  0.00  0.00    +0.034 A 
ATOM     27  C   UNL     1       3.694  10.751   0.022  0.00  0.00    +0.017 A 
ENDBRANCH  17  26
ENDBRANCH  16  17
ENDBRANCH   1  16
TORSDOF 6
