REMARK  Name = ZINC12995695
REMARK  7 active torsions:
REMARK  status: ('A' for Active; 'I' for Inactive)
REMARK    1  A    between atoms: C_1  and  C_2
REMARK    2  A    between atoms: C_2  and  C_4
REMARK    3  A    between atoms: C_2  and  N_20
REMARK    4  A    between atoms: N_20  and  S_21
REMARK    5  A    between atoms: S_21  and  C_24
REMARK    6  A    between atoms: C_27  and  N_30
REMARK    7  A    between atoms: C_31  and  C_33
REMARK                            x       y       z     vdW  Elec       q    Type
REMARK                         _______ _______ _______ _____ _____    ______ ____
ROOT
ATOM      1  C   UNL     1       0.076   2.852   3.091  0.00  0.00    +0.035 C 
ATOM      2  C   UNL     1      -0.987   3.612   2.295  0.00  0.00    +0.159 C 
ENDROOT
BRANCH   2   3
ATOM      3  C   UNL     1      -1.804   4.463   3.232  0.00  0.00    +0.237 C 
ATOM      4  O   UNL     1      -3.000   4.289   3.323  0.00  0.00    -0.274 OA
ATOM      5  N   UNL     1      -1.204   5.419   3.970  0.00  0.00    -0.263 N 
ATOM      6  C   UNL     1      -1.956   6.202   4.832  0.00  0.00    +0.165 A 
ATOM      7  N   UNL     1      -1.557   7.171   5.623  0.00  0.00    -0.224 NA
ATOM      8  C   UNL     1      -2.409   7.857   6.418  0.00  0.00    +0.084 A 
ATOM      9  C   UNL     1      -2.109   8.912   7.310  0.00  0.00    +0.078 A 
ATOM     10  C   UNL     1      -3.097   9.512   8.057  0.00  0.00    +0.164 A 
ATOM     11  C   UNL     1      -4.425   9.097   7.953  0.00  0.00    +0.163 A 
ATOM     12  C   UNL     1      -4.750   8.064   7.088  0.00  0.00    +0.066 A 
ATOM     13  C   UNL     1      -3.764   7.465   6.344  0.00  0.00    +0.044 A 
ATOM     14  S   UNL     1      -3.715   6.155   5.144  0.00  0.00    -0.052 S 
ATOM     15  O   UNL     1      -5.407   9.691   8.684  0.00  0.00    -0.485 OA
ATOM     16  C   UNL     1      -4.988  10.468   9.811  0.00  0.00    +0.270 C 
ATOM     17  C   UNL     1      -3.822  11.362   9.369  0.00  0.00    +0.270 C 
ATOM     18  O   UNL     1      -2.758  10.522   8.910  0.00  0.00    -0.485 OA
ATOM     19  H   UNL     1      -0.247   5.559   3.897  0.00  0.00    +0.157 HD
ENDBRANCH   2   3
BRANCH   2  20
ATOM     20  N   UNL     1      -1.864   2.656   1.615  0.00  0.00    -0.178 NA
ATOM     21  H   UNL     1      -2.622   2.274   2.084  0.00  0.00    +0.149 HD
BRANCH  20  22
ATOM     22  S   UNL     1      -1.561   2.227   0.044  0.00  0.00    +0.059 S 
ATOM     23  O   UNL     1      -1.363   3.436  -0.676  0.00  0.00    -0.153 OA
ATOM     24  O   UNL     1      -2.555   1.279  -0.317  0.00  0.00    -0.153 OA
BRANCH  22  25
ATOM     25  C   UNL     1      -0.020   1.372   0.025  0.00  0.00    +0.105 A 
ATOM     26  C   UNL     1       1.157   2.075  -0.160  0.00  0.00    +0.030 A 
ATOM     27  C   UNL     1       2.365   1.407  -0.181  0.00  0.00    +0.025 A 
ATOM     28  C   UNL     1       2.398   0.029  -0.015  0.00  0.00    +0.033 A 
ATOM     29  C   UNL     1       1.215  -0.674   0.171  0.00  0.00    +0.025 A 
ATOM     30  C   UNL     1       0.010  -0.000   0.191  0.00  0.00    +0.030 A 
BRANCH  28  31
ATOM     31  N   UNL     1       3.622  -0.651  -0.035  0.00  0.00    -0.286 N 
ATOM     32  C   UNL     1       3.690  -1.900  -0.534  0.00  0.00    +0.214 C 
ATOM     33  O   UNL     1       2.715  -2.400  -1.054  0.00  0.00    -0.276 OA
ATOM     34  C   UNL     1       4.979  -2.677  -0.448  0.00  0.00    +0.109 C 
ATOM     35  H   UNL     1       4.420  -0.222   0.311  0.00  0.00    +0.155 HD
ENDBRANCH  28  31
ENDBRANCH  22  25
ENDBRANCH  20  22
ENDBRANCH   2  20
TORSDOF 5
