REMARK  Name = ZINC58940618
REMARK  6 active torsions:
REMARK  status: ('A' for Active; 'I' for Inactive)
REMARK    1  A    between atoms: C_4  and  C_7
REMARK    2  A    between atoms: N_9  and  N_10
REMARK    3  A    between atoms: C_11  and  C_24
REMARK    4  A    between atoms: N_15  and  C_18
REMARK    5  A    between atoms: C_24  and  C_25
REMARK    6  A    between atoms: N_27  and  C_28
REMARK                            x       y       z     vdW  Elec       q    Type
REMARK                         _______ _______ _______ _____ _____    ______ ____
ROOT
ATOM      1  N   UNL     1       4.940  -3.104  -0.137  0.00  0.00    -0.218 N 
ATOM      2  C   UNL     1       5.464  -3.755  -1.350  0.00  0.00    +0.191 C 
ATOM      3  C   UNL     1       6.711  -4.466  -0.862  0.00  0.00    +0.248 C 
ATOM      4  O   UNL     1       7.476  -5.138  -1.521  0.00  0.00    -0.273 OA
ATOM      5  N   UNL     1       6.794  -4.194   0.455  0.00  0.00    -0.219 N 
ATOM      6  C   UNL     1       5.786  -3.414   0.863  0.00  0.00    +0.164 C 
ATOM      7  S   UNL     1       5.592  -2.875   2.476  0.00  0.00    -0.016 S 
ENDROOT
BRANCH   5   8
ATOM      8  C   UNL     1       7.813  -4.666   1.294  0.00  0.00    +0.043 A 
ATOM      9  C   UNL     1       7.495  -5.394   2.433  0.00  0.00    +0.024 A 
ATOM     10  C   UNL     1       8.501  -5.858   3.257  0.00  0.00    +0.002 A 
ATOM     11  C   UNL     1       9.824  -5.598   2.950  0.00  0.00    +0.000 A 
ATOM     12  C   UNL     1      10.144  -4.872   1.817  0.00  0.00    +0.002 A 
ATOM     13  C   UNL     1       9.142  -4.411   0.986  0.00  0.00    +0.024 A 
ENDBRANCH   5   8
BRANCH   1  16
ATOM     14  C   UNL     1       3.898  -0.973   0.064  0.00  0.00    +0.260 C 
ATOM     15  O   UNL     1       4.997  -0.453   0.079  0.00  0.00    -0.269 OA
ATOM     16  N   UNL     1       3.788  -2.312  -0.043  0.00  0.00    -0.228 N 
ATOM     17  H   UNL     1       2.912  -2.727  -0.055  0.00  0.00    +0.173 HD
BRANCH  14  21
ATOM     18  C   UNL     1       0.407   1.429   0.347  0.00  0.00    +0.000 A 
ATOM     19  C   UNL     1       1.655   2.024   0.365  0.00  0.00    +0.001 A 
ATOM     20  C   UNL     1       2.793   1.250   0.274  0.00  0.00    +0.013 A 
ATOM     21  C   UNL     1       2.683  -0.137   0.163  0.00  0.00    +0.038 A 
ATOM     22  C   UNL     1       1.420  -0.731   0.146  0.00  0.00    +0.013 A 
ATOM     23  C   UNL     1       0.290   0.055   0.238  0.00  0.00    +0.001 A 
ENDBRANCH  14  21
ENDBRANCH   1  16
BRANCH   2  24
ATOM     24  C   UNL     1       4.451  -4.758  -1.903  0.00  0.00    +0.129 C 
BRANCH  24  25
ATOM     25  C   UNL     1       3.217  -4.025  -2.362  0.00  0.00    +0.220 C 
ATOM     26  O   UNL     1       3.155  -2.818  -2.257  0.00  0.00    -0.275 OA
ATOM     27  N   UNL     1       2.183  -4.710  -2.890  0.00  0.00    -0.285 N 
ATOM     28  H   UNL     1       2.198  -5.679  -2.900  0.00  0.00    +0.155 HD
BRANCH  27  29
ATOM     29  C   UNL     1       1.086  -4.021  -3.422  0.00  0.00    +0.034 A 
ATOM     30  C   UNL     1       1.276  -2.809  -4.073  0.00  0.00    +0.026 A 
ATOM     31  C   UNL     1       0.193  -2.131  -4.598  0.00  0.00    +0.040 A 
ATOM     32  C   UNL     1      -1.081  -2.659  -4.475  0.00  0.00    +0.124 A 
ATOM     33  C   UNL     1      -1.273  -3.868  -3.827  0.00  0.00    +0.040 A 
ATOM     34  C   UNL     1      -0.192  -4.552  -3.306  0.00  0.00    +0.026 A 
ATOM     35  F   UNL     1      -2.140  -1.995  -4.989  0.00  0.00    -0.205 F 
ENDBRANCH  27  29
ENDBRANCH  24  25
ENDBRANCH   2  24
TORSDOF 6
