REMARK  Name = ZINC02542665
REMARK  9 active torsions:
REMARK  status: ('A' for Active; 'I' for Inactive)
REMARK    1  A    between atoms: C_1  and  C_2
REMARK    2  A    between atoms: C_7  and  C_8
REMARK    3  A    between atoms: N_10  and  C_11
REMARK    4  A    between atoms: C_11  and  C_12
REMARK    5  A    between atoms: N_14  and  N_15
REMARK    6  A    between atoms: C_16  and  C_17
REMARK    7  A    between atoms: C_20  and  O_23
REMARK    8  A    between atoms: O_23  and  C_24
REMARK    9  A    between atoms: C_24  and  C_26
REMARK                            x       y       z     vdW  Elec       q    Type
REMARK                         _______ _______ _______ _____ _____    ______ ____
ROOT
ATOM      1  N   UNL     1       4.921   0.570   0.844  0.00  0.00    -0.188 NA
ATOM      2  C   UNL     1       6.094   0.990   0.479  0.00  0.00    +0.138 C 
ENDROOT
BRANCH   2   3
ATOM      3  C   UNL     1       7.276   0.127   0.662  0.00  0.00    -0.005 A 
ATOM      4  C   UNL     1       7.136  -1.140   1.234  0.00  0.00    +0.013 A 
ATOM      5  C   UNL     1       8.243  -1.944   1.399  0.00  0.00    +0.047 A 
ATOM      6  C   UNL     1       9.497  -1.493   1.007  0.00  0.00    +0.132 A 
ATOM      7  C   UNL     1       9.641  -0.232   0.442  0.00  0.00    +0.047 A 
ATOM      8  C   UNL     1       8.539   0.577   0.269  0.00  0.00    +0.013 A 
BRANCH   6   9
ATOM      9  O   UNL     1      10.586  -2.287   1.177  0.00  0.00    -0.422 OA
BRANCH   9  10
ATOM     10  C   UNL     1      11.336  -2.071   2.274  0.00  0.00    +0.344 C 
ATOM     11  O   UNL     1      10.970  -1.271   3.113  0.00  0.00    -0.245 OA
BRANCH  10  12
ATOM     12  C   UNL     1      12.604  -2.804   2.459  0.00  0.00    +0.059 A 
ATOM     13  C   UNL     1      13.026  -3.728   1.500  0.00  0.00    +0.016 A 
ATOM     14  C   UNL     1      14.214  -4.405   1.675  0.00  0.00    +0.016 A 
ATOM     15  C   UNL     1      14.983  -4.180   2.805  0.00  0.00    +0.018 A 
ATOM     16  C   UNL     1      14.567  -3.270   3.762  0.00  0.00    +0.016 A 
ATOM     17  C   UNL     1      13.384  -2.582   3.596  0.00  0.00    +0.016 A 
ATOM     18 BR   UNL     1      16.607  -5.119   3.041  0.00  0.00    -0.050 Br
ENDBRANCH  10  12
ENDBRANCH   9  10
ENDBRANCH   6   9
ENDBRANCH   2   3
BRANCH   1  21
ATOM     19  C   UNL     1       2.581   0.954   1.050  0.00  0.00    +0.249 C 
ATOM     20  O   UNL     1       2.457  -0.148   1.542  0.00  0.00    -0.272 OA
ATOM     21  N   UNL     1       3.799   1.389   0.670  0.00  0.00    -0.206 N 
ATOM     22  H   UNL     1       3.897   2.270   0.277  0.00  0.00    +0.177 HD
BRANCH  19  23
ATOM     23  C   UNL     1       1.373   1.835   0.863  0.00  0.00    +0.202 C 
BRANCH  23  26
ATOM     24  C   UNL     1      -1.026   1.736   1.279  0.00  0.00    +0.245 C 
ATOM     25  O   UNL     1      -1.123   2.855   0.814  0.00  0.00    -0.270 OA
ATOM     26  N   UNL     1       0.180   1.139   1.351  0.00  0.00    -0.303 N 
ATOM     27  H   UNL     1       0.257   0.246   1.722  0.00  0.00    +0.150 HD
BRANCH  24  34
ATOM     28  C   UNL     1      -3.566   3.120   1.342  0.00  0.00    +0.044 C 
ATOM     29  C   UNL     1      -3.461   1.689   1.800  0.00  0.00    -0.038 A 
ATOM     30  C   UNL     1      -4.582   1.024   2.255  0.00  0.00    +0.004 A 
ATOM     31  C   UNL     1      -4.488  -0.290   2.676  0.00  0.00    +0.000 A 
ATOM     32  C   UNL     1      -3.271  -0.948   2.643  0.00  0.00    +0.001 A 
ATOM     33  C   UNL     1      -2.143  -0.297   2.186  0.00  0.00    +0.013 A 
ATOM     34  C   UNL     1      -2.231   1.031   1.765  0.00  0.00    +0.040 A 
ENDBRANCH  24  34
ENDBRANCH  23  26
ENDBRANCH  19  23
ENDBRANCH   1  21
TORSDOF 8
