REMARK  Name = ZINC67645091
REMARK  9 active torsions:
REMARK  status: ('A' for Active; 'I' for Inactive)
REMARK    1  A    between atoms: C_1  and  N_2
REMARK    2  A    between atoms: N_2  and  C_3
REMARK    3  A    between atoms: N_2  and  C_4
REMARK    4  A    between atoms: C_4  and  C_6
REMARK    5  A    between atoms: C_4  and  C_22
REMARK    6  A    between atoms: C_6  and  N_7
REMARK    7  A    between atoms: N_10  and  C_11
REMARK    8  A    between atoms: N_16  and  S_18
REMARK    9  A    between atoms: S_18  and  C_21
REMARK                            x       y       z     vdW  Elec       q    Type
REMARK                         _______ _______ _______ _____ _____    ______ ____
ROOT
ATOM      1  N   UNL     1      -1.766   1.531  -1.169  0.00  0.00    -0.301 N 
ATOM      2  C   UNL     1      -2.260   2.263  -2.188  0.00  0.00    +0.300 C 
ATOM      3  O   UNL     1      -2.936   1.731  -3.047  0.00  0.00    -0.253 OA
ATOM      4  N   UNL     1      -2.004   3.585  -2.254  0.00  0.00    -0.295 N 
ATOM      5  H   UNL     1      -1.227   1.956  -0.484  0.00  0.00    +0.150 HD
ATOM      6  H   UNL     1      -1.465   4.009  -1.569  0.00  0.00    +0.151 HD
ENDROOT
BRANCH   4   7
ATOM      7  C   UNL     1      -2.541   4.380  -3.361  0.00  0.00    +0.090 C 
ATOM      8  C   UNL     1      -3.967   4.824  -3.026  0.00  0.00    +0.025 C 
ATOM      9  C   UNL     1      -4.541   5.627  -4.196  0.00  0.00    +0.019 C 
ATOM     10  C   UNL     1      -3.685   6.878  -4.419  0.00  0.00    +0.109 C 
ATOM     11  N   UNL     1      -2.285   6.468  -4.598  0.00  0.00    -0.180 NA
ATOM     12  C   UNL     1      -1.662   5.617  -3.575  0.00  0.00    +0.131 C 
BRANCH  11  13
ATOM     13  S   UNL     1      -1.426   6.956  -5.927  0.00  0.00    +0.029 S 
ATOM     14  O   UNL     1      -0.433   5.955  -6.103  0.00  0.00    -0.158 OA
ATOM     15  O   UNL     1      -2.408   7.187  -6.928  0.00  0.00    -0.158 OA
ATOM     16  C   UNL     1      -0.655   8.522  -5.434  0.00  0.00    +0.215 C 
ENDBRANCH  11  13
ENDBRANCH   4   7
BRANCH   1  17
ATOM     17  C   UNL     1      -2.044   0.095  -1.098  0.00  0.00    +0.095 C 
BRANCH  17  18
ATOM     18  C   UNL     1      -1.281  -0.514   0.081  0.00  0.00    -0.021 C 
BRANCH  18  19
ATOM     19  C   UNL     1      -1.799   0.070   1.370  0.00  0.00    -0.059 A 
ATOM     20  C   UNL     1      -2.967  -0.414   1.928  0.00  0.00    +0.005 A 
ATOM     21  C   UNL     1      -3.443   0.120   3.110  0.00  0.00    +0.038 A 
ATOM     22  C   UNL     1      -2.748   1.141   3.736  0.00  0.00    +0.123 A 
ATOM     23  C   UNL     1      -1.578   1.625   3.177  0.00  0.00    +0.038 A 
ATOM     24  C   UNL     1      -1.102   1.086   1.997  0.00  0.00    +0.005 A 
ATOM     25  F   UNL     1      -3.212   1.665   4.892  0.00  0.00    -0.205 F 
ENDBRANCH  18  19
BRANCH  18  27
ATOM     26  C   UNL     1      -0.970  -2.540  -1.166  0.00  0.00    -0.096 C 
ATOM     27  N   UNL     1      -1.476  -1.970   0.090  0.00  0.00    +0.382 N 
ATOM     28  C   UNL     1      -0.744  -2.555   1.222  0.00  0.00    -0.096 C 
ATOM     29  H   UNL     1      -2.459  -2.178   0.182  0.00  0.00    -0.082 HD
ENDBRANCH  18  27
ENDBRANCH  17  18
ENDBRANCH   1  17
TORSDOF 6
