REMARK  Name = ZINC16450344
REMARK  6 active torsions:
REMARK  status: ('A' for Active; 'I' for Inactive)
REMARK    1  A    between atoms: C_4  and  N_32
REMARK    2  A    between atoms: C_5  and  N_7
REMARK    3  A    between atoms: C_8  and  C_10
REMARK    4  A    between atoms: C_10  and  S_11
REMARK    5  A    between atoms: S_11  and  C_12
REMARK    6  A    between atoms: N_24  and  C_25
REMARK                            x       y       z     vdW  Elec       q    Type
REMARK                         _______ _______ _______ _____ _____    ______ ____
ROOT
ATOM      1  C   UNL     1      -7.816  -0.473   0.125  0.00  0.00    +0.178 A 
ATOM      2  N   UNL     1      -7.682   0.819  -0.097  0.00  0.00    -0.215 NA
ATOM      3  C   UNL     1      -8.575   1.684   0.370  0.00  0.00    +0.117 A 
ATOM      4  C   UNL     1      -9.686   1.276   1.122  0.00  0.00    +0.076 A 
ATOM      5  C   UNL     1     -10.588   2.348   1.577  0.00  0.00    -0.023 A 
ATOM      6  C   UNL     1     -10.260   3.603   1.232  0.00  0.00    -0.004 A 
ATOM      7  S   UNL     1      -8.758   3.446   0.293  0.00  0.00    -0.073 S 
ATOM      8  C   UNL     1     -11.248   4.612   1.755  0.00  0.00    +0.043 C 
ATOM      9  C   UNL     1     -12.029   3.857   2.853  0.00  0.00    +0.010 C 
ATOM     10  C   UNL     1     -11.885   2.394   2.389  0.00  0.00    +0.037 C 
ATOM     11  C   UNL     1      -9.806  -0.130   1.354  0.00  0.00    +0.268 A 
ATOM     12  O   UNL     1     -10.741  -0.574   1.998  0.00  0.00    -0.267 OA
ATOM     13  N   UNL     1      -8.870  -0.956   0.850  0.00  0.00    -0.255 N 
ENDROOT
BRANCH  13  14
ATOM     14  C   UNL     1      -8.977  -2.335   1.071  0.00  0.00    +0.052 A 
ATOM     15  C   UNL     1      -9.797  -3.108   0.261  0.00  0.00    +0.028 A 
ATOM     16  C   UNL     1      -9.897  -4.468   0.478  0.00  0.00    +0.022 A 
ATOM     17  C   UNL     1      -9.190  -5.059   1.510  0.00  0.00    +0.041 A 
ATOM     18  C   UNL     1      -8.376  -4.290   2.323  0.00  0.00    +0.022 A 
ATOM     19  C   UNL     1      -8.268  -2.930   2.106  0.00  0.00    +0.028 A 
ATOM     20 CL   UNL     1      -9.322  -6.768   1.785  0.00  0.00    -0.084 Cl
ENDBRANCH  13  14
BRANCH   1  21
ATOM     21  S   UNL     1      -6.616  -1.593  -0.514  0.00  0.00    -0.078 S 
BRANCH  21  22
ATOM     22  C   UNL     1      -5.510  -0.427  -1.348  0.00  0.00    +0.173 C 
BRANCH  22  24
ATOM     23  N   UNL     1      -3.420  -0.516  -2.668  0.00  0.00    -0.283 N 
ATOM     24  C   UNL     1      -4.373  -1.182  -1.987  0.00  0.00    +0.228 C 
ATOM     25  O   UNL     1      -4.317  -2.390  -1.889  0.00  0.00    -0.275 OA
ATOM     26  H   UNL     1      -3.438   0.453  -2.704  0.00  0.00    +0.155 HD
BRANCH  23  31
ATOM     27  C   UNL     1      -1.649  -3.188  -4.468  0.00  0.00    +0.002 A 
ATOM     28  C   UNL     1      -0.398  -2.618  -4.618  0.00  0.00    +0.002 A 
ATOM     29  C   UNL     1      -0.150  -1.349  -4.127  0.00  0.00    +0.034 A 
ATOM     30  C   UNL     1      -1.148  -0.652  -3.476  0.00  0.00    +0.147 A 
ATOM     31  C   UNL     1      -2.405  -1.222  -3.323  0.00  0.00    +0.064 A 
ATOM     32  C   UNL     1      -2.653  -2.494  -3.822  0.00  0.00    +0.025 A 
BRANCH  30  33
ATOM     33  N   UNL     1      -0.880   0.704  -2.945  0.00  0.00    +0.058 N 
ATOM     34  O   UNL     1       0.181   1.252  -3.184  0.00  0.00    -0.126 OA
ATOM     35  O   UNL     1      -1.722   1.273  -2.274  0.00  0.00    -0.126 OA
ENDBRANCH  30  33
ENDBRANCH  23  31
ENDBRANCH  22  24
ENDBRANCH  21  22
ENDBRANCH   1  21
TORSDOF 6
