REMARK  Name = ZINC02343294
REMARK  3 active torsions:
REMARK  status: ('A' for Active; 'I' for Inactive)
REMARK    1  A    between atoms: C_3  and  C_9
REMARK    2  A    between atoms: N_10  and  N_11
REMARK    3  A    between atoms: C_12  and  C_17
REMARK                            x       y       z     vdW  Elec       q    Type
REMARK                         _______ _______ _______ _____ _____    ______ ____
ROOT
ATOM      1  N   UNL     1       5.987   2.238  -0.150  0.00  0.00    -0.192 N 
ATOM      2  C   UNL     1       7.240   1.687  -0.280  0.00  0.00    +0.156 A 
ATOM      3  N   UNL     1       8.110   2.643  -0.359  0.00  0.00    -0.156 NA
ATOM      4  N   UNL     1       7.425   3.864  -0.280  0.00  0.00    -0.253 N 
ATOM      5  C   UNL     1       6.112   3.581  -0.157  0.00  0.00    +0.196 A 
ATOM      6  S   UNL     1       4.838   4.717  -0.029  0.00  0.00    -0.010 S 
ATOM      7  H   UNL     1       7.822   4.748  -0.313  0.00  0.00    +0.191 HD
ENDROOT
BRANCH   2   8
ATOM      8  C   UNL     1       7.550   0.213  -0.322  0.00  0.00    +0.059 C 
ATOM      9  C   UNL     1       7.675  -0.323   1.106  0.00  0.00    +0.011 C 
ATOM     10  C   UNL     1       7.990  -1.819   1.063  0.00  0.00    +0.001 C 
ATOM     11  C   UNL     1       9.307  -2.042   0.317  0.00  0.00    +0.000 C 
ATOM     12  C   UNL     1       9.181  -1.507  -1.111  0.00  0.00    +0.001 C 
ATOM     13  C   UNL     1       8.866  -0.010  -1.068  0.00  0.00    +0.011 C 
ENDBRANCH   2   8
BRANCH   1  15
ATOM     14  C   UNL     1       3.675   2.159   0.192  0.00  0.00    +0.142 C 
ATOM     15  N   UNL     1       4.785   1.527  -0.036  0.00  0.00    -0.171 NA
BRANCH  14  18
ATOM     16  C   UNL     1       0.007   1.410   0.456  0.00  0.00    +0.002 A 
ATOM     17  C   UNL     1       1.200   2.103   0.448  0.00  0.00    +0.011 A 
ATOM     18  C   UNL     1       2.397   1.425   0.203  0.00  0.00    +0.014 A 
ATOM     19  C   UNL     1       2.376   0.047  -0.034  0.00  0.00    +0.068 A 
ATOM     20  C   UNL     1       1.174  -0.633  -0.023  0.00  0.00    +0.060 A 
ATOM     21  C   UNL     1      -0.007   0.047   0.221  0.00  0.00    +0.021 A 
ATOM     22 CL   UNL     1       1.144  -2.344  -0.316  0.00  0.00    -0.082 Cl
ATOM     23 CL   UNL     1       3.857  -0.806  -0.340  0.00  0.00    -0.081 Cl
ENDBRANCH  14  18
ENDBRANCH   1  15
TORSDOF 3
