REMARK  Name = ZINC63399675
REMARK  5 active torsions:
REMARK  status: ('A' for Active; 'I' for Inactive)
REMARK    1  A    between atoms: C_1  and  C_2
REMARK    2  A    between atoms: C_7  and  N_12
REMARK    3  A    between atoms: C_13  and  C_15
REMARK    4  A    between atoms: C_15  and  N_16
REMARK    5  A    between atoms: C_17  and  C_23
REMARK                            x       y       z     vdW  Elec       q    Type
REMARK                         _______ _______ _______ _____ _____    ______ ____
ROOT
ATOM      1  N   UNL     1       4.799  -3.270  -1.392  0.00  0.00    -0.284 N 
ATOM      2  C   UNL     1       5.819  -3.832  -0.712  0.00  0.00    +0.237 C 
ATOM      3  O   UNL     1       5.818  -3.820   0.501  0.00  0.00    -0.274 OA
ATOM      4  H   UNL     1       4.760  -3.346  -2.358  0.00  0.00    +0.155 HD
ENDROOT
BRANCH   1  10
ATOM      5  C   UNL     1       1.285  -0.449   3.887  0.00  0.00    +0.074 C 
ATOM      6  C   UNL     1       1.793   0.066   2.539  0.00  0.00    +0.257 C 
ATOM      7  N   UNL     1       3.162  -0.409   2.300  0.00  0.00    -0.307 N 
ATOM      8  C   UNL     1       3.110  -1.184   1.132  0.00  0.00    +0.074 A 
ATOM      9  C   UNL     1       4.105  -1.870   0.450  0.00  0.00    +0.050 A 
ATOM     10  C   UNL     1       3.796  -2.576  -0.703  0.00  0.00    +0.035 A 
ATOM     11  C   UNL     1       2.490  -2.594  -1.174  0.00  0.00    +0.027 A 
ATOM     12  C   UNL     1       1.499  -1.911  -0.496  0.00  0.00    +0.049 A 
ATOM     13  C   UNL     1       1.802  -1.202   0.660  0.00  0.00    +0.144 A 
ATOM     14  O   UNL     1       0.997  -0.466   1.477  0.00  0.00    -0.469 OA
ATOM     15  H   UNL     1       3.945  -0.224   2.841  0.00  0.00    +0.150 HD
ENDBRANCH   1  10
BRANCH   2  16
ATOM     16  C   UNL     1       6.959  -4.475  -1.459  0.00  0.00    +0.221 C 
BRANCH  16  17
ATOM     17  N   UNL     1       7.931  -5.007  -0.501  0.00  0.00    -0.294 N 
ATOM     18  C   UNL     1       9.011  -4.322   0.023  0.00  0.00    +0.170 A 
ATOM     19  H   UNL     1       9.230  -7.129   1.374  0.00  0.00    +0.191 HD
ATOM     20  N   UNL     1       9.649  -5.117   0.840  0.00  0.00    -0.153 NA
ATOM     21  N   UNL     1       8.980  -6.348   0.856  0.00  0.00    -0.254 N 
ATOM     22  C   UNL     1       7.923  -6.248   0.025  0.00  0.00    +0.176 A 
ATOM     23  S   UNL     1       6.778  -7.478  -0.306  0.00  0.00    -0.011 S 
BRANCH  18  24
ATOM     24  C   UNL     1       9.380  -2.930  -0.288  0.00  0.00    +0.056 A 
ATOM     25  C   UNL     1      10.432  -2.189   0.185  0.00  0.00    +0.019 A 
ATOM     26  C   UNL     1      10.577  -0.892  -0.253  0.00  0.00    +0.008 A 
ATOM     27  C   UNL     1       9.678  -0.387  -1.137  0.00  0.00    +0.046 A 
ATOM     28  S   UNL     1       8.577  -1.771  -1.383  0.00  0.00    -0.094 S 
ENDBRANCH  18  24
ENDBRANCH  16  17
ENDBRANCH   2  16
TORSDOF 4
