REMARK  Name = ZINC41025710
REMARK  5 active torsions:
REMARK  status: ('A' for Active; 'I' for Inactive)
REMARK    1  A    between atoms: C_7  and  N_11
REMARK    2  A    between atoms: N_11  and  C_12
REMARK    3  A    between atoms: C_13  and  C_21
REMARK    4  A    between atoms: N_23  and  C_24
REMARK    5  A    between atoms: C_24  and  C_25
REMARK                            x       y       z     vdW  Elec       q    Type
REMARK                         _______ _______ _______ _____ _____    ______ ____
ROOT
ATOM      1  C   UNL     1       1.767  -4.094  -0.036  0.00  0.00    +0.084 A 
ATOM      2  C   UNL     1       1.176  -5.349  -0.043  0.00  0.00    +0.069 A 
ATOM      3  C   UNL     1       2.062  -6.500  -0.056  0.00  0.00    -0.023 A 
ATOM      4  C   UNL     1       3.375  -6.187  -0.060  0.00  0.00    -0.004 A 
ATOM      5  S   UNL     1       3.415  -4.419  -0.055  0.00  0.00    -0.077 S 
ATOM      6  C   UNL     1       4.528  -7.143  -0.072  0.00  0.00    +0.043 C 
ATOM      7  C   UNL     1       4.002  -8.537   0.302  0.00  0.00    +0.005 C 
ATOM      8  C   UNL     1       2.752  -8.835  -0.530  0.00  0.00    +0.005 C 
ATOM      9  C   UNL     1       1.594  -7.948  -0.065  0.00  0.00    +0.037 C 
ENDROOT
BRANCH   2  10
ATOM     10  C   UNL     1      -0.281  -5.506  -0.036  0.00  0.00    +0.247 C 
ATOM     11  O   UNL     1      -0.892  -5.564  -1.087  0.00  0.00    -0.270 OA
ATOM     12  N   UNL     1      -0.945  -5.587   1.134  0.00  0.00    -0.309 N 
ATOM     13  H   UNL     1      -0.458  -5.541   1.972  0.00  0.00    +0.149 HD
BRANCH  12  14
ATOM     14  C   UNL     1      -2.401  -5.744   1.141  0.00  0.00    +0.136 C 
BRANCH  14  15
ATOM     15  C   UNL     1      -2.900  -5.809   2.586  0.00  0.00    +0.135 C 
ATOM     16  C   UNL     1      -4.417  -6.096   2.604  0.00  0.00    +0.035 C 
ATOM     17  C   UNL     1      -4.910  -5.191   3.765  0.00  0.00    +0.031 C 
ATOM     18  C   UNL     1      -3.951  -3.982   3.623  0.00  0.00    +0.160 C 
ATOM     19  O   UNL     1      -2.689  -4.548   3.231  0.00  0.00    -0.375 OA
ENDBRANCH  14  15
ENDBRANCH  12  14
ENDBRANCH   2  10
BRANCH   1  20
ATOM     20  N   UNL     1       1.143  -2.859  -0.024  0.00  0.00    -0.292 N 
ATOM     21  H   UNL     1       0.175  -2.805  -0.014  0.00  0.00    +0.154 HD
BRANCH  20  28
ATOM     22  C   UNL     1      -0.016   1.297   0.009  0.00  0.00    +0.198 A 
ATOM     23  N   UNL     1       1.259   1.781  -0.000  0.00  0.00    -0.329 N 
ATOM     24  H   UNL     1       1.518   2.715   0.002  0.00  0.00    +0.168 HD
ATOM     25  C   UNL     1       2.107   0.703  -0.014  0.00  0.00    +0.163 A 
ATOM     26  C   UNL     1       1.285  -0.438  -0.013  0.00  0.00    +0.148 A 
ATOM     27  N   UNL     1       0.002  -0.004   0.002  0.00  0.00    -0.231 NA
ATOM     28  C   UNL     1       1.902  -1.700  -0.025  0.00  0.00    +0.154 A 
ATOM     29  N   UNL     1       3.230  -1.756  -0.038  0.00  0.00    -0.218 NA
ATOM     30  C   UNL     1       3.961  -0.657  -0.039  0.00  0.00    +0.225 A 
ATOM     31  N   UNL     1       3.427   0.547  -0.027  0.00  0.00    -0.216 NA
ENDBRANCH  20  28
ENDBRANCH   1  20
TORSDOF 5
