REMARK  Name = ZINC14703507
REMARK  7 active torsions:
REMARK  status: ('A' for Active; 'I' for Inactive)
REMARK    1  A    between atoms: C_1  and  C_2
REMARK    2  A    between atoms: C_2  and  C_4
REMARK    3  A    between atoms: C_2  and  N_22
REMARK    4  A    between atoms: N_6  and  C_7
REMARK    5  A    between atoms: C_11  and  S_13
REMARK    6  A    between atoms: S_13  and  N_16
REMARK    7  A    between atoms: N_22  and  C_23
REMARK                            x       y       z     vdW  Elec       q    Type
REMARK                         _______ _______ _______ _____ _____    ______ ____
ROOT
ATOM      1  C   UNL     1       5.987   3.435   0.415  0.00  0.00    +0.237 C 
ATOM      2  O   UNL     1       5.895   2.251   0.662  0.00  0.00    -0.273 OA
ATOM      3  N   UNL     1       7.141   4.086   0.657  0.00  0.00    -0.284 N 
ATOM      4  H   UNL     1       7.241   5.013   0.389  0.00  0.00    +0.155 HD
ENDROOT
BRANCH   3   5
ATOM      5  C   UNL     1       8.197   3.426   1.294  0.00  0.00    +0.035 A 
ATOM      6  C   UNL     1       9.511   3.739   0.971  0.00  0.00    +0.023 A 
ATOM      7  C   UNL     1      10.551   3.085   1.602  0.00  0.00    +0.004 A 
ATOM      8  C   UNL     1      10.285   2.119   2.555  0.00  0.00    +0.028 A 
ATOM      9  C   UNL     1       8.978   1.805   2.880  0.00  0.00    +0.107 A 
ATOM     10  C   UNL     1       7.934   2.459   2.256  0.00  0.00    +0.051 A 
BRANCH   9  11
ATOM     11  S   UNL     1       8.645   0.574   4.095  0.00  0.00    +0.061 S 
ATOM     12  O   UNL     1       7.341   0.079   3.825  0.00  0.00    -0.153 OA
ATOM     13  O   UNL     1       9.786  -0.272   4.140  0.00  0.00    -0.153 OA
BRANCH  11  14
ATOM     14  N   UNL     1       8.566   1.341   5.561  0.00  0.00    -0.172 NA
ATOM     15  C   UNL     1       9.768   1.509   6.393  0.00  0.00    +0.137 C 
ATOM     16  C   UNL     1       9.864   2.988   6.802  0.00  0.00    +0.177 C 
ATOM     17  O   UNL     1       8.625   3.395   7.387  0.00  0.00    -0.377 OA
ATOM     18  C   UNL     1       7.508   3.326   6.497  0.00  0.00    +0.177 C 
ATOM     19  C   UNL     1       7.291   1.870   6.071  0.00  0.00    +0.137 C 
ENDBRANCH  11  14
ENDBRANCH   9  11
ENDBRANCH   3   5
BRANCH   1  21
ATOM     20  C   UNL     1       5.194   4.764  -1.522  0.00  0.00    +0.038 C 
ATOM     21  C   UNL     1       4.809   4.177  -0.163  0.00  0.00    +0.154 C 
BRANCH  21  22
ATOM     22  N   UNL     1       3.684   3.254  -0.331  0.00  0.00    -0.333 N 
ATOM     23  H   UNL     1       3.848   2.304  -0.435  0.00  0.00    +0.147 HD
BRANCH  22  24
ATOM     24  C   UNL     1       2.379   3.741  -0.340  0.00  0.00    +0.036 A 
ATOM     25  C   UNL     1       2.128   5.093  -0.193  0.00  0.00    +0.024 A 
ATOM     26  C   UNL     1       0.834   5.611  -0.198  0.00  0.00    +0.006 A 
ATOM     27  C   UNL     1      -0.240   4.786  -0.351  0.00  0.00    -0.039 A 
ATOM     28  C   UNL     1      -0.006   3.422  -0.501  0.00  0.00    -0.010 A 
ATOM     29  C   UNL     1       1.284   2.866  -0.500  0.00  0.00    +0.003 A 
ATOM     30  C   UNL     1       1.401   1.477  -0.659  0.00  0.00    +0.010 A 
ATOM     31  C   UNL     1       0.266   0.733  -0.807  0.00  0.00    +0.001 A 
ATOM     32  C   UNL     1      -1.007   1.308  -0.810  0.00  0.00    +0.004 A 
ATOM     33  C   UNL     1      -1.155   2.652  -0.652  0.00  0.00    -0.039 A 
ATOM     34  C   UNL     1      -2.338   3.588  -0.601  0.00  0.00    +0.040 C 
ATOM     35  C   UNL     1      -1.734   4.996  -0.402  0.00  0.00    +0.040 C 
ENDBRANCH  22  24
ENDBRANCH  21  22
ENDBRANCH   1  21
TORSDOF 6
