REMARK  Name = ZINC64343250
REMARK  8 active torsions:
REMARK  status: ('A' for Active; 'I' for Inactive)
REMARK    1  A    between atoms: C_1  and  C_2
REMARK    2  A    between atoms: C_8  and  C_10
REMARK    3  A    between atoms: C_13  and  N_16
REMARK    4  A    between atoms: C_17  and  C_19
REMARK    5  A    between atoms: C_19  and  C_20
REMARK    6  A    between atoms: C_19  and  O_21
REMARK    7  A    between atoms: O_21  and  C_22
REMARK    8  A    between atoms: C_25  and  C_28
REMARK                            x       y       z     vdW  Elec       q    Type
REMARK                         _______ _______ _______ _____ _____    ______ ____
ROOT
ATOM      1  C   UNL     1       2.607  -2.189   0.146  0.00  0.00    +0.017 A 
ATOM      2  C   UNL     1       3.644  -1.858  -0.730  0.00  0.00    +0.013 A 
ATOM      3  C   UNL     1       4.832  -2.553  -0.682  0.00  0.00    +0.024 A 
ATOM      4  C   UNL     1       4.999  -3.585   0.236  0.00  0.00    +0.034 A 
ATOM      5  C   UNL     1       3.969  -3.917   1.109  0.00  0.00    +0.024 A 
ATOM      6  C   UNL     1       2.781  -3.223   1.072  0.00  0.00    +0.013 A 
ENDROOT
BRANCH   1  14
ATOM      7  C   UNL     1      -1.883  -1.513   1.896  0.00  0.00    +0.066 C 
ATOM      8  C   UNL     1      -0.799  -1.121   0.926  0.00  0.00    +0.046 A 
ATOM      9  C   UNL     1      -1.013  -0.105   0.040  0.00  0.00    +0.093 A 
ATOM     10  C   UNL     1       0.014   0.244  -0.857  0.00  0.00    +0.252 A 
ATOM     11  O   UNL     1      -0.143   1.147  -1.662  0.00  0.00    -0.268 OA
ATOM     12  N   UNL     1       1.178  -0.440  -0.809  0.00  0.00    -0.307 N 
ATOM     13  H   UNL     1       1.900  -0.217  -1.417  0.00  0.00    +0.170 HD
ATOM     14  C   UNL     1       1.333  -1.446   0.099  0.00  0.00    +0.141 A 
ATOM     15  N   UNL     1       0.367  -1.762   0.938  0.00  0.00    -0.234 NA
ENDBRANCH   1  14
BRANCH   4  16
ATOM     16  N   UNL     1       6.204  -4.287   0.281  0.00  0.00    -0.282 N 
ATOM     17  C   UNL     1       7.363  -3.656   0.007  0.00  0.00    +0.258 C 
ATOM     18  O   UNL     1       7.370  -2.459  -0.185  0.00  0.00    -0.271 OA
ATOM     19  H   UNL     1       6.207  -5.230   0.510  0.00  0.00    +0.155 HD
BRANCH  17  20
ATOM     20  C   UNL     1       8.649  -4.438  -0.060  0.00  0.00    +0.256 C 
ATOM     21  C   UNL     1       8.588  -5.420  -1.232  0.00  0.00    +0.062 C 
BRANCH  20  22
ATOM     22  O   UNL     1       9.744  -3.539  -0.247  0.00  0.00    -0.480 OA
BRANCH  22  23
ATOM     23  C   UNL     1      10.965  -3.960   0.170  0.00  0.00    +0.122 A 
ATOM     24  C   UNL     1      12.049  -3.091   0.129  0.00  0.00    +0.047 A 
ATOM     25  C   UNL     1      13.290  -3.514   0.552  0.00  0.00    +0.022 A 
ATOM     26  C   UNL     1      13.458  -4.819   1.023  0.00  0.00    +0.052 A 
ATOM     27  C   UNL     1      12.365  -5.689   1.063  0.00  0.00    +0.022 A 
ATOM     28  C   UNL     1      11.127  -5.257   0.643  0.00  0.00    +0.047 A 
BRANCH  26  29
ATOM     29  C   UNL     1      14.746  -5.263   1.464  0.00  0.00    +0.099 C 
ATOM     30  N   UNL     1      15.768  -5.615   1.813  0.00  0.00    -0.191 NA
ENDBRANCH  26  29
ENDBRANCH  22  23
ENDBRANCH  20  22
ENDBRANCH  17  20
ENDBRANCH   4  16
TORSDOF 6
