REMARK  Name = ZINC39664736
REMARK  9 active torsions:
REMARK  status: ('A' for Active; 'I' for Inactive)
REMARK    1  A    between atoms: C_1  and  C_2
REMARK    2  A    between atoms: C_4  and  C_9
REMARK    3  A    between atoms: C_13  and  C_22
REMARK    4  A    between atoms: N_24  and  C_25
REMARK    5  A    between atoms: C_25  and  C_27
REMARK    6  A    between atoms: C_25  and  C_31
REMARK    7  A    between atoms: C_27  and  N_28
REMARK    8  A    between atoms: N_28  and  C_29
REMARK    9  A    between atoms: N_28  and  C_30
REMARK                            x       y       z     vdW  Elec       q    Type
REMARK                         _______ _______ _______ _____ _____    ______ ____
ROOT
ATOM      1  C   UNL     1       0.196  -2.602  -1.725  0.00  0.00    +0.247 C 
ATOM      2  O   UNL     1       0.102  -1.917  -2.724  0.00  0.00    -0.270 OA
ATOM      3  N   UNL     1       0.370  -3.934  -1.835  0.00  0.00    -0.296 N 
ATOM      4  C   UNL     1       0.377  -4.942  -0.749  0.00  0.00    +0.121 C 
ATOM      5  C   UNL     1      -0.370  -6.159  -1.340  0.00  0.00    +0.100 C 
ATOM      6  C   UNL     1      -0.219  -6.009  -2.863  0.00  0.00    -0.004 C 
ATOM      7  C   UNL     1       0.593  -4.723  -3.071  0.00  0.00    +0.115 C 
ATOM      8  C   UNL     1      -1.590  -5.872  -3.519  0.00  0.00    -0.010 C 
ATOM      9  C   UNL     1      -1.417  -5.782  -5.038  0.00  0.00    -0.082 C 
ATOM     10  N   UNL     1      -0.736  -6.988  -5.527  0.00  0.00    +0.379 N 
ATOM     11  C   UNL     1       0.617  -7.063  -4.962  0.00  0.00    -0.082 C 
ATOM     12  C   UNL     1       0.529  -7.207  -3.440  0.00  0.00    -0.010 C 
ATOM     13  H   UNL     1      -1.261  -7.804  -5.250  0.00  0.00    -0.086 HD
ATOM     14  H   UNL     1      -0.678  -6.954  -6.534  0.00  0.00    -0.086 HD
ENDROOT
BRANCH   1  18
ATOM     15  C   UNL     1      -1.196   1.210   1.176  0.00  0.00    +0.047 C 
ATOM     16  C   UNL     1      -0.552  -0.143   1.011  0.00  0.00    -0.015 A 
ATOM     17  C   UNL     1      -0.481  -0.723  -0.238  0.00  0.00    +0.019 A 
ATOM     18  C   UNL     1       0.117  -1.976  -0.390  0.00  0.00    +0.037 A 
ATOM     19  C   UNL     1       0.640  -2.634   0.726  0.00  0.00    +0.016 A 
ATOM     20  C   UNL     1       0.564  -2.045   1.969  0.00  0.00    +0.039 A 
ATOM     21  C   UNL     1      -0.026  -0.798   2.114  0.00  0.00    +0.126 A 
ATOM     22  F   UNL     1      -0.093  -0.223   3.334  0.00  0.00    -0.205 F 
ENDBRANCH   1  18
BRANCH   5  23
ATOM     23  C   UNL     1      -1.825  -6.122  -0.949  0.00  0.00    +0.219 C 
ATOM     24  O   UNL     1      -2.358  -7.114  -0.499  0.00  0.00    -0.275 OA
ATOM     25  N   UNL     1      -2.535  -4.986  -1.099  0.00  0.00    -0.310 N 
ATOM     26  H   UNL     1      -2.093  -4.172  -1.388  0.00  0.00    +0.149 HD
BRANCH  25  27
ATOM     27  C   UNL     1      -3.974  -4.980  -0.826  0.00  0.00    +0.087 C 
BRANCH  27  28
ATOM     28  C   UNL     1      -4.637  -3.904  -1.647  0.00  0.00    -0.029 A 
ATOM     29  C   UNL     1      -4.015  -2.681  -1.816  0.00  0.00    +0.005 A 
ATOM     30  C   UNL     1      -4.623  -1.694  -2.569  0.00  0.00    +0.000 A 
ATOM     31  C   UNL     1      -5.853  -1.931  -3.154  0.00  0.00    +0.000 A 
ATOM     32  C   UNL     1      -6.474  -3.154  -2.986  0.00  0.00    +0.000 A 
ATOM     33  C   UNL     1      -5.864  -4.142  -2.236  0.00  0.00    +0.005 A 
ENDBRANCH  27  28
BRANCH  27  34
ATOM     34  C   UNL     1      -4.210  -4.704   0.661  0.00  0.00    -0.052 C 
BRANCH  34  35
ATOM     35  N   UNL     1      -5.644  -4.816   0.958  0.00  0.00    +0.377 N 
ATOM     36  C   UNL     1      -6.074  -6.209   0.780  0.00  0.00    -0.097 C 
ATOM     37  C   UNL     1      -5.890  -4.401   2.346  0.00  0.00    -0.097 C 
ATOM     38  H   UNL     1      -6.165  -4.221   0.332  0.00  0.00    -0.083 HD
ENDBRANCH  34  35
ENDBRANCH  27  34
ENDBRANCH  25  27
ENDBRANCH   5  23
TORSDOF 6
