REMARK  Name = ZINC39973172
REMARK  7 active torsions:
REMARK  status: ('A' for Active; 'I' for Inactive)
REMARK    1  A    between atoms: C_2  and  C_3
REMARK    2  A    between atoms: C_3  and  N_4
REMARK    3  A    between atoms: C_5  and  C_20
REMARK    4  A    between atoms: C_8  and  S_9
REMARK    5  A    between atoms: S_9  and  C_10
REMARK    6  A    between atoms: C_10  and  C_11
REMARK    7  A    between atoms: C_23  and  C_25
REMARK                            x       y       z     vdW  Elec       q    Type
REMARK                         _______ _______ _______ _____ _____    ______ ____
ROOT
ATOM      1  N   UNL     1       1.360  -1.673   1.114  0.00  0.00    -0.302 N 
ATOM      2  C   UNL     1       1.824  -1.423   2.376  0.00  0.00    +0.138 A 
ATOM      3  N   UNL     1       1.689  -2.521   3.064  0.00  0.00    -0.133 NA
ATOM      4  N   UNL     1       1.175  -3.442   2.329  0.00  0.00    -0.122 NA
ATOM      5  C   UNL     1       0.948  -2.975   1.123  0.00  0.00    +0.192 A 
ENDROOT
BRANCH   2   6
ATOM      6  C   UNL     1       2.388  -0.119   2.878  0.00  0.00    +0.065 C 
ATOM      7  C   UNL     1       2.659   0.003   4.379  0.00  0.00    +0.020 C 
ATOM      8  C   UNL     1       3.827  -0.124   3.398  0.00  0.00    +0.030 C 
BRANCH   8   9
ATOM      9  C   UNL     1       4.662   1.105   3.147  0.00  0.00    -0.044 A 
ATOM     10  C   UNL     1       4.263   2.327   3.655  0.00  0.00    +0.004 A 
ATOM     11  C   UNL     1       5.029   3.455   3.425  0.00  0.00    +0.000 A 
ATOM     12  C   UNL     1       6.194   3.360   2.687  0.00  0.00    +0.000 A 
ATOM     13  C   UNL     1       6.594   2.138   2.180  0.00  0.00    +0.000 A 
ATOM     14  C   UNL     1       5.830   1.009   2.414  0.00  0.00    +0.004 A 
ENDBRANCH   8   9
ENDBRANCH   2   6
BRANCH   1  15
ATOM     15  C   UNL     1       1.310  -0.737  -0.011  0.00  0.00    +0.152 C 
BRANCH  15  17
ATOM     16  C   UNL     1      -0.026   1.307   0.012  0.00  0.00    +0.005 C 
ATOM     17  C   UNL     1      -0.006  -0.003   0.004  0.00  0.00    -0.013 C 
ENDBRANCH  15  17
ENDBRANCH   1  15
BRANCH   5  18
ATOM     18  S   UNL     1       0.247  -3.861  -0.229  0.00  0.00    -0.077 S 
BRANCH  18  19
ATOM     19  C   UNL     1      -0.070  -5.514   0.448  0.00  0.00    +0.173 C 
BRANCH  19  20
ATOM     20  C   UNL     1      -0.678  -6.386  -0.621  0.00  0.00    +0.229 C 
ATOM     21  O   UNL     1      -0.878  -5.936  -1.729  0.00  0.00    -0.275 OA
ATOM     22  N   UNL     1      -1.000  -7.665  -0.344  0.00  0.00    -0.268 N 
ATOM     23  C   UNL     1      -1.659  -8.440  -1.298  0.00  0.00    +0.143 A 
ATOM     24  C   UNL     1      -2.087  -9.726  -0.978  0.00  0.00    +0.154 A 
ATOM     25  N   UNL     1      -2.710 -10.456  -1.883  0.00  0.00    -0.258 NA
ATOM     26  C   UNL     1      -2.929  -9.967  -3.092  0.00  0.00    +0.130 A 
ATOM     27  C   UNL     1      -2.507  -8.691  -3.413  0.00  0.00    +0.132 A 
ATOM     28  N   UNL     1      -1.886  -7.952  -2.510  0.00  0.00    -0.237 NA
ATOM     29  H   UNL     1      -0.774  -8.047   0.518  0.00  0.00    +0.156 HD
ENDBRANCH  19  20
ENDBRANCH  18  19
ENDBRANCH   5  18
TORSDOF 7
