REMARK  Name = ZINC08691569
REMARK  9 active torsions:
REMARK  status: ('A' for Active; 'I' for Inactive)
REMARK    1  A    between atoms: C_1  and  C_2
REMARK    2  A    between atoms: C_2  and  C_3
REMARK    3  A    between atoms: C_2  and  C_4
REMARK    4  A    between atoms: C_4  and  N_5
REMARK    5  A    between atoms: C_14  and  C_26
REMARK    6  A    between atoms: C_14  and  C_30
REMARK    7  A    between atoms: C_16  and  C_18
REMARK    8  A    between atoms: C_18  and  C_19
REMARK    9  A    between atoms: C_19  and  C_20
REMARK                            x       y       z     vdW  Elec       q    Type
REMARK                         _______ _______ _______ _____ _____    ______ ____
ROOT
ATOM      1  N   UNL     1       1.383   0.737  -1.037  0.00  0.00    -0.281 N 
ATOM      2  C   UNL     1       2.103   1.682  -1.724  0.00  0.00    +0.119 A 
ATOM      3  C   UNL     1       3.449   1.784  -1.525  0.00  0.00    +0.100 A 
ATOM      4  C   UNL     1       4.070   0.917  -0.609  0.00  0.00    +0.262 A 
ATOM      5  O   UNL     1       5.270   0.992  -0.409  0.00  0.00    -0.267 OA
ATOM      6  N   UNL     1       3.327   0.003   0.046  0.00  0.00    -0.275 N 
ATOM      7  H   UNL     1       3.752  -0.597   0.679  0.00  0.00    +0.173 HD
ATOM      8  C   UNL     1       2.001  -0.081  -0.164  0.00  0.00    +0.331 A 
ATOM      9  O   UNL     1       1.350  -0.912   0.440  0.00  0.00    -0.246 OA
ATOM     10  C   UNL     1       4.256   2.802  -2.277  0.00  0.00    +0.284 C 
ATOM     11  N   UNL     1       3.398   3.817  -2.876  0.00  0.00    -0.244 NA
ATOM     12  C   UNL     1       2.132   3.670  -3.021  0.00  0.00    +0.097 C 
ATOM     13  N   UNL     1       1.483   2.533  -2.609  0.00  0.00    -0.289 N 
ATOM     14  H   UNL     1       0.594   2.330  -2.939  0.00  0.00    +0.155 HD
ENDROOT
BRANCH  10  15
ATOM     15  C   UNL     1       5.235   3.478  -1.314  0.00  0.00    +0.428 C 
ATOM     16  F   UNL     1       6.292   2.605  -1.035  0.00  0.00    -0.167 F 
ATOM     17  F   UNL     1       5.736   4.645  -1.900  0.00  0.00    -0.167 F 
ATOM     18  F   UNL     1       4.571   3.801  -0.126  0.00  0.00    -0.167 F 
ENDBRANCH  10  15
BRANCH  10  19
ATOM     19  C   UNL     1       5.048   2.099  -3.382  0.00  0.00    +0.428 C 
ATOM     20  F   UNL     1       4.162   1.462  -4.257  0.00  0.00    -0.167 F 
ATOM     21  F   UNL     1       5.803   3.042  -4.087  0.00  0.00    -0.167 F 
ATOM     22  F   UNL     1       5.902   1.150  -2.811  0.00  0.00    -0.167 F 
ENDBRANCH  10  19
BRANCH   1  23
ATOM     23  C   UNL     1      -0.061   0.623  -1.251  0.00  0.00    +0.131 C 
BRANCH  23  25
ATOM     24  C   UNL     1      -0.456   2.995  -0.576  0.00  0.00    +0.009 C 
ATOM     25  C   UNL     1      -0.796   1.536  -0.268  0.00  0.00    +0.003 C 
ATOM     26  C   UNL     1      -2.305   1.324  -0.404  0.00  0.00    +0.009 C 
ENDBRANCH  23  25
ENDBRANCH   1  23
BRANCH  12  27
ATOM     27  C   UNL     1       1.334   4.778  -3.660  0.00  0.00    +0.071 C 
BRANCH  27  28
ATOM     28  C   UNL     1       2.269   5.931  -4.031  0.00  0.00    +0.011 C 
BRANCH  28  29
ATOM     29  C   UNL     1       1.459   7.055  -4.680  0.00  0.00    -0.011 C 
ATOM     30  C   UNL     1       0.877   6.564  -6.007  0.00  0.00    +0.003 C 
ATOM     31  C   UNL     1       0.067   7.688  -6.656  0.00  0.00    +0.000 C 
ATOM     32  C   UNL     1       0.978   8.890  -6.913  0.00  0.00    +0.000 C 
ATOM     33  C   UNL     1       1.561   9.381  -5.586  0.00  0.00    +0.000 C 
ATOM     34  C   UNL     1       2.370   8.257  -4.937  0.00  0.00    +0.003 C 
ENDBRANCH  28  29
ENDBRANCH  27  28
ENDBRANCH  12  27
TORSDOF 7
