REMARK  Name = ZINC31833845
REMARK  6 active torsions:
REMARK  status: ('A' for Active; 'I' for Inactive)
REMARK    1  A    between atoms: C_1  and  C_2
REMARK    2  A    between atoms: C_2  and  O_3
REMARK    3  A    between atoms: O_3  and  C_4
REMARK    4  A    between atoms: C_6  and  C_12
REMARK    5  A    between atoms: C_9  and  O_10
REMARK    6  A    between atoms: N_13  and  N_14
REMARK                            x       y       z     vdW  Elec       q    Type
REMARK                         _______ _______ _______ _____ _____    ______ ____
ROOT
ATOM      1  C   UNL     1       0.210  -1.830  -1.590  0.00  0.00    +0.163 A 
ATOM      2  C   UNL     1       0.123  -2.687  -0.509  0.00  0.00    +0.059 A 
ATOM      3  C   UNL     1      -0.144  -4.043  -0.716  0.00  0.00    -0.001 A 
ATOM      4  C   UNL     1      -0.321  -4.526  -2.015  0.00  0.00    +0.028 A 
ATOM      5  C   UNL     1      -0.233  -3.665  -3.089  0.00  0.00    +0.063 A 
ATOM      6  C   UNL     1       0.026  -2.317  -2.882  0.00  0.00    +0.173 A 
ATOM      7 BR   UNL     1      -0.472  -4.320  -4.847  0.00  0.00    -0.046 Br
ENDROOT
BRANCH   6   8
ATOM      8  O   UNL     1       0.107  -1.471  -3.943  0.00  0.00    -0.503 OA
ATOM      9  H   UNL     1       0.997  -1.387  -4.313  0.00  0.00    +0.292 HD
ENDBRANCH   6   8
BRANCH   3  10
ATOM     10  C   UNL     1      -0.237  -4.962   0.433  0.00  0.00    +0.138 C 
ATOM     11  N   UNL     1      -0.194  -6.245   0.243  0.00  0.00    -0.188 NA
BRANCH  11  12
ATOM     12  N   UNL     1       0.454  -6.765  -0.885  0.00  0.00    -0.217 N 
ATOM     13  C   UNL     1       0.385  -8.104  -1.156  0.00  0.00    +0.156 C 
ATOM     14  N   UNL     1       1.018  -8.611  -2.257  0.00  0.00    -0.380 N 
ATOM     15  S   UNL     1      -0.466  -9.112  -0.150  0.00  0.00    -0.015 SA
ATOM     16  H   UNL     1       0.952  -6.176  -1.473  0.00  0.00    +0.176 HD
ATOM     17  H   UNL     1       1.516  -8.022  -2.845  0.00  0.00    +0.158 HD
ATOM     18  H   UNL     1       0.969  -9.561  -2.450  0.00  0.00    +0.158 HD
ENDBRANCH  11  12
ENDBRANCH   3  10
BRANCH   1  19
ATOM     19  O   UNL     1       0.469  -0.510  -1.391  0.00  0.00    -0.489 OA
BRANCH  19  21
ATOM     20  C   UNL     1       0.927   1.425  -0.017  0.00  0.00    +0.048 C 
ATOM     21  C   UNL     1       0.646  -0.079  -0.040  0.00  0.00    +0.226 C 
ENDBRANCH  19  21
ENDBRANCH   1  19
TORSDOF 5
