REMARK  Name = ZINC21111730
REMARK  5 active torsions:
REMARK  status: ('A' for Active; 'I' for Inactive)
REMARK    1  A    between atoms: C_6  and  C_7
REMARK    2  A    between atoms: C_10  and  S_13
REMARK    3  A    between atoms: S_13  and  C_14
REMARK    4  A    between atoms: C_14  and  C_15
REMARK    5  A    between atoms: N_17  and  C_18
REMARK                            x       y       z     vdW  Elec       q    Type
REMARK                         _______ _______ _______ _____ _____    ______ ____
ROOT
ATOM      1  S   UNL     1      -3.282  -4.087   0.011  0.00  0.00    -0.077 S 
ENDROOT
BRANCH   1   5
ATOM      2  C   UNL     1      -1.271  -0.766  -0.018  0.00  0.00    +0.182 A 
ATOM      3  N   UNL     1      -1.380  -2.102  -0.018  0.00  0.00    -0.201 NA
ATOM      4  H   UNL     1      -4.354  -1.245   0.032  0.00  0.00    +0.191 HD
ATOM      5  C   UNL     1      -2.650  -2.442   0.003  0.00  0.00    +0.185 A 
ATOM      6  N   UNL     1      -3.387  -1.308   0.016  0.00  0.00    -0.253 N 
ATOM      7  N   UNL     1      -2.475  -0.241   0.008  0.00  0.00    -0.152 NA
BRANCH   2  13
ATOM      8  C   UNL     1      -0.016   1.389  -0.036  0.00  0.00    +0.013 A 
ATOM      9  C   UNL     1       1.171   2.093  -0.053  0.00  0.00    +0.016 A 
ATOM     10  C   UNL     1       2.378   1.417  -0.074  0.00  0.00    +0.018 A 
ATOM     11  C   UNL     1       2.402   0.033  -0.076  0.00  0.00    +0.016 A 
ATOM     12  C   UNL     1       1.221  -0.680  -0.058  0.00  0.00    +0.013 A 
ATOM     13  C   UNL     1       0.002  -0.004  -0.037  0.00  0.00    +0.021 A 
ATOM     14 BR   UNL     1       4.001   2.388  -0.099  0.00  0.00    -0.050 Br
ENDBRANCH   2  13
ENDBRANCH   1   5
BRANCH   1  15
ATOM     15  C   UNL     1      -1.796  -5.128  -0.014  0.00  0.00    +0.173 C 
BRANCH  15  16
ATOM     16  C   UNL     1      -2.200  -6.580  -0.009  0.00  0.00    +0.227 C 
ATOM     17  O   UNL     1      -3.374  -6.882   0.010  0.00  0.00    -0.275 OA
ATOM     18  N   UNL     1      -1.256  -7.541  -0.025  0.00  0.00    -0.285 N 
ATOM     19  H   UNL     1      -0.320  -7.301  -0.107  0.00  0.00    +0.155 HD
BRANCH  18  20
ATOM     20  C   UNL     1      -1.627  -8.888   0.077  0.00  0.00    +0.036 A 
ATOM     21  C   UNL     1      -0.817  -9.781   0.766  0.00  0.00    +0.026 A 
ATOM     22  C   UNL     1      -1.183 -11.109   0.867  0.00  0.00    +0.043 A 
ATOM     23  C   UNL     1      -2.357 -11.551   0.281  0.00  0.00    +0.159 A 
ATOM     24  C   UNL     1      -3.168 -10.661  -0.407  0.00  0.00    +0.160 A 
ATOM     25  C   UNL     1      -2.807  -9.330  -0.504  0.00  0.00    +0.064 A 
ATOM     26  F   UNL     1      -4.314 -11.094  -0.978  0.00  0.00    -0.202 F 
ATOM     27  F   UNL     1      -2.713 -12.851   0.381  0.00  0.00    -0.202 F 
ENDBRANCH  18  20
ENDBRANCH  15  16
ENDBRANCH   1  15
TORSDOF 5
