REMARK  Name = ZINC17641328
REMARK  9 active torsions:
REMARK  status: ('A' for Active; 'I' for Inactive)
REMARK    1  A    between atoms: C_1  and  C_2
REMARK    2  A    between atoms: C_3  and  C_33
REMARK    3  A    between atoms: C_11  and  C_13
REMARK    4  A    between atoms: C_13  and  S_14
REMARK    5  A    between atoms: S_14  and  C_15
REMARK    6  A    between atoms: C_15  and  C_17
REMARK    7  A    between atoms: C_15  and  C_18
REMARK    8  A    between atoms: N_20  and  N_21
REMARK    9  A    between atoms: N_21  and  C_22
REMARK                            x       y       z     vdW  Elec       q    Type
REMARK                         _______ _______ _______ _____ _____    ______ ____
ROOT
ATOM      1  C   UNL     1      -0.017  -0.005   0.230  0.00  0.00    +0.131 C 
ATOM      2  C   UNL     1      -0.177  -0.408   1.697  0.00  0.00    +0.029 C 
ENDROOT
BRANCH   1   3
ATOM      3  C   UNL     1      -0.030   1.498   0.117  0.00  0.00    +0.242 C 
ATOM      4  O   UNL     1       1.013   2.107   0.008  0.00  0.00    -0.273 OA
ATOM      5  N   UNL     1      -1.201   2.164   0.132  0.00  0.00    -0.235 N 
ATOM      6  H   UNL     1      -2.036   1.677   0.215  0.00  0.00    +0.173 HD
BRANCH   5   7
ATOM      7  N   UNL     1      -1.214   3.562   0.027  0.00  0.00    -0.259 N 
ATOM      8  H   UNL     1      -0.378   4.055   0.021  0.00  0.00    +0.170 HD
BRANCH   7   9
ATOM      9  C   UNL     1      -2.433   4.246  -0.069  0.00  0.00    +0.121 A 
ATOM     10  C   UNL     1      -3.493   3.684  -0.769  0.00  0.00    +0.186 A 
ATOM     11  C   UNL     1      -4.699   4.360  -0.859  0.00  0.00    +0.198 A 
ATOM     12  C   UNL     1      -4.844   5.602  -0.260  0.00  0.00    +0.199 A 
ATOM     13  C   UNL     1      -3.786   6.167   0.434  0.00  0.00    +0.198 A 
ATOM     14  C   UNL     1      -2.580   5.491   0.530  0.00  0.00    +0.186 A 
ATOM     15  F   UNL     1      -1.549   6.042   1.207  0.00  0.00    -0.200 F 
ATOM     16  F   UNL     1      -3.930   7.377   1.017  0.00  0.00    -0.199 F 
ATOM     17  F   UNL     1      -6.019   6.262  -0.354  0.00  0.00    -0.199 F 
ATOM     18  F   UNL     1      -5.732   3.811  -1.534  0.00  0.00    -0.199 F 
ATOM     19  F   UNL     1      -3.350   2.476  -1.357  0.00  0.00    -0.200 F 
ENDBRANCH   7   9
ENDBRANCH   5   7
ENDBRANCH   1   3
BRANCH   1  20
ATOM     20  S   UNL     1       1.557  -0.645  -0.405  0.00  0.00    -0.141 S 
BRANCH  20  21
ATOM     21  C   UNL     1       1.355  -2.447  -0.343  0.00  0.00    +0.144 C 
BRANCH  21  32
ATOM     22  C   UNL     1       6.484  -6.228  -2.427  0.00  0.00    +0.045 C 
ATOM     23  C   UNL     1       6.180  -4.758  -2.291  0.00  0.00    -0.026 A 
ATOM     24  C   UNL     1       7.093  -3.840  -2.646  0.00  0.00    -0.008 A 
ATOM     25  S   UNL     1       6.277  -2.292  -2.304  0.00  0.00    -0.073 S 
ATOM     26  C   UNL     1       4.734  -2.924  -1.696  0.00  0.00    +0.116 A 
ATOM     27  C   UNL     1       4.897  -4.319  -1.775  0.00  0.00    +0.075 A 
ATOM     28  C   UNL     1       3.778  -5.099  -1.337  0.00  0.00    +0.260 A 
ATOM     29  O   UNL     1       3.822  -6.317  -1.367  0.00  0.00    -0.267 OA
ATOM     30  N   UNL     1       2.679  -4.466  -0.886  0.00  0.00    -0.310 N 
ATOM     31  H   UNL     1       1.920  -4.989  -0.584  0.00  0.00    +0.170 HD
ATOM     32  C   UNL     1       2.610  -3.110  -0.850  0.00  0.00    +0.121 A 
ATOM     33  N   UNL     1       3.613  -2.372  -1.242  0.00  0.00    -0.226 NA
ATOM     34  C   UNL     1       8.477  -4.064  -3.200  0.00  0.00    +0.052 C 
ENDBRANCH  21  32
ENDBRANCH  20  21
ENDBRANCH   1  20
TORSDOF 6
