REMARK  Name = ZINC36029052
REMARK  8 active torsions:
REMARK  status: ('A' for Active; 'I' for Inactive)
REMARK    1  A    between atoms: C_1  and  C_2
REMARK    2  A    between atoms: C_2  and  C_3
REMARK    3  A    between atoms: C_3  and  C_5
REMARK    4  A    between atoms: C_3  and  C_6
REMARK    5  A    between atoms: N_10  and  C_28
REMARK    6  A    between atoms: N_15  and  C_18
REMARK    7  A    between atoms: C_18  and  N_20
REMARK    8  A    between atoms: N_20  and  C_21
REMARK                            x       y       z     vdW  Elec       q    Type
REMARK                         _______ _______ _______ _____ _____    ______ ____
ROOT
ATOM      1  C   UNL     1       0.510  -2.113  -1.351  0.00  0.00    +0.022 C 
ATOM      2  C   UNL     1       1.099  -2.748  -0.116  0.00  0.00    +0.200 C 
ATOM      3  O   UNL     1       0.646  -2.676   1.008  0.00  0.00    -0.277 OA
ATOM      4  N   UNL     1       2.224  -3.418  -0.461  0.00  0.00    -0.317 N 
ATOM      5  C   UNL     1       2.569  -3.124  -1.848  0.00  0.00    +0.006 C 
ATOM      6  N   UNL     1       1.312  -2.624  -2.480  0.00  0.00    +0.401 N 
ATOM      7  C   UNL     1       3.605  -2.013  -1.946  0.00  0.00    +0.025 C 
ATOM      8  C   UNL     1       5.005  -2.503  -1.583  0.00  0.00    +0.107 C 
ATOM      9  N   UNL     1       5.317  -3.674  -2.411  0.00  0.00    -0.312 N 
ATOM     10  C   UNL     1       4.407  -4.822  -2.361  0.00  0.00    +0.107 C 
ATOM     11  C   UNL     1       2.975  -4.375  -2.614  0.00  0.00    +0.025 C 
ATOM     12  C   UNL     1       2.943  -4.299   0.464  0.00  0.00    +0.130 C 
ATOM     13  H   UNL     1       0.841  -3.387  -2.944  0.00  0.00    -0.082 HD
ATOM     14  H   UNL     1       1.530  -1.890  -3.136  0.00  0.00    -0.082 HD
ENDROOT
BRANCH   1  15
ATOM     15  C   UNL     1       0.579  -0.588  -1.268  0.00  0.00    -0.020 C 
ATOM     16  C   UNL     1      -0.164  -0.111  -0.019  0.00  0.00    +0.006 C 
BRANCH  15  18
ATOM     17  C   UNL     1       0.107   1.539  -2.491  0.00  0.00    +0.004 C 
ATOM     18  C   UNL     1      -0.072   0.020  -2.512  0.00  0.00    -0.001 C 
ENDBRANCH  15  18
ENDBRANCH   1  15
BRANCH   9  19
ATOM     19  C   UNL     1       6.412  -3.692  -3.196  0.00  0.00    +0.137 C 
ATOM     20  S   UNL     1       7.525  -2.392  -3.142  0.00  0.00    -0.018 S 
BRANCH  19  21
ATOM     21  N   UNL     1       6.631  -4.732  -4.024  0.00  0.00    -0.297 N 
ATOM     22  H   UNL     1       6.420  -4.654  -4.967  0.00  0.00    +0.154 HD
BRANCH  21  23
ATOM     23  C   UNL     1       7.162  -5.926  -3.522  0.00  0.00    +0.033 A 
ATOM     24  C   UNL     1       7.363  -6.078  -2.156  0.00  0.00    +0.026 A 
ATOM     25  C   UNL     1       7.887  -7.257  -1.663  0.00  0.00    +0.040 A 
ATOM     26  C   UNL     1       8.213  -8.287  -2.529  0.00  0.00    +0.124 A 
ATOM     27  C   UNL     1       8.014  -8.137  -3.891  0.00  0.00    +0.040 A 
ATOM     28  C   UNL     1       7.484  -6.963  -4.388  0.00  0.00    +0.026 A 
ATOM     29  F   UNL     1       8.726  -9.439  -2.045  0.00  0.00    -0.205 F 
ENDBRANCH  21  23
ENDBRANCH  19  21
ENDBRANCH   9  19
TORSDOF 5
