REMARK  Name = ZINC02981846
REMARK  3 active torsions:
REMARK  status: ('A' for Active; 'I' for Inactive)
REMARK    1  A    between atoms: C_4  and  N_7
REMARK    2  A    between atoms: C_11  and  C_12
REMARK    3  A    between atoms: N_19  and  C_22
REMARK                            x       y       z     vdW  Elec       q    Type
REMARK                         _______ _______ _______ _____ _____    ______ ____
ROOT
ATOM      1  C   UNL     1      -0.817   2.511   0.320  0.00  0.00    +0.044 C 
ATOM      2  C   UNL     1      -0.483   3.856   0.200  0.00  0.00    +0.102 C 
ATOM      3  C   UNL     1      -1.514   4.908   0.227  0.00  0.00    +0.257 C 
ATOM      4  O   UNL     1      -2.691   4.627   0.356  0.00  0.00    -0.270 OA
ATOM      5  N   UNL     1      -1.117   6.192   0.105  0.00  0.00    -0.235 N 
ATOM      6  C   UNL     1       0.176   6.515  -0.037  0.00  0.00    +0.320 C 
ATOM      7  O   UNL     1       0.467   7.690  -0.142  0.00  0.00    -0.251 OA
ATOM      8  N   UNL     1       1.164   5.610  -0.070  0.00  0.00    -0.187 N 
ATOM      9  C   UNL     1       0.915   4.290   0.047  0.00  0.00    +0.264 C 
ATOM     10  O   UNL     1       1.822   3.478   0.021  0.00  0.00    -0.269 OA
ATOM     11  H   UNL     1      -1.783   6.897   0.122  0.00  0.00    +0.159 HD
ENDROOT
BRANCH   8  12
ATOM     12  C   UNL     1       2.488   6.047  -0.224  0.00  0.00    +0.081 A 
ATOM     13  C   UNL     1       3.263   6.325   0.894  0.00  0.00    +0.027 A 
ATOM     14  C   UNL     1       4.566   6.755   0.740  0.00  0.00    +0.002 A 
ATOM     15  C   UNL     1       5.101   6.910  -0.525  0.00  0.00    +0.003 A 
ATOM     16  C   UNL     1       4.334   6.634  -1.642  0.00  0.00    +0.040 A 
ATOM     17  C   UNL     1       3.029   6.197  -1.495  0.00  0.00    +0.145 A 
ATOM     18  F   UNL     1       2.281   5.923  -2.586  0.00  0.00    -0.204 F 
ENDBRANCH   8  12
BRANCH   1  23
ATOM     19  N   UNL     1       0.822   1.207  -1.020  0.00  0.00    -0.316 N 
ATOM     20  C   UNL     1       1.697   0.202  -0.769  0.00  0.00    +0.092 A 
ATOM     21  C   UNL     1       1.621  -0.134   0.545  0.00  0.00    +0.020 A 
ATOM     22  C   UNL     1       0.668   0.685   1.146  0.00  0.00    +0.027 A 
ATOM     23  C   UNL     1       0.170   1.526   0.156  0.00  0.00    +0.047 A 
BRANCH  19  27
ATOM     24  C   UNL     1       0.203   3.029  -4.717  0.00  0.00    +0.000 A 
ATOM     25  C   UNL     1       1.474   2.984  -4.174  0.00  0.00    +0.002 A 
ATOM     26  C   UNL     1       1.683   2.381  -2.949  0.00  0.00    +0.026 A 
ATOM     27  C   UNL     1       0.614   1.820  -2.262  0.00  0.00    +0.047 A 
ATOM     28  C   UNL     1      -0.660   1.862  -2.812  0.00  0.00    +0.026 A 
ATOM     29  C   UNL     1      -0.863   2.471  -4.035  0.00  0.00    +0.002 A 
ENDBRANCH  19  27
ENDBRANCH   1  23
TORSDOF 3
