REMARK  Name = ZINC27009313
REMARK  12 active torsions:
REMARK  status: ('A' for Active; 'I' for Inactive)
REMARK    1  A    between atoms: C_1  and  C_2
REMARK    2  A    between atoms: C_3  and  N_11
REMARK    3  A    between atoms: C_7  and  N_8
REMARK    4  A    between atoms: C_12  and  C_14
REMARK    5  A    between atoms: C_14  and  C_16
REMARK    6  A    between atoms: C_14  and  N_17
REMARK    7  A    between atoms: N_17  and  C_18
REMARK    8  A    between atoms: C_21  and  C_24
REMARK    9  A    between atoms: C_24  and  C_25
REMARK   10  A    between atoms: N_27  and  C_28
REMARK   11  A    between atoms: C_28  and  C_29
REMARK   12  A    between atoms: C_28  and  C_30
REMARK                            x       y       z     vdW  Elec       q    Type
REMARK                         _______ _______ _______ _____ _____    ______ ____
ROOT
ATOM      1  C   UNL     1      -2.398   4.068   5.288  0.00  0.00    +0.154 C 
ATOM      2  C   UNL     1      -3.167   5.188   4.585  0.00  0.00    +0.038 C 
ENDROOT
BRANCH   1   4
ATOM      3  N   UNL     1      -2.428   5.189   7.493  0.00  0.00    -0.284 N 
ATOM      4  C   UNL     1      -2.710   4.092   6.763  0.00  0.00    +0.237 C 
ATOM      5  O   UNL     1      -3.216   3.125   7.292  0.00  0.00    -0.273 OA
ATOM      6  H   UNL     1      -1.885   6.030   7.036  0.00  0.00    +0.155 HD
BRANCH   3   9
ATOM      7  C   UNL     1      -0.964   6.891   9.242  0.00  0.00    +0.048 C 
ATOM      8  C   UNL     1      -2.138   6.077   9.721  0.00  0.00    +0.001 A 
ATOM      9  C   UNL     1      -2.825   5.259   8.833  0.00  0.00    +0.039 A 
ATOM     10  C   UNL     1      -3.902   4.505   9.279  0.00  0.00    +0.024 A 
ATOM     11  C   UNL     1      -4.292   4.576  10.603  0.00  0.00    +0.004 A 
ATOM     12  C   UNL     1      -3.610   5.396  11.483  0.00  0.00    +0.033 A 
ATOM     13  C   UNL     1      -2.536   6.147  11.041  0.00  0.00    +0.131 A 
BRANCH  13  14
ATOM     14  N   UNL     1      -1.808   7.023  11.987  0.00  0.00    +0.057 N 
ATOM     15  O   UNL     1      -1.657   6.677  13.145  0.00  0.00    -0.126 OA
ATOM     16  O   UNL     1      -1.360   8.090  11.607  0.00  0.00    -0.126 OA
ENDBRANCH  13  14
ENDBRANCH   3   9
ENDBRANCH   1   4
BRANCH   1  17
ATOM     17  N   UNL     1      -2.796   2.775   4.726  0.00  0.00    -0.333 N 
ATOM     18  H   UNL     1      -3.584   2.183   5.214  0.00  0.00    +0.147 HD
BRANCH  17  19
ATOM     19  C   UNL     1      -2.175   2.295   3.571  0.00  0.00    +0.028 A 
ATOM     20  C   UNL     1      -2.551   1.069   3.037  0.00  0.00    +0.023 A 
ATOM     21  C   UNL     1      -1.934   0.596   1.895  0.00  0.00    +0.006 A 
ATOM     22  C   UNL     1      -0.943   1.342   1.284  0.00  0.00    -0.039 A 
ATOM     23  C   UNL     1      -0.562   2.560   1.816  0.00  0.00    +0.006 A 
ATOM     24  C   UNL     1      -1.179   3.041   2.955  0.00  0.00    +0.023 A 
BRANCH  22  25
ATOM     25  C   UNL     1      -0.273   0.824   0.038  0.00  0.00    +0.130 C 
BRANCH  25  26
ATOM     26  C   UNL     1      -1.030   1.300  -1.175  0.00  0.00    +0.218 C 
ATOM     27  O   UNL     1      -2.016   1.992  -1.041  0.00  0.00    -0.275 OA
ATOM     28  N   UNL     1      -0.610   0.956  -2.409  0.00  0.00    -0.313 N 
ATOM     29  H   UNL     1       0.285   0.328  -2.531  0.00  0.00    +0.149 HD
BRANCH  28  30
ATOM     30  C   UNL     1      -1.346   1.419  -3.588  0.00  0.00    +0.067 C 
ATOM     31  C   UNL     1      -0.405   1.457  -4.794  0.00  0.00    +0.027 C 
ATOM     32  C   UNL     1      -2.504   0.461  -3.875  0.00  0.00    +0.027 C 
ENDBRANCH  28  30
ENDBRANCH  25  26
ENDBRANCH  22  25
ENDBRANCH  17  19
ENDBRANCH   1  17
TORSDOF 8
