REMARK  Name = ZINC32707946
REMARK  8 active torsions:
REMARK  status: ('A' for Active; 'I' for Inactive)
REMARK    1  A    between atoms: C_1  and  O_2
REMARK    2  A    between atoms: O_2  and  C_3
REMARK    3  A    between atoms: C_7  and  C_11
REMARK    4  A    between atoms: C_8  and  O_9
REMARK    5  A    between atoms: O_9  and  C_10
REMARK    6  A    between atoms: N_15  and  C_19
REMARK    7  A    between atoms: C_22  and  C_26
REMARK    8  A    between atoms: C_23  and  O_25
REMARK                            x       y       z     vdW  Elec       q    Type
REMARK                         _______ _______ _______ _____ _____    ______ ____
ROOT
ATOM      1  C   UNL     1      -2.598  -4.272   0.965  0.00  0.00    +0.032 C 
ATOM      2  C   UNL     1      -3.787  -4.830   0.621  0.00  0.00    +0.078 C 
ATOM      3  C   UNL     1      -5.146  -4.258   0.678  0.00  0.00    +0.263 C 
ATOM      4  O   UNL     1      -5.347  -3.126   1.077  0.00  0.00    -0.269 OA
ATOM      5  N   UNL     1      -6.135  -5.038   0.275  0.00  0.00    -0.223 N 
ATOM      6  C   UNL     1      -5.908  -6.292  -0.166  0.00  0.00    +0.125 C 
ATOM      7  S   UNL     1      -7.044  -7.444  -0.725  0.00  0.00    -0.027 S 
ATOM      8  S   UNL     1      -4.135  -6.457  -0.034  0.00  0.00    -0.061 S 
ENDROOT
BRANCH   1  13
ATOM      9  C   UNL     1      -1.553  -0.790   1.923  0.00  0.00    +0.162 A 
ATOM     10  C   UNL     1      -2.510  -0.483   2.878  0.00  0.00    +0.049 A 
ATOM     11  C   UNL     1      -3.490  -1.405   3.208  0.00  0.00    +0.004 A 
ATOM     12  C   UNL     1      -3.525  -2.636   2.592  0.00  0.00    +0.012 A 
ATOM     13  C   UNL     1      -2.566  -2.961   1.625  0.00  0.00    +0.022 A 
ATOM     14  C   UNL     1      -1.577  -2.025   1.287  0.00  0.00    +0.169 A 
BRANCH   9  16
ATOM     15  C   UNL     1      -0.630   1.370   2.299  0.00  0.00    +0.277 C 
ATOM     16  O   UNL     1      -0.594   0.121   1.605  0.00  0.00    -0.491 OA
ENDBRANCH   9  16
BRANCH  14  17
ATOM     17  O   UNL     1      -0.643  -2.326   0.347  0.00  0.00    -0.491 OA
ATOM     18  C   UNL     1       0.558  -2.951   0.802  0.00  0.00    +0.277 C 
ENDBRANCH  14  17
ENDBRANCH   1  13
BRANCH   5  19
ATOM     19  C   UNL     1      -7.443  -4.552   0.306  0.00  0.00    +0.046 A 
ATOM     20  C   UNL     1      -7.977  -3.923  -0.817  0.00  0.00    +0.025 A 
ATOM     21  C   UNL     1      -9.254  -3.443  -0.798  0.00  0.00    +0.020 A 
ATOM     22  C   UNL     1     -10.039  -3.581   0.353  0.00  0.00    +0.105 A 
ATOM     23  C   UNL     1      -9.505  -4.215   1.488  0.00  0.00    +0.133 A 
ATOM     24  C   UNL     1      -8.209  -4.702   1.454  0.00  0.00    +0.070 A 
BRANCH  22  25
ATOM     25  C   UNL     1     -11.414  -3.064   0.375  0.00  0.00    +0.390 C 
ATOM     26  O   UNL     1     -11.876  -2.512  -0.614  0.00  0.00    -0.240 OA
ATOM     27  O   UNL     1     -12.097  -3.186   1.383  0.00  0.00    -0.240 OA
ENDBRANCH  22  25
BRANCH  23  28
ATOM     28  O   UNL     1     -10.256  -4.354   2.608  0.00  0.00    -0.506 OA
ATOM     29  H   UNL     1     -10.771  -5.172   2.638  0.00  0.00    +0.292 HD
ENDBRANCH  23  28
ENDBRANCH   5  19
TORSDOF 6
