REMARK  Name = ZINC11915937
REMARK  6 active torsions:
REMARK  status: ('A' for Active; 'I' for Inactive)
REMARK    1  A    between atoms: C_6  and  C_7
REMARK    2  A    between atoms: C_9  and  C_12
REMARK    3  A    between atoms: N_14  and  C_15
REMARK    4  A    between atoms: C_16  and  C_24
REMARK    5  A    between atoms: N_26  and  C_27
REMARK    6  A    between atoms: C_27  and  C_28
REMARK                            x       y       z     vdW  Elec       q    Type
REMARK                         _______ _______ _______ _____ _____    ______ ____
ROOT
ATOM      1  C   UNL     1      -2.420   0.185   0.027  0.00  0.00    +0.085 A 
ATOM      2  C   UNL     1      -1.304  -0.641   0.012  0.00  0.00    +0.069 A 
ATOM      3  C   UNL     1       0.002  -0.004   0.002  0.00  0.00    -0.023 A 
ATOM      4  C   UNL     1      -0.016   1.347   0.009  0.00  0.00    -0.004 A 
ATOM      5  S   UNL     1      -1.734   1.776   0.036  0.00  0.00    -0.077 S 
ATOM      6  C   UNL     1       1.166   2.266   0.003  0.00  0.00    +0.043 C 
ATOM      7  C   UNL     1       2.415   1.450   0.368  0.00  0.00    +0.005 C 
ATOM      8  C   UNL     1       2.432   0.172  -0.476  0.00  0.00    +0.005 C 
ATOM      9  C   UNL     1       1.319  -0.771  -0.014  0.00  0.00    +0.037 C 
ENDROOT
BRANCH   1  12
ATOM     10  C   UNL     1      -4.712   0.775   0.052  0.00  0.00    +0.270 C 
ATOM     11  O   UNL     1      -4.399   1.950   0.055  0.00  0.00    -0.268 OA
ATOM     12  N   UNL     1      -3.757  -0.176   0.038  0.00  0.00    -0.274 N 
ATOM     13  H   UNL     1      -4.007  -1.113   0.036  0.00  0.00    +0.156 HD
BRANCH  10  16
ATOM     14  C   UNL     1      -8.336   0.420   0.086  0.00  0.00    +0.168 A 
ATOM     15  C   UNL     1      -7.261   1.264   0.086  0.00  0.00    +0.086 A 
ATOM     16  C   UNL     1      -6.143   0.389   0.065  0.00  0.00    +0.169 A 
ATOM     17  N   UNL     1      -6.629  -0.828   0.064  0.00  0.00    -0.073 NA
ATOM     18  O   UNL     1      -7.838  -0.829   0.075  0.00  0.00    -0.354 OA
BRANCH  14  24
ATOM     19  C   UNL     1     -10.127   2.152   0.116  0.00  0.00    +0.013 A 
ATOM     20  C   UNL     1     -11.460   2.504   0.126  0.00  0.00    +0.021 A 
ATOM     21  C   UNL     1     -12.438   1.524   0.130  0.00  0.00    +0.041 A 
ATOM     22  C   UNL     1     -12.084   0.185   0.120  0.00  0.00    +0.021 A 
ATOM     23  C   UNL     1     -10.754  -0.179   0.106  0.00  0.00    +0.013 A 
ATOM     24  C   UNL     1      -9.764   0.804   0.101  0.00  0.00    +0.020 A 
ATOM     25 CL   UNL     1     -14.114   1.975   0.149  0.00  0.00    -0.084 Cl
ENDBRANCH  14  24
ENDBRANCH  10  16
ENDBRANCH   1  12
BRANCH   2  26
ATOM     26  C   UNL     1      -1.438  -2.101   0.005  0.00  0.00    +0.247 C 
ATOM     27  O   UNL     1      -1.483  -2.712   1.057  0.00  0.00    -0.270 OA
ATOM     28  N   UNL     1      -1.512  -2.766  -1.165  0.00  0.00    -0.309 N 
ATOM     29  H   UNL     1      -1.476  -2.278  -2.002  0.00  0.00    +0.149 HD
BRANCH  28  30
ATOM     30  C   UNL     1      -1.646  -4.224  -1.171  0.00  0.00    +0.136 C 
BRANCH  30  31
ATOM     31  C   UNL     1      -1.707  -4.725  -2.615  0.00  0.00    +0.135 C 
ATOM     32  C   UNL     1      -1.974  -6.246  -2.647  0.00  0.00    +0.035 C 
ATOM     33  C   UNL     1      -1.121  -6.752  -3.832  0.00  0.00    +0.031 C 
ATOM     34  C   UNL     1      -0.440  -5.477  -4.376  0.00  0.00    +0.160 C 
ATOM     35  O   UNL     1      -0.424  -4.562  -3.259  0.00  0.00    -0.375 OA
ENDBRANCH  30  31
ENDBRANCH  28  30
ENDBRANCH   2  26
TORSDOF 6
