REMARK  Name = ZINC25078454
REMARK  8 active torsions:
REMARK  status: ('A' for Active; 'I' for Inactive)
REMARK    1  A    between atoms: C_1  and  C_2
REMARK    2  A    between atoms: C_2  and  C_3
REMARK    3  A    between atoms: C_2  and  N_4
REMARK    4  A    between atoms: C_11  and  C_13
REMARK    5  A    between atoms: N_16  and  S_19
REMARK    6  A    between atoms: S_19  and  C_22
REMARK    7  A    between atoms: C_24  and  C_28
REMARK    8  A    between atoms: N_25  and  C_27
REMARK                            x       y       z     vdW  Elec       q    Type
REMARK                         _______ _______ _______ _____ _____    ______ ____
ROOT
ATOM      1  C   UNL     1       2.097   3.674   3.437  0.00  0.00    +0.081 C 
ATOM      2  C   UNL     1       3.157   2.941   2.612  0.00  0.00    +0.030 C 
ATOM      3  C   UNL     1       3.419   3.718   1.319  0.00  0.00    +0.110 C 
ATOM      4  N   UNL     1       2.142   3.917   0.620  0.00  0.00    -0.176 NA
ATOM      5  C   UNL     1       1.027   4.536   1.349  0.00  0.00    +0.110 C 
ATOM      6  C   UNL     1       0.790   3.745   2.644  0.00  0.00    +0.030 C 
ENDROOT
BRANCH   1  14
ATOM      7  N   UNL     1       1.417   1.614   7.061  0.00  0.00    -0.368 N 
ATOM      8  C   UNL     1       1.170   2.902   6.986  0.00  0.00    +0.114 A 
ATOM      9  C   UNL     1       0.680   3.601   8.116  0.00  0.00    +0.044 A 
ATOM     10  C   UNL     1       0.426   4.931   8.017  0.00  0.00    +0.005 A 
ATOM     11  C   UNL     1       0.656   5.599   6.800  0.00  0.00    +0.018 A 
ATOM     12  C   UNL     1       1.127   4.929   5.730  0.00  0.00    +0.096 A 
ATOM     13  N   UNL     1       1.391   3.586   5.806  0.00  0.00    -0.273 N 
ATOM     14  C   UNL     1       1.861   2.930   4.727  0.00  0.00    +0.236 C 
ATOM     15  O   UNL     1       2.095   1.743   4.793  0.00  0.00    -0.272 OA
ATOM     16  H   UNL     1       1.704   1.056   6.157  0.00  0.00    +0.161 HD
BRANCH   7  18
ATOM     17  C   UNL     1       0.353  -0.265   8.210  0.00  0.00    +0.030 C 
ATOM     18  C   UNL     1       1.310   0.920   8.347  0.00  0.00    +0.074 C 
ATOM     19  C   UNL     1       2.691   0.415   8.770  0.00  0.00    +0.030 C 
ENDBRANCH   7  18
ENDBRANCH   1  14
BRANCH   4  20
ATOM     20  S   UNL     1       1.965   3.457  -0.961  0.00  0.00    +0.062 S 
ATOM     21  O   UNL     1       3.268   3.443  -1.528  0.00  0.00    -0.153 OA
ATOM     22  O   UNL     1       0.909   4.244  -1.497  0.00  0.00    -0.153 OA
BRANCH  20  23
ATOM     23  C   UNL     1       1.399   1.789  -0.959  0.00  0.00    +0.124 A 
ATOM     24  C   UNL     1       2.204   0.646  -0.973  0.00  0.00    +0.061 A 
ATOM     25  C   UNL     1       1.360  -0.444  -0.965  0.00  0.00    +0.106 A 
ATOM     26  N   UNL     1       0.069   0.031  -0.948  0.00  0.00    -0.344 N 
ATOM     27  C   UNL     1       0.105   1.386  -0.944  0.00  0.00    +0.114 A 
ATOM     28  C   UNL     1      -1.144  -0.791  -0.935  0.00  0.00    +0.149 C 
BRANCH  25  29
ATOM     29  C   UNL     1       1.765  -1.854  -0.975  0.00  0.00    +0.258 C 
ATOM     30  O   UNL     1       0.924  -2.728  -1.069  0.00  0.00    -0.269 OA
ATOM     31  N   UNL     1       3.069  -2.181  -0.881  0.00  0.00    -0.324 N 
ATOM     32  H   UNL     1       3.373  -3.238  -0.888  0.00  0.00    +0.145 HD
ATOM     33  H   UNL     1       3.830  -1.391  -0.796  0.00  0.00    +0.145 HD
ENDBRANCH  25  29
ENDBRANCH  20  23
ENDBRANCH   4  20
TORSDOF 5
