REMARK  Name = ZINC23361363
REMARK  8 active torsions:
REMARK  status: ('A' for Active; 'I' for Inactive)
REMARK    1  A    between atoms: C_1  and  C_2
REMARK    2  A    between atoms: C_2  and  C_3
REMARK    3  A    between atoms: C_2  and  N_4
REMARK    4  A    between atoms: C_5  and  C_7
REMARK    5  A    between atoms: C_10  and  N_22
REMARK    6  A    between atoms: N_13  and  C_14
REMARK    7  A    between atoms: C_14  and  C_15
REMARK    8  A    between atoms: N_22  and  C_23
REMARK                            x       y       z     vdW  Elec       q    Type
REMARK                         _______ _______ _______ _____ _____    ______ ____
ROOT
ATOM      1  C   UNL     1       2.738  -1.139  -2.428  0.00  0.00    +0.021 C 
ATOM      2  C   UNL     1       2.443  -2.629  -2.700  0.00  0.00    +0.010 C 
ATOM      3  C   UNL     1       3.798  -3.162  -3.234  0.00  0.00    +0.036 C 
ATOM      4  C   UNL     1       4.810  -2.345  -2.392  0.00  0.00    -0.059 C 
ATOM      5  N   UNL     1       4.196  -1.002  -2.262  0.00  0.00    +0.391 N 
ATOM      6  H   UNL     1       4.563  -0.388  -2.974  0.00  0.00    -0.080 HD
ENDROOT
BRANCH   1   8
ATOM      7  N   UNL     1       1.102   0.273  -1.223  0.00  0.00    -0.314 N 
ATOM      8  C   UNL     1       2.035  -0.699  -1.169  0.00  0.00    +0.200 C 
ATOM      9  O   UNL     1       2.309  -1.218  -0.108  0.00  0.00    -0.278 OA
ATOM     10  H   UNL     1       0.883   0.689  -2.072  0.00  0.00    +0.149 HD
BRANCH   7  12
ATOM     11  C   UNL     1       1.266   1.756   0.715  0.00  0.00    +0.027 C 
ATOM     12  C   UNL     1       0.419   0.701   0.000  0.00  0.00    +0.067 C 
ATOM     13  C   UNL     1      -0.943   1.298  -0.359  0.00  0.00    +0.027 C 
ENDBRANCH   7  12
ENDBRANCH   1   8
BRANCH   3  14
ATOM     14  N   UNL     1       3.938  -4.601  -2.975  0.00  0.00    -0.312 NA
ATOM     15  H   UNL     1       4.906  -4.853  -2.845  0.00  0.00    +0.122 HD
BRANCH  14  16
ATOM     16  C   UNL     1       3.327  -5.391  -4.052  0.00  0.00    +0.060 C 
ATOM     17  C   UNL     1       1.830  -5.554  -3.780  0.00  0.00    +0.007 C 
ATOM     18  C   UNL     1       1.195  -6.378  -4.901  0.00  0.00    +0.008 C 
ATOM     19  C   UNL     1       1.855  -7.756  -4.959  0.00  0.00    -0.010 C 
ATOM     20  C   UNL     1       1.655  -8.474  -3.623  0.00  0.00    +0.007 C 
ATOM     21  C   UNL     1       2.291  -7.651  -2.501  0.00  0.00    -0.010 C 
ATOM     22  C   UNL     1       1.630  -6.272  -2.443  0.00  0.00    +0.008 C 
ATOM     23  C   UNL     1       3.787  -7.488  -2.773  0.00  0.00    +0.008 C 
ATOM     24  C   UNL     1       3.988  -6.770  -4.109  0.00  0.00    +0.007 C 
ATOM     25  C   UNL     1       3.352  -7.594  -5.231  0.00  0.00    +0.008 C 
ENDBRANCH  14  16
ENDBRANCH   3  14
BRANCH   5  26
ATOM     26  C   UNL     1       4.493  -0.448  -0.934  0.00  0.00    -0.042 C 
BRANCH  26  27
ATOM     27  C   UNL     1       5.966  -0.148  -0.832  0.00  0.00    -0.064 A 
ATOM     28  C   UNL     1       6.839  -1.118  -0.374  0.00  0.00    +0.003 A 
ATOM     29  C   UNL     1       8.190  -0.843  -0.281  0.00  0.00    +0.020 A 
ATOM     30  C   UNL     1       8.670   0.402  -0.646  0.00  0.00    +0.041 A 
ATOM     31  C   UNL     1       7.796   1.372  -1.104  0.00  0.00    +0.020 A 
ATOM     32  C   UNL     1       6.445   1.095  -1.202  0.00  0.00    +0.003 A 
ATOM     33 CL   UNL     1      10.367   0.748  -0.529  0.00  0.00    -0.084 Cl
ENDBRANCH  26  27
ENDBRANCH   5  26
TORSDOF 6
