REMARK  Name = ZINC39096974
REMARK  4 active torsions:
REMARK  status: ('A' for Active; 'I' for Inactive)
REMARK    1  A    between atoms: C_1  and  C_2
REMARK    2  A    between atoms: C_10  and  C_15
REMARK    3  A    between atoms: C_10  and  O_16
REMARK    4  A    between atoms: C_11  and  O_14
REMARK                            x       y       z     vdW  Elec       q    Type
REMARK                         _______ _______ _______ _____ _____    ______ ____
ROOT
ATOM      1  C   UNL     1      -0.018   1.503   0.010  0.00  0.00    +0.085 C 
ATOM      2  C   UNL     1       0.002  -0.004   0.002  0.00  0.00    +0.095 C 
ATOM      3  C   UNL     1      -1.159  -0.693   0.004  0.00  0.00    +0.045 C 
ATOM      4  C   UNL     1      -1.134  -2.101   0.050  0.00  0.00    -0.032 C 
ATOM      5  C   UNL     1       0.033  -2.732   0.372  0.00  0.00    +0.038 C 
ATOM      6  C   UNL     1       1.248  -1.898   0.703  0.00  0.00    +0.267 C 
ATOM      7  O   UNL     1       1.180  -0.660  -0.013  0.00  0.00    -0.492 OA
ATOM      8  C   UNL     1       0.118  -4.125   0.406  0.00  0.00    +0.196 C 
ATOM      9  O   UNL     1       1.178  -4.652   0.685  0.00  0.00    -0.289 OA
ATOM     10  C   UNL     1      -1.081  -4.983   0.103  0.00  0.00    +0.151 C 
ATOM     11  C   UNL     1      -2.013  -4.234  -0.852  0.00  0.00    +0.158 C 
ATOM     12  C   UNL     1      -2.386  -2.888  -0.225  0.00  0.00    +0.070 C 
ATOM     13  C   UNL     1      -1.825  -5.296   1.403  0.00  0.00    +0.052 C 
ENDROOT
BRANCH  11  14
ATOM     14  O   UNL     1      -1.348  -4.016  -2.098  0.00  0.00    -0.388 OA
ATOM     15  H   UNL     1      -1.882  -3.545  -2.752  0.00  0.00    +0.210 HD
ENDBRANCH  11  14
BRANCH  10  16
ATOM     16  O   UNL     1      -0.652  -6.202  -0.507  0.00  0.00    -0.378 OA
ATOM     17  H   UNL     1      -0.056  -6.729   0.043  0.00  0.00    +0.211 HD
ENDBRANCH  10  16
TORSDOF 2
