REMARK  Name = ZINC28470223
REMARK  5 active torsions:
REMARK  status: ('A' for Active; 'I' for Inactive)
REMARK    1  A    between atoms: C_1  and  C_2
REMARK    2  A    between atoms: C_3  and  C_15
REMARK    3  A    between atoms: C_4  and  C_10
REMARK    4  A    between atoms: N_17  and  C_18
REMARK    5  A    between atoms: C_21  and  N_24
REMARK                            x       y       z     vdW  Elec       q    Type
REMARK                         _______ _______ _______ _____ _____    ______ ____
ROOT
ATOM      1  C   UNL     1       1.003   5.920   2.995  0.00  0.00    +0.061 C 
ATOM      2  C   UNL     1       1.361   5.549   1.579  0.00  0.00    +0.017 C 
ATOM      3  C   UNL     1       1.972   4.370   1.335  0.00  0.00    +0.056 C 
ATOM      4  C   UNL     1       2.315   4.037  -0.102  0.00  0.00    +0.146 C 
ATOM      5  N   UNL     1       1.949   5.033  -1.123  0.00  0.00    -0.315 N 
ATOM      6  C   UNL     1       1.340   6.167  -0.724  0.00  0.00    +0.135 C 
ATOM      7  S   UNL     1       0.909   7.334  -1.900  0.00  0.00    -0.019 S 
ATOM      8  N   UNL     1       1.061   6.410   0.563  0.00  0.00    -0.300 N 
ATOM      9  H   UNL     1       2.174   4.843  -2.183  0.00  0.00    +0.149 HD
ATOM     10  H   UNL     1       0.562   7.366   0.781  0.00  0.00    +0.154 HD
ENDROOT
BRANCH   4  11
ATOM     11  C   UNL     1       1.633   2.740  -0.454  0.00  0.00    +0.015 A 
ATOM     12  C   UNL     1       2.184   1.560  -0.831  0.00  0.00    +0.013 A 
ATOM     13  C   UNL     1       1.354   0.490  -1.107  0.00  0.00    +0.008 A 
ATOM     14  C   UNL     1       0.013   0.654  -0.999  0.00  0.00    +0.045 A 
ATOM     15  S   UNL     1      -0.111   2.358  -0.482  0.00  0.00    -0.099 S 
ENDBRANCH   4  11
BRANCH   3  16
ATOM     16  C   UNL     1       2.284   3.476   2.388  0.00  0.00    +0.248 C 
ATOM     17  O   UNL     1       1.911   3.717   3.522  0.00  0.00    -0.270 OA
ATOM     18  N   UNL     1       2.992   2.357   2.135  0.00  0.00    -0.282 N 
ATOM     19  H   UNL     1       3.407   2.184   1.131  0.00  0.00    +0.155 HD
BRANCH  18  20
ATOM     20  C   UNL     1       3.199   1.416   3.149  0.00  0.00    +0.034 A 
ATOM     21  C   UNL     1       3.315   1.830   4.469  0.00  0.00    +0.025 A 
ATOM     22  C   UNL     1       3.515   0.898   5.468  0.00  0.00    +0.034 A 
ATOM     23  C   UNL     1       3.610  -0.445   5.154  0.00  0.00    +0.126 A 
ATOM     24  C   UNL     1       3.499  -0.860   3.840  0.00  0.00    +0.034 A 
ATOM     25  C   UNL     1       3.294   0.066   2.836  0.00  0.00    +0.025 A 
BRANCH  23  26
ATOM     26  N   UNL     1       3.829  -1.441   6.227  0.00  0.00    +0.056 N 
ATOM     27  O   UNL     1       3.913  -2.625   5.952  0.00  0.00    -0.126 OA
ATOM     28  O   UNL     1       3.927  -1.077   7.385  0.00  0.00    -0.126 OA
ENDBRANCH  23  26
ENDBRANCH  18  20
ENDBRANCH   3  16
TORSDOF 4
