REMARK  Name = ZINC27662613
REMARK  9 active torsions:
REMARK  status: ('A' for Active; 'I' for Inactive)
REMARK    1  A    between atoms: C_1  and  C_2
REMARK    2  A    between atoms: C_5  and  C_8
REMARK    3  A    between atoms: C_10  and  C_13
REMARK    4  A    between atoms: N_15  and  C_16
REMARK    5  A    between atoms: C_17  and  C_25
REMARK    6  A    between atoms: N_27  and  C_28
REMARK    7  A    between atoms: C_28  and  C_29
REMARK    8  A    between atoms: C_29  and  O_30
REMARK    9  A    between atoms: O_30  and  C_31
REMARK                            x       y       z     vdW  Elec       q    Type
REMARK                         _______ _______ _______ _____ _____    ______ ____
ROOT
ATOM      1  C   UNL     1      -1.284   1.551   3.622  0.00  0.00    +0.085 A 
ATOM      2  C   UNL     1      -0.559   0.998   2.575  0.00  0.00    +0.069 A 
ATOM      3  C   UNL     1      -0.732   1.580   1.257  0.00  0.00    -0.023 A 
ATOM      4  C   UNL     1      -1.601   2.615   1.194  0.00  0.00    -0.004 A 
ATOM      5  S   UNL     1      -2.179   2.821   2.854  0.00  0.00    -0.077 S 
ATOM      6  C   UNL     1      -1.980   3.405  -0.021  0.00  0.00    +0.043 C 
ATOM      7  C   UNL     1      -0.956   3.111  -1.127  0.00  0.00    +0.005 C 
ATOM      8  C   UNL     1      -0.758   1.595  -1.227  0.00  0.00    +0.005 C 
ATOM      9  C   UNL     1      -0.013   1.086   0.008  0.00  0.00    +0.037 C 
ENDROOT
BRANCH   1  12
ATOM     10  C   UNL     1      -2.066   1.840   5.837  0.00  0.00    +0.270 C 
ATOM     11  O   UNL     1      -2.761   2.763   5.461  0.00  0.00    -0.268 OA
ATOM     12  N   UNL     1      -1.290   1.179   4.956  0.00  0.00    -0.274 N 
ATOM     13  H   UNL     1      -0.661   0.343   5.296  0.00  0.00    +0.156 HD
BRANCH  10  16
ATOM     14  C   UNL     1      -2.481   1.307   9.416  0.00  0.00    +0.168 A 
ATOM     15  C   UNL     1      -2.825   2.035   8.311  0.00  0.00    +0.086 A 
ATOM     16  C   UNL     1      -2.073   1.441   7.265  0.00  0.00    +0.169 A 
ATOM     17  N   UNL     1      -1.381   0.472   7.814  0.00  0.00    -0.073 NA
ATOM     18  O   UNL     1      -1.595   0.385   9.000  0.00  0.00    -0.354 OA
BRANCH  14  23
ATOM     19  C   UNL     1      -4.423   2.052  14.781  0.00  0.00    +0.044 C 
ATOM     20  C   UNL     1      -3.914   1.857  13.376  0.00  0.00    -0.050 A 
ATOM     21  C   UNL     1      -2.996   0.857  13.109  0.00  0.00    +0.004 A 
ATOM     22  C   UNL     1      -2.527   0.673  11.825  0.00  0.00    +0.012 A 
ATOM     23  C   UNL     1      -2.980   1.498  10.794  0.00  0.00    +0.020 A 
ATOM     24  C   UNL     1      -3.901   2.509  11.072  0.00  0.00    +0.012 A 
ATOM     25  C   UNL     1      -4.368   2.678  12.360  0.00  0.00    +0.004 A 
ENDBRANCH  14  23
ENDBRANCH  10  16
ENDBRANCH   1  12
BRANCH   2  26
ATOM     26  C   UNL     1       0.350  -0.131   2.793  0.00  0.00    +0.247 C 
ATOM     27  O   UNL     1      -0.062  -1.272   2.692  0.00  0.00    -0.270 OA
ATOM     28  N   UNL     1       1.642   0.094   3.104  0.00  0.00    -0.309 N 
ATOM     29  H   UNL     1       2.014   1.125   3.195  0.00  0.00    +0.149 HD
BRANCH  28  30
ATOM     30  C   UNL     1       2.550  -1.035   3.322  0.00  0.00    +0.132 C 
BRANCH  30  31
ATOM     31  C   UNL     1       3.947  -0.508   3.659  0.00  0.00    +0.178 C 
BRANCH  31  32
ATOM     32  O   UNL     1       3.905   0.190   4.906  0.00  0.00    -0.381 OA
ATOM     33  C   UNL     1       5.165   0.725   5.315  0.00  0.00    +0.194 C 
ENDBRANCH  31  32
ENDBRANCH  30  31
ENDBRANCH  28  30
ENDBRANCH   2  26
TORSDOF 7
