REMARK  Name = ZINC54274494
REMARK  5 active torsions:
REMARK  status: ('A' for Active; 'I' for Inactive)
REMARK    1  A    between atoms: C_4  and  C_7
REMARK    2  A    between atoms: C_7  and  N_8
REMARK    3  A    between atoms: C_20  and  C_22
REMARK    4  A    between atoms: C_22  and  S_23
REMARK    5  A    between atoms: S_23  and  C_24
REMARK                            x       y       z     vdW  Elec       q    Type
REMARK                         _______ _______ _______ _____ _____    ______ ____
ROOT
ATOM      1  N   UNL     1       4.208  -1.124   1.305  0.00  0.00    -0.295 NA
ATOM      2  C   UNL     1       4.635   0.188   1.810  0.00  0.00    +0.103 C 
ATOM      3  C   UNL     1       4.857   0.102   3.323  0.00  0.00    +0.123 C 
ATOM      4  N   UNL     1       5.788  -1.002   3.597  0.00  0.00    -0.299 N 
ATOM      5  C   UNL     1       5.499  -2.319   3.009  0.00  0.00    +0.123 C 
ATOM      6  C   UNL     1       5.252  -2.138   1.508  0.00  0.00    +0.103 C 
ATOM      7  C   UNL     1       6.896  -0.809   4.378  0.00  0.00    +0.199 A 
ATOM      8  N   UNL     1       7.073   0.385   5.005  0.00  0.00    -0.295 N 
ATOM      9  H   UNL     1       6.418   1.093   4.897  0.00  0.00    +0.172 HD
ATOM     10  C   UNL     1       8.163   0.583   5.777  0.00  0.00    +0.253 A 
ATOM     11  O   UNL     1       8.337   1.648   6.346  0.00  0.00    -0.268 OA
ATOM     12  C   UNL     1       9.093  -0.463   5.914  0.00  0.00    +0.094 A 
ATOM     13  C   UNL     1       8.862  -1.640   5.262  0.00  0.00    +0.060 A 
ATOM     14  N   UNL     1       7.770  -1.787   4.516  0.00  0.00    -0.220 NA
ENDROOT
BRANCH   1  15
ATOM     15  C   UNL     1       3.820  -1.043  -0.109  0.00  0.00    +0.119 C 
BRANCH  15  19
ATOM     16  C   UNL     1       0.336   1.398  -0.495  0.00  0.00    +0.000 A 
ATOM     17  C   UNL     1       1.592   1.970  -0.567  0.00  0.00    +0.000 A 
ATOM     18  C   UNL     1       2.720   1.180  -0.442  0.00  0.00    +0.005 A 
ATOM     19  C   UNL     1       2.591  -0.182  -0.244  0.00  0.00    -0.033 A 
ATOM     20  C   UNL     1       1.335  -0.754  -0.172  0.00  0.00    +0.005 A 
ATOM     21  C   UNL     1       0.207   0.035  -0.298  0.00  0.00    +0.000 A 
ENDBRANCH  15  19
ENDBRANCH   1  15
BRANCH  13  22
ATOM     22  C   UNL     1       9.843  -2.776   5.391  0.00  0.00    +0.132 C 
BRANCH  22  23
ATOM     23  S   UNL     1       9.156  -4.046   6.490  0.00  0.00    -0.091 S 
BRANCH  23  24
ATOM     24  C   UNL     1      10.404  -5.289   6.539  0.00  0.00    +0.160 A 
ATOM     25  N   UNL     1      11.577  -5.319   5.936  0.00  0.00    -0.133 NA
ATOM     26  N   UNL     1      12.409  -6.401   6.113  0.00  0.00    -0.125 NA
ATOM     27  C   UNL     1      12.030  -7.401   6.883  0.00  0.00    +0.180 A 
ATOM     28  S   UNL     1      10.422  -6.841   7.423  0.00  0.00    -0.025 S 
ATOM     29  N   UNL     1      12.704  -8.576   7.197  0.00  0.00    -0.336 N 
ATOM     30  H   UNL     1      13.585  -8.743   6.827  0.00  0.00    +0.144 HD
ATOM     31  H   UNL     1      12.294  -9.229   7.785  0.00  0.00    +0.144 HD
ENDBRANCH  23  24
ENDBRANCH  22  23
ENDBRANCH  13  22
TORSDOF 5
