REMARK  Name = ZINC01301427
REMARK  7 active torsions:
REMARK  status: ('A' for Active; 'I' for Inactive)
REMARK    1  A    between atoms: C_1  and  C_2
REMARK    2  A    between atoms: C_5  and  C_8
REMARK    3  A    between atoms: C_13  and  C_30
REMARK    4  A    between atoms: C_23  and  C_25
REMARK    5  A    between atoms: C_33  and  C_36
REMARK    6  A    between atoms: C_36  and  O_38
REMARK    7  A    between atoms: O_38  and  C_39
REMARK                            x       y       z     vdW  Elec       q    Type
REMARK                         _______ _______ _______ _____ _____    ______ ____
ROOT
ATOM      1  C   UNL     1      -0.552  -4.422  -0.418  0.00  0.00    +0.032 C 
ATOM      2  C   UNL     1       0.725  -4.636   0.393  0.00  0.00    +0.059 C 
ATOM      3  C   UNL     1       1.009  -6.122   0.529  0.00  0.00    +0.017 C 
ATOM      4  C   UNL     1      -0.002  -7.005   0.594  0.00  0.00    +0.037 C 
ATOM      5  C   UNL     1       0.137  -8.502   0.732  0.00  0.00    +0.147 C 
ATOM      6  N   UNL     1       1.472  -8.954   1.060  0.00  0.00    -0.254 N 
ATOM      7  C   UNL     1       2.531  -8.770   0.170  0.00  0.00    +0.059 A 
ATOM      8  C   UNL     1       3.179  -9.845  -0.417  0.00  0.00    +0.025 A 
ATOM      9  C   UNL     1       4.193  -9.612  -1.330  0.00  0.00    +0.002 A 
ATOM     10  C   UNL     1       4.556  -8.318  -1.658  0.00  0.00    +0.002 A 
ATOM     11  C   UNL     1       3.922  -7.242  -1.060  0.00  0.00    +0.025 A 
ATOM     12  C   UNL     1       2.923  -7.475  -0.130  0.00  0.00    +0.053 A 
ATOM     13  N   UNL     1       2.325  -6.447   0.588  0.00  0.00    -0.316 N 
ATOM     14  C   UNL     1       1.696  -9.561   2.242  0.00  0.00    +0.258 C 
ATOM     15  O   UNL     1       0.763  -9.825   2.977  0.00  0.00    -0.269 OA
ATOM     16  C   UNL     1      -1.343  -6.559   0.515  0.00  0.00    +0.163 C 
ATOM     17  O   UNL     1      -2.238  -7.377   0.602  0.00  0.00    -0.292 OA
ATOM     18  C   UNL     1      -1.699  -5.115   0.327  0.00  0.00    +0.088 C 
ATOM     19  H   UNL     1       2.891  -5.923   1.177  0.00  0.00    +0.152 HD
ENDROOT
BRANCH   1  24
ATOM     20  C   UNL     1      -1.657   1.231  -0.884  0.00  0.00    +0.044 C 
ATOM     21  C   UNL     1      -1.368  -0.243  -0.762  0.00  0.00    -0.050 A 
ATOM     22  C   UNL     1      -1.184  -1.007  -1.899  0.00  0.00    +0.003 A 
ATOM     23  C   UNL     1      -0.919  -2.359  -1.788  0.00  0.00    +0.004 A 
ATOM     24  C   UNL     1      -0.839  -2.947  -0.539  0.00  0.00    -0.043 A 
ATOM     25  C   UNL     1      -1.023  -2.183   0.598  0.00  0.00    +0.004 A 
ATOM     26  C   UNL     1      -1.283  -0.830   0.486  0.00  0.00    +0.003 A 
ENDBRANCH   1  24
BRANCH   5  27
ATOM     27  C   UNL     1      -0.275  -9.142  -0.569  0.00  0.00    -0.022 A 
ATOM     28  C   UNL     1      -1.374  -9.982  -0.606  0.00  0.00    +0.006 A 
ATOM     29  C   UNL     1      -1.756 -10.571  -1.793  0.00  0.00    +0.015 A 
ATOM     30  C   UNL     1      -1.031 -10.319  -2.959  0.00  0.00    +0.059 A 
ATOM     31  C   UNL     1       0.077  -9.470  -2.915  0.00  0.00    +0.015 A 
ATOM     32  C   UNL     1       0.445  -8.883  -1.722  0.00  0.00    +0.006 A 
BRANCH  30  33
ATOM     33  C   UNL     1      -1.434 -10.946  -4.234  0.00  0.00    +0.339 C 
ATOM     34  O   UNL     1      -2.398 -11.684  -4.269  0.00  0.00    -0.245 OA
BRANCH  33  35
ATOM     35  O   UNL     1      -0.733 -10.700  -5.357  0.00  0.00    -0.464 OA
ATOM     36  C   UNL     1      -1.179 -11.341  -6.554  0.00  0.00    +0.280 C 
ENDBRANCH  33  35
ENDBRANCH  30  33
ENDBRANCH   5  27
BRANCH  14  37
ATOM     37  C   UNL     1       3.064  -9.902   2.643  0.00  0.00    +0.074 A 
ATOM     38  C   UNL     1       3.497 -10.634   3.738  0.00  0.00    +0.021 A 
ATOM     39  C   UNL     1       4.858 -10.790   3.852  0.00  0.00    +0.008 A 
ATOM     40  C   UNL     1       5.665 -10.236   2.913  0.00  0.00    +0.046 A 
ATOM     41  S   UNL     1       4.604  -9.492   1.844  0.00  0.00    -0.092 S 
ENDBRANCH  14  37
TORSDOF 5
