REMARK  Name = ZINC01549291
REMARK  13 active torsions:
REMARK  status: ('A' for Active; 'I' for Inactive)
REMARK    1  A    between atoms: C_1  and  C_2
REMARK    2  A    between atoms: C_2  and  N_58
REMARK    3  A    between atoms: C_3  and  C_4
REMARK    4  A    between atoms: C_3  and  N_58
REMARK    5  A    between atoms: C_5  and  C_6
REMARK    6  A    between atoms: C_5  and  N_58
REMARK    7  A    between atoms: C_6  and  N_7
REMARK    8  A    between atoms: C_9  and  C_21
REMARK    9  A    between atoms: C_15  and  C_17
REMARK   10  A    between atoms: C_18  and  C_19
REMARK   11  A    between atoms: C_19  and  O_20
REMARK   12  A    between atoms: N_23  and  C_24
REMARK   13  A    between atoms: C_24  and  C_25
REMARK                            x       y       z     vdW  Elec       q    Type
REMARK                         _______ _______ _______ _____ _____    ______ ____
ROOT
ATOM      1  N   UNL     1       1.237   4.586   4.813  0.00  0.00    -0.342 N 
ATOM      2  C   UNL     1       1.157   3.889   3.666  0.00  0.00    +0.103 A 
ATOM      3  C   UNL     1       1.171   4.532   2.447  0.00  0.00    +0.100 A 
ATOM      4  C   UNL     1       1.262   5.995   2.401  0.00  0.00    +0.202 A 
ATOM      5  O   UNL     1       1.272   6.591   1.336  0.00  0.00    -0.286 OA
ATOM      6  C   UNL     1       1.343   6.730   3.687  0.00  0.00    +0.054 A 
ATOM      7  C   UNL     1       1.323   5.938   4.843  0.00  0.00    +0.092 A 
ATOM      8  S   UNL     1       1.434   7.130   6.157  0.00  0.00    -0.062 S 
ATOM      9  C   UNL     1       1.502   8.608   5.160  0.00  0.00    +0.065 A 
ATOM     10  C   UNL     1       1.437   8.117   3.894  0.00  0.00    +0.038 A 
ENDROOT
BRANCH   3  11
ATOM     11  C   UNL     1       1.089   3.756   1.200  0.00  0.00    +0.249 C 
ATOM     12  O   UNL     1       1.097   4.328   0.126  0.00  0.00    -0.270 OA
ATOM     13  N   UNL     1       1.005   2.412   1.247  0.00  0.00    -0.307 N 
ATOM     14  H   UNL     1       0.999   1.956   2.103  0.00  0.00    +0.149 HD
BRANCH  13  15
ATOM     15  C   UNL     1       0.923   1.639   0.005  0.00  0.00    +0.139 C 
BRANCH  15  16
ATOM     16  C   UNL     1       0.839   0.170   0.332  0.00  0.00    -0.030 A 
ATOM     17  C   UNL     1      -0.394  -0.428   0.514  0.00  0.00    +0.006 A 
ATOM     18  C   UNL     1      -0.472  -1.775   0.813  0.00  0.00    +0.020 A 
ATOM     19  C   UNL     1       0.684  -2.525   0.931  0.00  0.00    +0.041 A 
ATOM     20  C   UNL     1       1.918  -1.926   0.749  0.00  0.00    +0.020 A 
ATOM     21  C   UNL     1       1.995  -0.579   0.450  0.00  0.00    +0.006 A 
ATOM     22 CL   UNL     1       0.587  -4.217   1.308  0.00  0.00    -0.084 Cl
ENDBRANCH  15  16
ENDBRANCH  13  15
ENDBRANCH   3  11
BRANCH   9  23
ATOM     23  C   UNL     1       1.600   9.971   5.587  0.00  0.00    -0.057 C 
ATOM     24  C   UNL     1       1.680  11.089   5.937  0.00  0.00    -0.069 C 
BRANCH  24  25
ATOM     25  C   UNL     1       1.781  12.490   6.375  0.00  0.00    +0.244 C 
BRANCH  25  26
ATOM     26  O   UNL     1       1.823  12.541   7.803  0.00  0.00    -0.383 OA
ATOM     27  H   UNL     1       1.889  13.436   8.163  0.00  0.00    +0.211 HD
ENDBRANCH  25  26
ENDBRANCH  24  25
ENDBRANCH   9  23
BRANCH   1  28
ATOM     28  C   UNL     1       1.224   3.854   6.082  0.00  0.00    +0.104 C 
BRANCH  28  29
ATOM     29  C   UNL     1      -0.205   3.800   6.625  0.00  0.00    -0.057 C 
BRANCH  29  30
ATOM     30  N   UNL     1      -0.205   3.041   7.893  0.00  0.00    +0.380 N 
ATOM     31  H   UNL     1       0.268   2.142   7.744  0.00  0.00    -0.082 HD
BRANCH  30  33
ATOM     32  C   UNL     1      -0.154   5.147   9.187  0.00  0.00    -0.017 C 
ATOM     33  C   UNL     1       0.522   3.798   8.934  0.00  0.00    -0.082 C 
ENDBRANCH  30  33
BRANCH  30  34
ATOM     34  C   UNL     1      -1.593   2.786   8.330  0.00  0.00    -0.082 C 
ATOM     35  C   UNL     1      -1.577   1.711   9.419  0.00  0.00    -0.017 C 
ENDBRANCH  30  34
ENDBRANCH  29  30
ENDBRANCH  28  29
ENDBRANCH   1  28
TORSDOF 11
