REMARK  Name = ZINC36635349
REMARK  4 active torsions:
REMARK  status: ('A' for Active; 'I' for Inactive)
REMARK    1  A    between atoms: C_1  and  C_2
REMARK    2  A    between atoms: C_5  and  N_8
REMARK    3  A    between atoms: C_12  and  N_16
REMARK    4  A    between atoms: N_16  and  C_17
REMARK                            x       y       z     vdW  Elec       q    Type
REMARK                         _______ _______ _______ _____ _____    ______ ____
ROOT
ATOM      1  N   UNL     1       0.059  -4.172  -0.021  0.00  0.00    -0.209 N 
ATOM      2  C   UNL     1      -0.030  -4.892  -1.146  0.00  0.00    +0.228 C 
ATOM      3  O   UNL     1      -0.134  -4.436  -2.265  0.00  0.00    -0.275 OA
ATOM      4  C   UNL     1       0.020  -6.364  -0.801  0.00  0.00    +0.128 C 
ATOM      5  C   UNL     1       0.155  -6.371   0.735  0.00  0.00    +0.166 C 
ATOM      6  C   UNL     1       0.172  -4.902   1.096  0.00  0.00    +0.247 C 
ATOM      7  O   UNL     1       0.271  -4.455   2.219  0.00  0.00    -0.273 OA
ENDROOT
BRANCH   1  12
ATOM      8  C   UNL     1      -0.016   1.503   0.009  0.00  0.00    +0.044 C 
ATOM      9  C   UNL     1       0.004  -0.004   0.001  0.00  0.00    -0.050 A 
ATOM     10  C   UNL     1       1.156  -0.681   0.357  0.00  0.00    +0.005 A 
ATOM     11  C   UNL     1       1.177  -2.062   0.351  0.00  0.00    +0.024 A 
ATOM     12  C   UNL     1       0.040  -2.771  -0.013  0.00  0.00    +0.044 A 
ATOM     13  C   UNL     1      -1.115  -2.088  -0.370  0.00  0.00    +0.024 A 
ATOM     14  C   UNL     1      -1.132  -0.707  -0.357  0.00  0.00    +0.005 A 
ENDBRANCH   1  12
BRANCH   5  15
ATOM     15  N   UNL     1      -0.990  -7.048   1.350  0.00  0.00    -0.331 N 
ATOM     16  H   UNL     1      -1.837  -7.091   0.880  0.00  0.00    +0.147 HD
BRANCH  15  17
ATOM     17  C   UNL     1      -0.861  -7.630   2.615  0.00  0.00    +0.046 A 
ATOM     18  C   UNL     1       0.350  -7.564   3.291  0.00  0.00    +0.026 A 
ATOM     19  C   UNL     1       0.475  -8.140   4.540  0.00  0.00    +0.022 A 
ATOM     20  C   UNL     1      -0.605  -8.784   5.118  0.00  0.00    +0.042 A 
ATOM     21  C   UNL     1      -1.813  -8.853   4.447  0.00  0.00    +0.041 A 
ATOM     22  C   UNL     1      -1.946  -8.273   3.199  0.00  0.00    +0.063 A 
ATOM     23 CL   UNL     1      -3.463  -8.352   2.361  0.00  0.00    -0.082 Cl
ATOM     24 CL   UNL     1      -0.444  -9.508   6.688  0.00  0.00    -0.083 Cl
ENDBRANCH  15  17
ENDBRANCH   5  15
TORSDOF 3
