REMARK  Name = ZINC22005076
REMARK  7 active torsions:
REMARK  status: ('A' for Active; 'I' for Inactive)
REMARK    1  A    between atoms: C_1  and  C_2
REMARK    2  A    between atoms: C_3  and  C_26
REMARK    3  A    between atoms: C_10  and  C_12
REMARK    4  A    between atoms: C_12  and  S_13
REMARK    5  A    between atoms: S_13  and  C_14
REMARK    6  A    between atoms: C_14  and  C_15
REMARK    7  A    between atoms: N_17  and  C_18
REMARK                            x       y       z     vdW  Elec       q    Type
REMARK                         _______ _______ _______ _____ _____    ______ ____
ROOT
ATOM      1  C   UNL     1       0.133  -3.432   4.545  0.00  0.00    +0.143 C 
ENDROOT
BRANCH   1  11
ATOM      2  C   UNL     1       0.061   1.501   0.005  0.00  0.00    +0.045 C 
ATOM      3  C   UNL     1       0.069  -0.006  -0.002  0.00  0.00    -0.026 A 
ATOM      4  C   UNL     1       0.067  -0.680  -1.164  0.00  0.00    -0.008 A 
ATOM      5  S   UNL     1       0.079  -2.387  -0.651  0.00  0.00    -0.073 S 
ATOM      6  C   UNL     1       0.087  -2.146   1.107  0.00  0.00    +0.116 A 
ATOM      7  C   UNL     1       0.086  -0.746   1.245  0.00  0.00    +0.075 A 
ATOM      8  C   UNL     1       0.096  -0.257   2.592  0.00  0.00    +0.260 A 
ATOM      9  O   UNL     1       0.091   0.941   2.816  0.00  0.00    -0.267 OA
ATOM     10  N   UNL     1       0.111  -1.142   3.607  0.00  0.00    -0.310 N 
ATOM     11  C   UNL     1       0.116  -2.480   3.376  0.00  0.00    +0.121 A 
ATOM     12  N   UNL     1       0.097  -2.957   2.160  0.00  0.00    -0.226 NA
ATOM     13  C   UNL     1       0.056  -0.125  -2.565  0.00  0.00    +0.052 C 
ATOM     14  H   UNL     1       0.117  -0.817   4.521  0.00  0.00    +0.170 HD
ENDBRANCH   1  11
BRANCH   1  15
ATOM     15  S   UNL     1       0.138  -5.140   3.933  0.00  0.00    -0.144 S 
BRANCH  15  16
ATOM     16  C   UNL     1       0.158  -6.147   5.442  0.00  0.00    +0.165 C 
BRANCH  16  17
ATOM     17  C   UNL     1       0.163  -7.607   5.071  0.00  0.00    +0.227 C 
ATOM     18  O   UNL     1       0.154  -7.937   3.904  0.00  0.00    -0.275 OA
ATOM     19  N   UNL     1       0.178  -8.547   6.037  0.00  0.00    -0.282 N 
ATOM     20  H   UNL     1       0.251  -8.285   6.968  0.00  0.00    +0.155 HD
BRANCH  19  21
ATOM     21  C   UNL     1       0.089  -9.903   5.696  0.00  0.00    +0.072 A 
ATOM     22  C   UNL     1       0.676 -10.366   4.527  0.00  0.00    +0.064 A 
ATOM     23  C   UNL     1       0.586 -11.705   4.193  0.00  0.00    +0.125 A 
ATOM     24  C   UNL     1      -0.088 -12.584   5.024  0.00  0.00    +0.041 A 
ATOM     25  C   UNL     1      -0.674 -12.125   6.189  0.00  0.00    +0.043 A 
ATOM     26  C   UNL     1      -0.583 -10.788   6.531  0.00  0.00    +0.145 A 
ATOM     27  F   UNL     1      -1.151 -10.342   7.673  0.00  0.00    -0.204 F 
ATOM     28  F   UNL     1       1.157 -12.157   3.055  0.00  0.00    -0.205 F 
ENDBRANCH  19  21
ENDBRANCH  16  17
ENDBRANCH  15  16
ENDBRANCH   1  15
TORSDOF 5
