REMARK  Name = ZINC66484593
REMARK  6 active torsions:
REMARK  status: ('A' for Active; 'I' for Inactive)
REMARK    1  A    between atoms: C_1  and  O_2
REMARK    2  A    between atoms: O_2  and  C_3
REMARK    3  A    between atoms: C_3  and  C_4
REMARK    4  A    between atoms: C_4  and  N_5
REMARK    5  A    between atoms: C_7  and  C_12
REMARK    6  A    between atoms: C_17  and  C_20
REMARK                            x       y       z     vdW  Elec       q    Type
REMARK                         _______ _______ _______ _____ _____    ______ ____
ROOT
ATOM      1  C   UNL     1       2.917  -3.189   2.518  0.00  0.00    +0.252 C 
ATOM      2  O   UNL     1       3.587  -2.885   1.550  0.00  0.00    -0.270 OA
ATOM      3  N   UNL     1       3.519  -3.600   3.652  0.00  0.00    -0.249 N 
ATOM      4  C   UNL     1       4.913  -3.678   3.714  0.00  0.00    +0.241 A 
ATOM      5  N   UNL     1       5.620  -4.070   4.776  0.00  0.00    -0.194 NA
ATOM      6  C   UNL     1       6.907  -4.026   4.494  0.00  0.00    +0.158 A 
ATOM      7  N   UNL     1       7.039  -3.595   3.217  0.00  0.00    -0.257 N 
ATOM      8  N   UNL     1       5.737  -3.384   2.735  0.00  0.00    -0.136 NA
ATOM      9  H   UNL     1       2.985  -3.843   4.424  0.00  0.00    +0.158 HD
ATOM     10  H   UNL     1       7.868  -3.463   2.731  0.00  0.00    +0.191 HD
ENDROOT
BRANCH   6  11
ATOM     11  C   UNL     1       8.010  -4.383   5.408  0.00  0.00    +0.026 A 
ATOM     12  C   UNL     1       9.318  -4.410   4.952  0.00  0.00    +0.012 A 
ATOM     13  C   UNL     1      10.361  -4.746   5.807  0.00  0.00    +0.001 A 
ATOM     14  C   UNL     1      10.129  -5.056   7.113  0.00  0.00    +0.008 A 
ATOM     15  C   UNL     1       8.818  -5.041   7.619  0.00  0.00    -0.017 A 
ATOM     16  C   UNL     1       7.743  -4.696   6.764  0.00  0.00    -0.007 A 
ATOM     17  C   UNL     1       6.436  -4.676   7.271  0.00  0.00    +0.009 A 
ATOM     18  C   UNL     1       6.216  -4.983   8.580  0.00  0.00    +0.001 A 
ATOM     19  C   UNL     1       7.272  -5.317   9.425  0.00  0.00    +0.001 A 
ATOM     20  C   UNL     1       8.553  -5.358   8.963  0.00  0.00    +0.008 A 
ENDBRANCH   6  11
BRANCH   1  23
ATOM     21  N   UNL     1      -0.518  -2.610   1.230  0.00  0.00    -0.312 N 
ATOM     22  C   UNL     1       0.825  -2.686   1.295  0.00  0.00    +0.102 A 
ATOM     23  C   UNL     1       1.447  -3.107   2.453  0.00  0.00    +0.053 A 
ATOM     24  C   UNL     1       0.661  -3.459   3.577  0.00  0.00    +0.020 A 
ATOM     25  C   UNL     1      -0.693  -3.374   3.488  0.00  0.00    +0.071 A 
ATOM     26  C   UNL     1      -1.283  -2.935   2.288  0.00  0.00    +0.251 A 
ATOM     27  O   UNL     1      -2.497  -2.853   2.205  0.00  0.00    -0.268 OA
BRANCH  21  28
ATOM     28  C   UNL     1      -1.155  -2.160  -0.009  0.00  0.00    +0.153 C 
BRANCH  28  29
ATOM     29  C   UNL     1      -1.316  -0.639   0.023  0.00  0.00    +0.181 C 
BRANCH  29  31
ATOM     30  C   UNL     1      -0.064   1.405   0.059  0.00  0.00    +0.194 C 
ATOM     31  O   UNL     1      -0.027  -0.023   0.029  0.00  0.00    -0.381 OA
ENDBRANCH  29  31
ENDBRANCH  28  29
ENDBRANCH  21  28
ENDBRANCH   1  23
TORSDOF 5
