REMARK  Name = ZINC33767466
REMARK  11 active torsions:
REMARK  status: ('A' for Active; 'I' for Inactive)
REMARK    1  A    between atoms: C_1  and  C_2
REMARK    2  A    between atoms: C_7  and  N_12
REMARK    3  A    between atoms: C_9  and  C_11
REMARK    4  A    between atoms: C_13  and  C_15
REMARK    5  A    between atoms: C_23  and  C_35
REMARK    6  A    between atoms: N_29  and  C_30
REMARK    7  A    between atoms: C_30  and  C_31
REMARK    8  A    between atoms: C_31  and  C_32
REMARK    9  A    between atoms: C_32  and  C_33
REMARK   10  A    between atoms: C_32  and  C_34
REMARK   11  A    between atoms: N_37  and  C_38
REMARK                            x       y       z     vdW  Elec       q    Type
REMARK                         _______ _______ _______ _____ _____    ______ ____
ROOT
ATOM      1  C   UNL     1       1.170   2.459  -0.111  0.00  0.00    +0.198 C 
ATOM      2  C   UNL     1       0.595   3.490   0.810  0.00  0.00    +0.127 C 
ATOM      3  C   UNL     1       0.489   3.005   2.244  0.00  0.00    +0.009 C 
ATOM      4  C   UNL     1      -0.022   4.017   2.929  0.00  0.00    +0.004 C 
ATOM      5  C   UNL     1      -0.288   5.109   1.885  0.00  0.00    +0.155 C 
ATOM      6  O   UNL     1       0.827   4.873   0.927  0.00  0.00    -0.358 OA
ATOM      7  C   UNL     1      -1.526   4.525   1.101  0.00  0.00    +0.123 C 
ATOM      8  C   UNL     1      -0.857   3.534   0.183  0.00  0.00    +0.128 C 
ATOM      9  C   UNL     1      -1.141   2.093   0.069  0.00  0.00    +0.223 C 
ATOM     10  O   UNL     1      -2.223   1.559   0.196  0.00  0.00    -0.275 OA
ATOM     11  N   UNL     1       0.052   1.469  -0.205  0.00  0.00    -0.287 N 
ENDROOT
BRANCH   1  13
ATOM     12  N   UNL     1       3.623   2.300   0.172  0.00  0.00    -0.311 N 
ATOM     13  C   UNL     1       2.400   1.828   0.488  0.00  0.00    +0.237 C 
ATOM     14  O   UNL     1       2.290   0.895   1.256  0.00  0.00    -0.274 OA
ATOM     15  H   UNL     1       3.722   3.146  -0.524  0.00  0.00    +0.149 HD
BRANCH  12  21
ATOM     16  C   UNL     1       7.402   4.175  -0.643  0.00  0.00    +0.008 C 
ATOM     17  C   UNL     1       6.262   3.155  -0.660  0.00  0.00    -0.009 C 
ATOM     18  C   UNL     1       6.673   1.943  -1.498  0.00  0.00    +0.003 C 
ATOM     19  C   UNL     1       5.533   0.923  -1.515  0.00  0.00    +0.002 C 
ATOM     20  C   UNL     1       5.230   0.474  -0.084  0.00  0.00    +0.022 C 
ATOM     21  C   UNL     1       4.818   1.686   0.754  0.00  0.00    +0.076 C 
ATOM     22  C   UNL     1       5.959   2.706   0.771  0.00  0.00    +0.009 C 
ATOM     23  C   UNL     1       5.547   3.917   1.609  0.00  0.00    +0.009 C 
ENDBRANCH  12  21
ENDBRANCH   1  13
BRANCH   7  24
ATOM     24  C   UNL     1      -2.483   3.835   2.038  0.00  0.00    +0.224 C 
ATOM     25  O   UNL     1      -2.244   2.712   2.429  0.00  0.00    -0.275 OA
ATOM     26  N   UNL     1      -3.604   4.465   2.441  0.00  0.00    -0.285 N 
ATOM     27  H   UNL     1      -3.860   5.451   2.027  0.00  0.00    +0.155 HD
BRANCH  26  28
ATOM     28  C   UNL     1      -4.444   3.863   3.386  0.00  0.00    +0.033 A 
ATOM     29  C   UNL     1      -4.634   2.488   3.372  0.00  0.00    +0.025 A 
ATOM     30  C   UNL     1      -5.460   1.897   4.308  0.00  0.00    +0.022 A 
ATOM     31  C   UNL     1      -6.104   2.675   5.254  0.00  0.00    +0.041 A 
ATOM     32  C   UNL     1      -5.920   4.046   5.267  0.00  0.00    +0.022 A 
ATOM     33  C   UNL     1      -5.092   4.642   4.336  0.00  0.00    +0.025 A 
ATOM     34 CL   UNL     1      -7.146   1.929   6.426  0.00  0.00    -0.084 Cl
ENDBRANCH  26  28
ENDBRANCH   7  24
BRANCH  11  35
ATOM     35  C   UNL     1       0.206   0.052  -0.543  0.00  0.00    +0.109 C 
BRANCH  35  36
ATOM     36  C   UNL     1       0.048  -0.132  -2.054  0.00  0.00    +0.022 C 
BRANCH  36  37
ATOM     37  C   UNL     1       0.083  -1.623  -2.393  0.00  0.00    -0.016 C 
ATOM     38  C   UNL     1      -0.199  -1.814  -3.884  0.00  0.00    +0.007 C 
ATOM     39  C   UNL     1       1.464  -2.190  -2.058  0.00  0.00    +0.007 C 
ENDBRANCH  36  37
ENDBRANCH  35  36
ENDBRANCH  11  35
TORSDOF 7
