REMARK  Name = ZINC12852055
REMARK  12 active torsions:
REMARK  status: ('A' for Active; 'I' for Inactive)
REMARK    1  A    between atoms: C_1  and  C_2
REMARK    2  A    between atoms: C_2  and  C_3
REMARK    3  A    between atoms: C_2  and  C_4
REMARK    4  A    between atoms: C_4  and  C_6
REMARK    5  A    between atoms: C_4  and  N_22
REMARK    6  A    between atoms: C_14  and  S_18
REMARK    7  A    between atoms: S_18  and  C_19
REMARK    8  A    between atoms: C_23  and  C_25
REMARK    9  A    between atoms: C_28  and  C_31
REMARK   10  A    between atoms: C_31  and  C_32
REMARK   11  A    between atoms: C_31  and  C_33
REMARK   12  A    between atoms: C_31  and  C_34
REMARK                            x       y       z     vdW  Elec       q    Type
REMARK                         _______ _______ _______ _____ _____    ______ ____
ROOT
ATOM      1  C   UNL     1       7.729   3.551   0.091  0.00  0.00    +0.162 C 
ENDROOT
BRANCH   1   2
ATOM      2  C   UNL     1       6.283   3.154  -0.067  0.00  0.00    +0.239 C 
ATOM      3  O   UNL     1       5.449   3.994  -0.331  0.00  0.00    -0.273 OA
ATOM      4  N   UNL     1       5.918   1.866   0.086  0.00  0.00    -0.263 N 
ATOM      5  C   UNL     1       4.578   1.515   0.033  0.00  0.00    +0.165 A 
ATOM      6  N   UNL     1       3.533   2.285  -0.155  0.00  0.00    -0.225 NA
ATOM      7  C   UNL     1       2.270   1.802  -0.183  0.00  0.00    +0.080 A 
ATOM      8  C   UNL     1       1.066   2.519  -0.375  0.00  0.00    +0.030 A 
ATOM      9  C   UNL     1      -0.135   1.882  -0.377  0.00  0.00    +0.017 A 
ATOM     10  C   UNL     1      -0.230   0.503  -0.191  0.00  0.00    +0.014 A 
ATOM     11  C   UNL     1       0.931  -0.235   0.001  0.00  0.00    +0.032 A 
ATOM     12  C   UNL     1       2.145   0.406   0.003  0.00  0.00    +0.042 A 
ATOM     13  S   UNL     1       3.835  -0.102   0.203  0.00  0.00    -0.052 S 
ATOM     14  H   UNL     1       6.592   1.184   0.233  0.00  0.00    +0.157 HD
BRANCH  10  15
ATOM     15  S   UNL     1      -1.802  -0.292  -0.198  0.00  0.00    -0.056 S 
BRANCH  15  16
ATOM     16  C   UNL     1      -2.977   1.062  -0.476  0.00  0.00    +0.404 C 
ATOM     17  F   UNL     1      -2.864   1.998   0.558  0.00  0.00    -0.197 F 
ATOM     18  F   UNL     1      -2.695   1.681  -1.698  0.00  0.00    -0.197 F 
ENDBRANCH  15  16
ENDBRANCH  10  15
ENDBRANCH   1   2
BRANCH   1  19
ATOM     19  N   UNL     1       7.816   4.994   0.324  0.00  0.00    -0.300 N 
ATOM     20  C   UNL     1       8.878   5.509   0.976  0.00  0.00    +0.245 C 
ATOM     21  O   UNL     1       9.763   4.775   1.370  0.00  0.00    -0.270 OA
ATOM     22  H   UNL     1       7.110   5.580   0.010  0.00  0.00    +0.150 HD
BRANCH  20  23
ATOM     23  C   UNL     1       8.966   6.966   1.211  0.00  0.00    +0.037 A 
ATOM     24  C   UNL     1       7.954   7.812   0.755  0.00  0.00    +0.013 A 
ATOM     25  C   UNL     1       8.040   9.170   0.981  0.00  0.00    +0.005 A 
ATOM     26  C   UNL     1       9.132   9.695   1.651  0.00  0.00    -0.042 A 
ATOM     27  C   UNL     1      10.141   8.862   2.101  0.00  0.00    +0.005 A 
ATOM     28  C   UNL     1      10.064   7.502   1.885  0.00  0.00    +0.013 A 
BRANCH  26  29
ATOM     29  C   UNL     1       9.222  11.180   1.890  0.00  0.00    -0.013 C 
ATOM     30  C   UNL     1      10.484  11.729   1.221  0.00  0.00    +0.015 C 
ATOM     31  C   UNL     1       7.990  11.867   1.298  0.00  0.00    +0.015 C 
ATOM     32  C   UNL     1       9.284  11.451   3.394  0.00  0.00    +0.015 C 
ENDBRANCH  26  29
ENDBRANCH  20  23
ENDBRANCH   1  19
BRANCH   1  34
ATOM     33  C   UNL     1       7.983   4.042  -2.345  0.00  0.00    +0.009 C 
ATOM     34  C   UNL     1       8.498   3.192  -1.182  0.00  0.00    +0.012 C 
ATOM     35  C   UNL     1       9.989   3.465  -0.971  0.00  0.00    +0.009 C 
ENDBRANCH   1  34
TORSDOF 7
