REMARK  Name = ZINC00810351
REMARK  10 active torsions:
REMARK  status: ('A' for Active; 'I' for Inactive)
REMARK    1  A    between atoms: C_1  and  C_2
REMARK    2  A    between atoms: C_2  and  C_3
REMARK    3  A    between atoms: C_2  and  C_4
REMARK    4  A    between atoms: C_2  and  N_5
REMARK    5  A    between atoms: N_5  and  S_6
REMARK    6  A    between atoms: S_6  and  C_9
REMARK    7  A    between atoms: C_12  and  C_15
REMARK    8  A    between atoms: C_15  and  C_16
REMARK    9  A    between atoms: C_16  and  C_17
REMARK   10  A    between atoms: N_19  and  C_20
REMARK                            x       y       z     vdW  Elec       q    Type
REMARK                         _______ _______ _______ _____ _____    ______ ____
ROOT
ATOM      1  C   UNL     1       2.949  -0.030   0.231  0.00  0.00    +0.105 A 
ATOM      2  C   UNL     1       2.768   0.671   1.408  0.00  0.00    +0.029 A 
ATOM      3  C   UNL     1       3.493   0.329   2.534  0.00  0.00    +0.005 A 
ATOM      4  C   UNL     1       4.397  -0.714   2.484  0.00  0.00    -0.047 A 
ATOM      5  C   UNL     1       4.578  -1.416   1.307  0.00  0.00    +0.005 A 
ATOM      6  C   UNL     1       3.850  -1.077   0.181  0.00  0.00    +0.029 A 
ENDROOT
BRANCH   1   7
ATOM      7  S   UNL     1       2.026   0.406  -1.206  0.00  0.00    +0.059 S 
ATOM      8  O   UNL     1       2.652  -0.243  -2.304  0.00  0.00    -0.153 OA
ATOM      9  O   UNL     1       1.841   1.814  -1.157  0.00  0.00    -0.153 OA
BRANCH   7  10
ATOM     10  N   UNL     1       0.524  -0.275  -1.047  0.00  0.00    -0.185 NA
ATOM     11  H   UNL     1      -0.253   0.291  -0.916  0.00  0.00    +0.149 HD
BRANCH  10  13
ATOM     12  C   UNL     1       1.358  -2.387  -0.139  0.00  0.00    +0.029 C 
ATOM     13  C   UNL     1       0.370  -1.730  -1.105  0.00  0.00    +0.032 C 
ATOM     14  C   UNL     1       0.650  -2.216  -2.529  0.00  0.00    +0.029 C 
ATOM     15  C   UNL     1      -1.059  -2.108  -0.709  0.00  0.00    +0.029 C 
ENDBRANCH  10  13
ENDBRANCH   7  10
ENDBRANCH   1   7
BRANCH   4  16
ATOM     16  C   UNL     1       5.188  -1.087   3.712  0.00  0.00    +0.044 C 
BRANCH  16  17
ATOM     17  C   UNL     1       4.415  -2.133   4.518  0.00  0.00    +0.101 C 
BRANCH  17  18
ATOM     18  C   UNL     1       5.206  -2.505   5.746  0.00  0.00    +0.218 C 
ATOM     19  O   UNL     1       6.281  -1.984   5.956  0.00  0.00    -0.275 OA
ATOM     20  N   UNL     1       4.718  -3.416   6.611  0.00  0.00    -0.285 N 
ATOM     21  H   UNL     1       3.893  -3.885   6.408  0.00  0.00    +0.155 HD
BRANCH  20  22
ATOM     22  C   UNL     1       5.402  -3.687   7.803  0.00  0.00    +0.037 A 
ATOM     23  C   UNL     1       5.376  -4.966   8.343  0.00  0.00    +0.027 A 
ATOM     24  C   UNL     1       6.051  -5.234   9.519  0.00  0.00    +0.051 A 
ATOM     25  C   UNL     1       6.754  -4.228  10.162  0.00  0.00    +0.166 A 
ATOM     26  C   UNL     1       6.781  -2.945   9.623  0.00  0.00    +0.168 A 
ATOM     27  C   UNL     1       6.110  -2.678   8.441  0.00  0.00    +0.072 A 
ATOM     28  O   UNL     1       7.532  -2.145  10.436  0.00  0.00    -0.453 OA
ATOM     29  C   UNL     1       7.624  -2.849  11.689  0.00  0.00    +0.466 C 
ATOM     30  O   UNL     1       7.488  -4.233  11.314  0.00  0.00    -0.453 OA
ENDBRANCH  20  22
ENDBRANCH  17  18
ENDBRANCH  16  17
ENDBRANCH   4  16
TORSDOF 7
