REMARK  Name = ZINC11459776
REMARK  6 active torsions:
REMARK  status: ('A' for Active; 'I' for Inactive)
REMARK    1  A    between atoms: C_1  and  C_2
REMARK    2  A    between atoms: C_2  and  C_3
REMARK    3  A    between atoms: C_2  and  O_17
REMARK    4  A    between atoms: C_8  and  C_11
REMARK    5  A    between atoms: O_17  and  C_18
REMARK    6  A    between atoms: C_18  and  C_20
REMARK                            x       y       z     vdW  Elec       q    Type
REMARK                         _______ _______ _______ _____ _____    ______ ____
ROOT
ATOM      1  C   UNL     1      -0.014   1.508  -0.015  0.00  0.00    +0.062 C 
ATOM      2  C   UNL     1       0.009  -0.022   0.002  0.00  0.00    +0.259 C 
ENDROOT
BRANCH   2   3
ATOM      3  C   UNL     1       0.722  -0.528  -1.225  0.00  0.00    +0.259 C 
ATOM      4  O   UNL     1       0.116  -1.167  -2.059  0.00  0.00    -0.271 OA
ATOM      5  N   UNL     1       2.034  -0.270  -1.397  0.00  0.00    -0.262 N 
ATOM      6  C   UNL     1       2.692  -0.736  -2.528  0.00  0.00    +0.165 A 
ATOM      7  N   UNL     1       3.958  -0.597  -2.875  0.00  0.00    -0.225 NA
ATOM      8  C   UNL     1       4.422  -1.113  -4.003  0.00  0.00    +0.080 A 
ATOM      9  C   UNL     1       3.575  -1.803  -4.824  0.00  0.00    +0.076 A 
ATOM     10  S   UNL     1       2.050  -1.690  -3.897  0.00  0.00    -0.060 S 
ATOM     11  H   UNL     1       2.519   0.241  -0.730  0.00  0.00    +0.157 HD
BRANCH   8  12
ATOM     12  C   UNL     1       5.849  -0.944  -4.372  0.00  0.00    +0.001 A 
ATOM     13  C   UNL     1       6.332  -1.483  -5.563  0.00  0.00    +0.010 A 
ATOM     14  C   UNL     1       7.661  -1.322  -5.901  0.00  0.00    +0.001 A 
ATOM     15  C   UNL     1       8.512  -0.628  -5.060  0.00  0.00    +0.000 A 
ATOM     16  C   UNL     1       8.038  -0.091  -3.877  0.00  0.00    +0.001 A 
ATOM     17  C   UNL     1       6.710  -0.240  -3.531  0.00  0.00    +0.010 A 
ENDBRANCH   8  12
ENDBRANCH   2   3
BRANCH   2  18
ATOM     18  O   UNL     1      -1.331  -0.518   0.012  0.00  0.00    -0.449 OA
BRANCH  18  19
ATOM     19  C   UNL     1      -1.901  -0.717   1.216  0.00  0.00    +0.341 C 
ATOM     20  O   UNL     1      -1.277  -0.476   2.230  0.00  0.00    -0.245 OA
BRANCH  19  21
ATOM     21  C   UNL     1      -3.289  -1.230   1.304  0.00  0.00    +0.073 A 
ATOM     22  C   UNL     1      -3.838  -1.552   2.512  0.00  0.00    +0.085 A 
ATOM     23  C   UNL     1      -5.209  -2.055   2.567  0.00  0.00    +0.250 A 
ATOM     24  N   UNL     1      -5.936  -2.206   1.446  0.00  0.00    -0.322 N 
ATOM     25  C   UNL     1      -5.418  -1.892   0.208  0.00  0.00    +0.050 A 
ATOM     26  C   UNL     1      -4.107  -1.397   0.093  0.00  0.00    +0.012 A 
ATOM     27  C   UNL     1      -3.591  -1.075  -1.166  0.00  0.00    +0.011 A 
ATOM     28  C   UNL     1      -4.367  -1.238  -2.279  0.00  0.00    +0.001 A 
ATOM     29  C   UNL     1      -5.664  -1.720  -2.171  0.00  0.00    +0.002 A 
ATOM     30  C   UNL     1      -6.188  -2.056  -0.941  0.00  0.00    +0.026 A 
ATOM     31  O   UNL     1      -5.701  -2.343   3.643  0.00  0.00    -0.268 OA
ATOM     32  H   UNL     1      -6.844  -2.542   1.510  0.00  0.00    +0.169 HD
ENDBRANCH  19  21
ENDBRANCH  18  19
ENDBRANCH   2  18
TORSDOF 5
