REMARK  Name = ZINC22319529
REMARK  13 active torsions:
REMARK  status: ('A' for Active; 'I' for Inactive)
REMARK    1  A    between atoms: C_1  and  C_2
REMARK    2  A    between atoms: C_5  and  S_8
REMARK    3  A    between atoms: S_8  and  N_11
REMARK    4  A    between atoms: N_11  and  C_12
REMARK    5  A    between atoms: N_11  and  C_30
REMARK    6  A    between atoms: C_12  and  C_13
REMARK    7  A    between atoms: N_15  and  C_16
REMARK    8  A    between atoms: C_16  and  C_17
REMARK    9  A    between atoms: C_22  and  C_23
REMARK   10  A    between atoms: C_23  and  N_24
REMARK   11  A    between atoms: C_33  and  C_36
REMARK   12  A    between atoms: C_36  and  C_37
REMARK   13  A    between atoms: C_36  and  C_38
REMARK                            x       y       z     vdW  Elec       q    Type
REMARK                         _______ _______ _______ _____ _____    ______ ____
ROOT
ATOM      1  N   UNL     1       1.114  -1.569  -0.056  0.00  0.00    -0.194 N 
ENDROOT
BRANCH   1   2
ATOM      2  C   UNL     1       0.754  -0.236   0.154  0.00  0.00    +0.052 A 
ATOM      3  C   UNL     1      -0.586   0.114   0.258  0.00  0.00    +0.025 A 
ATOM      4  C   UNL     1      -0.939   1.433   0.466  0.00  0.00    +0.006 A 
ATOM      5  C   UNL     1       0.040   2.404   0.571  0.00  0.00    -0.045 A 
ATOM      6  C   UNL     1       1.375   2.059   0.467  0.00  0.00    +0.006 A 
ATOM      7  C   UNL     1       1.735   0.742   0.259  0.00  0.00    +0.025 A 
BRANCH   5   8
ATOM      8  C   UNL     1      -0.348   3.843   0.797  0.00  0.00    +0.013 C 
ATOM      9  C   UNL     1       0.264   4.336   2.109  0.00  0.00    +0.012 C 
ATOM     10  C   UNL     1       0.168   4.699  -0.361  0.00  0.00    +0.012 C 
ENDBRANCH   5   8
ENDBRANCH   1   2
BRANCH   1  11
ATOM     11  S   UNL     1       2.549  -1.932  -0.801  0.00  0.00    +0.075 S 
ATOM     12  O   UNL     1       2.388  -3.216  -1.388  0.00  0.00    -0.150 OA
ATOM     13  O   UNL     1       2.913  -0.787  -1.560  0.00  0.00    -0.150 OA
BRANCH  11  18
ATOM     14  C   UNL     1       6.708  -2.523   3.529  0.00  0.00    +0.044 C 
ATOM     15  C   UNL     1       5.669  -2.375   2.448  0.00  0.00    -0.050 A 
ATOM     16  C   UNL     1       4.848  -3.441   2.128  0.00  0.00    +0.005 A 
ATOM     17  C   UNL     1       3.896  -3.305   1.135  0.00  0.00    +0.029 A 
ATOM     18  C   UNL     1       3.763  -2.104   0.464  0.00  0.00    +0.109 A 
ATOM     19  C   UNL     1       4.587  -1.040   0.780  0.00  0.00    +0.029 A 
ATOM     20  C   UNL     1       5.537  -1.175   1.776  0.00  0.00    +0.005 A 
ENDBRANCH  11  18
ENDBRANCH   1  11
BRANCH   1  21
ATOM     21  C   UNL     1       0.224  -2.647   0.381  0.00  0.00    +0.227 C 
BRANCH  21  22
ATOM     22  C   UNL     1      -0.810  -2.909  -0.684  0.00  0.00    +0.232 C 
ATOM     23  O   UNL     1      -0.802  -2.259  -1.708  0.00  0.00    -0.274 OA
ATOM     24  N   UNL     1      -1.741  -3.865  -0.499  0.00  0.00    -0.310 N 
ATOM     25  H   UNL     1      -1.748  -4.454   0.430  0.00  0.00    +0.149 HD
BRANCH  24  26
ATOM     26  C   UNL     1      -2.746  -4.119  -1.535  0.00  0.00    +0.140 C 
BRANCH  26  27
ATOM     27  C   UNL     1      -3.662  -5.227  -1.084  0.00  0.00    -0.026 A 
ATOM     28  C   UNL     1      -3.510  -6.502  -1.598  0.00  0.00    +0.005 A 
ATOM     29  C   UNL     1      -4.347  -7.519  -1.182  0.00  0.00    +0.000 A 
ATOM     30  C   UNL     1      -5.344  -7.261  -0.259  0.00  0.00    +0.000 A 
ATOM     31  C   UNL     1      -5.499  -5.985   0.251  0.00  0.00    +0.005 A 
ATOM     32  C   UNL     1      -4.658  -4.969  -0.162  0.00  0.00    -0.025 A 
BRANCH  32  33
ATOM     33  C   UNL     1      -4.828  -3.578   0.394  0.00  0.00    +0.143 C 
BRANCH  33  34
ATOM     34  N   UNL     1      -5.895  -3.580   1.398  0.00  0.00    -0.297 N 
ATOM     35  C   UNL     1      -5.683  -3.819   2.831  0.00  0.00    +0.108 C 
ATOM     36  C   UNL     1      -7.078  -4.157   3.402  0.00  0.00    +0.028 C 
ATOM     37  C   UNL     1      -8.012  -3.449   2.395  0.00  0.00    +0.097 C 
ATOM     38  C   UNL     1      -7.192  -3.358   1.127  0.00  0.00    +0.216 C 
ATOM     39  O   UNL     1      -7.641  -3.123   0.025  0.00  0.00    -0.276 OA
ENDBRANCH  33  34
ENDBRANCH  32  33
ENDBRANCH  26  27
ENDBRANCH  24  26
ENDBRANCH  21  22
ENDBRANCH   1  21
TORSDOF 10
