REMARK  Name = ZINC09159951
REMARK  4 active torsions:
REMARK  status: ('A' for Active; 'I' for Inactive)
REMARK    1  A    between atoms: C_4  and  N_7
REMARK    2  A    between atoms: C_22  and  C_28
REMARK    3  A    between atoms: N_30  and  C_31
REMARK    4  A    between atoms: C_35  and  N_37
REMARK                            x       y       z     vdW  Elec       q    Type
REMARK                         _______ _______ _______ _____ _____    ______ ____
ROOT
ATOM      1  N   UNL     1      -5.823   4.348  -1.000  0.00  0.00    -0.210 N 
ATOM      2  C   UNL     1      -4.956   3.834  -0.115  0.00  0.00    +0.232 C 
ATOM      3  O   UNL     1      -5.181   3.629   1.059  0.00  0.00    -0.274 OA
ATOM      4  C   UNL     1      -3.648   3.552  -0.827  0.00  0.00    +0.113 C 
ATOM      5  C   UNL     1      -2.488   4.183  -0.056  0.00  0.00    +0.100 C 
ATOM      6  C   UNL     1      -1.279   3.284  -0.026  0.00  0.00    -0.021 A 
ATOM      7  C   UNL     1      -1.415   1.916   0.036  0.00  0.00    +0.006 A 
ATOM      8  C   UNL     1      -0.289   1.110   0.063  0.00  0.00    +0.000 A 
ATOM      9  C   UNL     1       0.974   1.673   0.017  0.00  0.00    +0.001 A 
ATOM     10  C   UNL     1       1.123   3.043  -0.050  0.00  0.00    +0.008 A 
ATOM     11  C   UNL     1      -0.006   3.864  -0.071  0.00  0.00    -0.019 A 
ATOM     12  C   UNL     1       0.144   5.332  -0.137  0.00  0.00    +0.022 C 
ATOM     13  C   UNL     1      -0.911   6.089  -0.494  0.00  0.00    +0.054 C 
ATOM     14  C   UNL     1      -3.108   5.735  -1.762  0.00  0.00    +0.156 C 
ATOM     15  C   UNL     1      -3.789   4.405  -2.122  0.00  0.00    +0.118 C 
ATOM     16  C   UNL     1      -5.289   4.616  -2.201  0.00  0.00    +0.232 C 
ATOM     17  O   UNL     1      -5.902   4.968  -3.185  0.00  0.00    -0.274 OA
ATOM     18  N   UNL     1      -2.328   5.539  -0.512  0.00  0.00    -0.383 NA
ATOM     19  H   UNL     1      -2.817   6.106   0.190  0.00  0.00    +0.127 HD
ENDROOT
BRANCH   1  23
ATOM     20  C   UNL     1      -9.830   5.055  -0.096  0.00  0.00    +0.000 A 
ATOM     21  C   UNL     1      -9.311   5.478  -1.306  0.00  0.00    +0.002 A 
ATOM     22  C   UNL     1      -7.984   5.245  -1.608  0.00  0.00    +0.024 A 
ATOM     23  C   UNL     1      -7.170   4.586  -0.696  0.00  0.00    +0.044 A 
ATOM     24  C   UNL     1      -7.696   4.159   0.516  0.00  0.00    +0.024 A 
ATOM     25  C   UNL     1      -9.023   4.399   0.815  0.00  0.00    +0.002 A 
ENDBRANCH   1  23
BRANCH  14  26
ATOM     26  C   UNL     1      -4.134   6.677  -1.186  0.00  0.00    +0.237 C 
ATOM     27  O   UNL     1      -4.242   6.794   0.016  0.00  0.00    -0.273 OA
ATOM     28  N   UNL     1      -4.931   7.389  -2.007  0.00  0.00    -0.284 N 
ATOM     29  H   UNL     1      -4.897   7.240  -2.965  0.00  0.00    +0.155 HD
BRANCH  28  30
ATOM     30  C   UNL     1      -5.806   8.344  -1.477  0.00  0.00    +0.036 A 
ATOM     31  C   UNL     1      -7.041   8.563  -2.074  0.00  0.00    +0.025 A 
ATOM     32  C   UNL     1      -7.905   9.501  -1.546  0.00  0.00    +0.024 A 
ATOM     33  C   UNL     1      -7.537  10.232  -0.429  0.00  0.00    +0.071 A 
ATOM     34  C   UNL     1      -6.305  10.021   0.164  0.00  0.00    +0.146 A 
ATOM     35  C   UNL     1      -5.439   9.079  -0.357  0.00  0.00    +0.057 A 
ATOM     36 CL   UNL     1      -8.623  11.416   0.228  0.00  0.00    -0.081 Cl
BRANCH  34  37
ATOM     37  N   UNL     1      -5.915  10.803   1.357  0.00  0.00    +0.058 N 
ATOM     38  O   UNL     1      -4.831  10.617   1.880  0.00  0.00    -0.126 OA
ATOM     39  O   UNL     1      -6.678  11.634   1.817  0.00  0.00    -0.126 OA
ENDBRANCH  34  37
ENDBRANCH  28  30
ENDBRANCH  14  26
TORSDOF 4
