REMARK  Name = ZINC01852928
REMARK  7 active torsions:
REMARK  status: ('A' for Active; 'I' for Inactive)
REMARK    1  A    between atoms: C_6  and  C_7
REMARK    2  A    between atoms: C_8  and  C_9
REMARK    3  A    between atoms: N_11  and  C_12
REMARK    4  A    between atoms: C_12  and  N_14
REMARK    5  A    between atoms: N_14  and  C_15
REMARK    6  A    between atoms: C_18  and  O_31
REMARK    7  A    between atoms: C_19  and  C_21
REMARK                            x       y       z     vdW  Elec       q    Type
REMARK                         _______ _______ _______ _____ _____    ______ ____
ROOT
ATOM      1  C   UNL     1      -4.755  -7.047   0.062  0.00  0.00    +0.034 A 
ATOM      2  C   UNL     1      -6.012  -6.454   0.046  0.00  0.00    +0.027 A 
ATOM      3  C   UNL     1      -7.151  -7.234   0.103  0.00  0.00    +0.048 A 
ATOM      4  C   UNL     1      -7.047  -8.614   0.176  0.00  0.00    +0.129 A 
ATOM      5  C   UNL     1      -5.784  -9.218   0.192  0.00  0.00    +0.080 A 
ATOM      6  C   UNL     1      -4.637  -8.425   0.130  0.00  0.00    +0.040 A 
ENDROOT
BRANCH   5   7
ATOM      7  C   UNL     1      -5.666 -10.688   0.270  0.00  0.00    +0.232 A 
ATOM      8  N   UNL     1      -4.537 -11.351   0.296  0.00  0.00    -0.209 NA
ATOM      9  C   UNL     1      -4.811 -12.678   0.370  0.00  0.00    +0.111 A 
ATOM     10  C   UNL     1      -4.016 -13.826   0.424  0.00  0.00    +0.051 A 
ATOM     11  C   UNL     1      -4.611 -15.067   0.495  0.00  0.00    +0.043 A 
ATOM     12  C   UNL     1      -5.994 -15.182   0.512  0.00  0.00    +0.024 A 
ATOM     13  C   UNL     1      -6.791 -14.057   0.458  0.00  0.00    +0.050 A 
ATOM     14  C   UNL     1      -6.210 -12.801   0.387  0.00  0.00    +0.156 A 
ATOM     15  O   UNL     1      -6.704 -11.544   0.330  0.00  0.00    -0.435 OA
ATOM     16 CL   UNL     1      -3.625 -16.494   0.562  0.00  0.00    -0.083 Cl
ENDBRANCH   5   7
BRANCH   1  17
ATOM     17  N   UNL     1      -3.604  -6.250   0.004  0.00  0.00    -0.297 N 
ATOM     18  H   UNL     1      -2.879  -6.487  -0.594  0.00  0.00    +0.154 HD
BRANCH  17  19
ATOM     19  C   UNL     1      -3.506  -5.151   0.779  0.00  0.00    +0.141 C 
ATOM     20  S   UNL     1      -4.829  -4.671   1.754  0.00  0.00    -0.018 S 
BRANCH  19  23
ATOM     21  C   UNL     1      -2.269  -3.333   1.562  0.00  0.00    +0.242 C 
ATOM     22  O   UNL     1      -3.209  -2.992   2.255  0.00  0.00    -0.270 OA
ATOM     23  N   UNL     1      -2.367  -4.431   0.787  0.00  0.00    -0.264 N 
ATOM     24  H   UNL     1      -1.617  -4.704   0.235  0.00  0.00    +0.157 HD
BRANCH  21  26
ATOM     25  C   UNL     1      -0.934  -1.453   2.347  0.00  0.00    +0.013 C 
ATOM     26  C   UNL     1      -1.032  -2.552   1.571  0.00  0.00    +0.068 C 
BRANCH  25  32
ATOM     27  C   UNL     1       0.415   0.473   3.159  0.00  0.00    +0.009 A 
ATOM     28  C   UNL     1       1.583   1.204   3.162  0.00  0.00    +0.020 A 
ATOM     29  C   UNL     1       2.652   0.812   2.372  0.00  0.00    +0.041 A 
ATOM     30  C   UNL     1       2.555  -0.316   1.574  0.00  0.00    +0.020 A 
ATOM     31  C   UNL     1       1.393  -1.057   1.560  0.00  0.00    +0.009 A 
ATOM     32  C   UNL     1       0.310  -0.667   2.356  0.00  0.00    -0.025 A 
ATOM     33 CL   UNL     1       4.119   1.740   2.382  0.00  0.00    -0.084 Cl
ENDBRANCH  25  32
ENDBRANCH  21  26
ENDBRANCH  19  23
ENDBRANCH  17  19
ENDBRANCH   1  17
BRANCH   4  34
ATOM     34  O   UNL     1      -8.168  -9.378   0.233  0.00  0.00    -0.506 OA
ATOM     35  H   UNL     1      -8.505  -9.647  -0.633  0.00  0.00    +0.292 HD
ENDBRANCH   4  34
TORSDOF 7
