REMARK  Name = ZINC53667438
REMARK  9 active torsions:
REMARK  status: ('A' for Active; 'I' for Inactive)
REMARK    1  A    between atoms: C_1  and  C_2
REMARK    2  A    between atoms: C_8  and  C_24
REMARK    3  A    between atoms: C_8  and  C_25
REMARK    4  A    between atoms: C_10  and  N_12
REMARK    5  A    between atoms: N_12  and  S_13
REMARK    6  A    between atoms: S_13  and  C_16
REMARK    7  A    between atoms: C_17  and  C_23
REMARK    8  A    between atoms: N_19  and  C_22
REMARK    9  A    between atoms: C_20  and  C_21
REMARK                            x       y       z     vdW  Elec       q    Type
REMARK                         _______ _______ _______ _____ _____    ______ ____
ROOT
ATOM      1  N   UNL     1      -2.496  -3.308   0.956  0.00  0.00    -0.182 NA
ATOM      2  H   UNL     1      -2.342  -3.515   1.891  0.00  0.00    +0.149 HD
ENDROOT
BRANCH   1  12
ATOM      3  C   UNL     1      -0.018   1.503   0.010  0.00  0.00    +0.086 C 
ATOM      4  C   UNL     1       0.002  -0.004   0.002  0.00  0.00    +0.103 A 
ATOM      5  C   UNL     1      -1.081  -0.806   0.003  0.00  0.00    +0.050 A 
ATOM      6  C   UNL     1      -0.602  -2.129  -0.007  0.00  0.00    +0.012 A 
ATOM      7  C   UNL     1       0.745  -2.064  -0.014  0.00  0.00    +0.110 A 
ATOM      8  O   UNL     1       1.104  -0.775  -0.013  0.00  0.00    -0.464 OA
ATOM      9  C   UNL     1       1.646  -3.276  -0.028  0.00  0.00    +0.081 C 
ATOM     10  C   UNL     1       0.815  -4.493  -0.450  0.00  0.00    -0.026 C 
ATOM     11  C   UNL     1      -0.462  -4.558   0.393  0.00  0.00    +0.032 C 
ATOM     12  C   UNL     1      -1.397  -3.409  -0.008  0.00  0.00    +0.110 C 
ATOM     13  C   UNL     1       0.444  -4.369  -1.929  0.00  0.00    +0.011 C 
ATOM     14  C   UNL     1       1.633  -5.768  -0.235  0.00  0.00    +0.011 C 
ENDBRANCH   1  12
BRANCH   1  15
ATOM     15  S   UNL     1      -4.001  -2.840   0.448  0.00  0.00    +0.062 S 
ATOM     16  O   UNL     1      -4.842  -2.865   1.594  0.00  0.00    -0.153 OA
ATOM     17  O   UNL     1      -3.819  -1.671  -0.338  0.00  0.00    -0.153 OA
BRANCH  15  18
ATOM     18  C   UNL     1      -4.596  -4.091  -0.640  0.00  0.00    +0.148 A 
ATOM     19  C   UNL     1      -4.404  -4.136  -2.025  0.00  0.00    +0.086 A 
ATOM     20  N   UNL     1      -4.991  -5.212  -2.484  0.00  0.00    -0.174 NA
ATOM     21  N   UNL     1      -5.575  -5.887  -1.405  0.00  0.00    -0.269 N 
ATOM     22  C   UNL     1      -5.314  -5.181  -0.284  0.00  0.00    +0.062 A 
ATOM     23  C   UNL     1      -5.747  -5.542   1.114  0.00  0.00    +0.067 C 
ATOM     24  C   UNL     1      -6.331  -7.139  -1.478  0.00  0.00    +0.172 C 
ATOM     25  C   UNL     1      -3.652  -3.121  -2.847  0.00  0.00    +0.069 C 
ENDBRANCH  15  18
ENDBRANCH   1  15
TORSDOF 3
