REMARK  Name = ZINC08635610
REMARK  6 active torsions:
REMARK  status: ('A' for Active; 'I' for Inactive)
REMARK    1  A    between atoms: C_4  and  S_7
REMARK    2  A    between atoms: S_7  and  N_10
REMARK    3  A    between atoms: N_10  and  C_11
REMARK    4  A    between atoms: C_11  and  C_12
REMARK    5  A    between atoms: C_20  and  C_22
REMARK    6  A    between atoms: C_22  and  N_69
REMARK                            x       y       z     vdW  Elec       q    Type
REMARK                         _______ _______ _______ _____ _____    ______ ____
ROOT
ATOM      1  C   UNL     1       5.343  -0.387  -3.756  0.00  0.00    -0.053 C 
ATOM      2  C   UNL     1       5.764   0.825  -4.591  0.00  0.00    -0.011 C 
ATOM      3  C   UNL     1       7.288   0.802  -4.763  0.00  0.00    -0.015 C 
ATOM      4  C   UNL     1       7.683  -0.509  -5.455  0.00  0.00    -0.015 C 
ATOM      5  C   UNL     1       7.209  -1.684  -4.595  0.00  0.00    -0.078 C 
ATOM      6  C   UNL     1       7.457  -0.376  -2.572  0.00  0.00    -0.077 C 
ATOM      7  C   UNL     1       7.938   0.837  -3.374  0.00  0.00    -0.041 C 
ATOM      8  N   UNL     1       6.525  -1.192  -3.380  0.00  0.00    +0.383 N 
ATOM      9  H   UNL     1       6.217  -1.997  -2.822  0.00  0.00    -0.081 HD
ENDROOT
BRANCH   1  10
ATOM     10  C   UNL     1       4.641   0.089  -2.482  0.00  0.00    +0.090 C 
BRANCH  10  11
ATOM     11  N   UNL     1       4.346  -1.063  -1.627  0.00  0.00    -0.191 NA
ATOM     12  H   UNL     1       4.392  -1.961  -1.990  0.00  0.00    +0.148 HD
BRANCH  11  13
ATOM     13  S   UNL     1       3.934  -0.832  -0.040  0.00  0.00    +0.058 S 
ATOM     14  O   UNL     1       4.901   0.054   0.506  0.00  0.00    -0.153 OA
ATOM     15  O   UNL     1       3.685  -2.119   0.507  0.00  0.00    -0.153 OA
BRANCH  13  19
ATOM     16  C   UNL     1      -0.017   1.378   0.010  0.00  0.00    +0.000 A 
ATOM     17  C   UNL     1       1.171   2.086   0.002  0.00  0.00    +0.002 A 
ATOM     18  C   UNL     1       2.377   1.411  -0.014  0.00  0.00    +0.028 A 
ATOM     19  C   UNL     1       2.396   0.029  -0.021  0.00  0.00    +0.105 A 
ATOM     20  C   UNL     1       1.208  -0.679  -0.014  0.00  0.00    +0.028 A 
ATOM     21  C   UNL     1       0.002  -0.004   0.002  0.00  0.00    +0.002 A 
ENDBRANCH  13  19
ENDBRANCH  11  13
ENDBRANCH  10  11
ENDBRANCH   1  10
BRANCH   7  22
ATOM     22  C   UNL     1       7.532   2.123  -2.650  0.00  0.00    -0.077 C 
BRANCH  22  36
ATOM     23  C   UNL     1       7.714   3.297  -0.543  0.00  0.00    -0.074 C 
ATOM     24  C   UNL     1       8.415   3.354   0.806  0.00  0.00    -0.007 C 
ATOM     25  C   UNL     1       9.931   3.475   0.628  0.00  0.00    +0.011 C 
ATOM     26  C   UNL     1      10.392   2.283  -0.218  0.00  0.00    +0.020 C 
ATOM     27  C   UNL     1       9.695   2.372  -1.586  0.00  0.00    -0.069 C 
ATOM     28  C   UNL     1       9.938   1.000   0.441  0.00  0.00    +0.023 A 
ATOM     29  C   UNL     1      10.673  -0.119   0.204  0.00  0.00    +0.022 A 
ATOM     30  C   UNL     1      10.278  -1.354   0.729  0.00  0.00    +0.007 A 
ATOM     31  C   UNL     1       9.131  -1.420   1.465  0.00  0.00    +0.070 A 
ATOM     32  C   UNL     1       8.398  -0.247   1.692  0.00  0.00    +0.251 A 
ATOM     33  O   UNL     1       7.346  -0.304   2.308  0.00  0.00    -0.268 OA
ATOM     34  N   UNL     1       8.844   0.950   1.236  0.00  0.00    -0.312 N 
ATOM     35  C   UNL     1       8.102   2.137   1.660  0.00  0.00    +0.126 C 
ATOM     36  N   UNL     1       8.244   2.185  -1.358  0.00  0.00    +0.380 N 
ATOM     37  H   UNL     1       8.097   1.303  -0.854  0.00  0.00    -0.082 HD
ENDBRANCH  22  36
ENDBRANCH   7  22
TORSDOF 6
