REMARK  Name = ZINC21289839
REMARK  9 active torsions:
REMARK  status: ('A' for Active; 'I' for Inactive)
REMARK    1  A    between atoms: C_1  and  N_2
REMARK    2  A    between atoms: N_2  and  C_3
REMARK    3  A    between atoms: C_6  and  C_12
REMARK    4  A    between atoms: C_8  and  N_9
REMARK    5  A    between atoms: N_14  and  N_15
REMARK    6  A    between atoms: C_16  and  C_18
REMARK    7  A    between atoms: C_21  and  C_24
REMARK    8  A    between atoms: C_24  and  S_25
REMARK    9  A    between atoms: S_25  and  C_26
REMARK                            x       y       z     vdW  Elec       q    Type
REMARK                         _______ _______ _______ _____ _____    ______ ____
ROOT
ATOM      1  N   UNL     1      11.712   5.709   0.563  0.00  0.00    -0.230 N 
ATOM      2  C   UNL     1      11.176   5.577  -0.666  0.00  0.00    +0.260 C 
ATOM      3  O   UNL     1      11.869   5.732  -1.652  0.00  0.00    -0.269 OA
ATOM      4  H   UNL     1      11.085   5.568   1.456  0.00  0.00    +0.173 HD
ENDROOT
BRANCH   2   5
ATOM      5  C   UNL     1       9.743   5.242  -0.815  0.00  0.00    +0.038 A 
ATOM      6  C   UNL     1       9.185   5.104  -2.087  0.00  0.00    +0.013 A 
ATOM      7  C   UNL     1       7.848   4.791  -2.219  0.00  0.00    +0.005 A 
ATOM      8  C   UNL     1       7.061   4.614  -1.095  0.00  0.00    -0.037 A 
ATOM      9  C   UNL     1       7.607   4.755   0.169  0.00  0.00    +0.005 A 
ATOM     10  C   UNL     1       8.944   5.062   0.315  0.00  0.00    +0.013 A 
BRANCH   8  11
ATOM     11  C   UNL     1       5.601   4.272  -1.247  0.00  0.00    +0.112 C 
BRANCH  11  12
ATOM     12  S   UNL     1       5.404   2.474  -1.297  0.00  0.00    -0.083 S 
BRANCH  12  13
ATOM     13  C   UNL     1       3.655   2.362  -1.474  0.00  0.00    +0.168 A 
ATOM     14  N   UNL     1       2.947   1.197  -1.565  0.00  0.00    -0.333 N 
ATOM     15  H   UNL     1       3.472   0.231  -1.530  0.00  0.00    +0.168 HD
ATOM     16  C   UNL     1       1.611   1.537  -1.693  0.00  0.00    +0.067 A 
ATOM     17  C   UNL     1       0.441   0.804  -1.823  0.00  0.00    +0.028 A 
ATOM     18  C   UNL     1      -0.769   1.457  -1.938  0.00  0.00    +0.002 A 
ATOM     19  C   UNL     1      -0.825   2.842  -1.915  0.00  0.00    +0.002 A 
ATOM     20  C   UNL     1       0.327   3.586  -1.786  0.00  0.00    +0.030 A 
ATOM     21  C   UNL     1       1.561   2.940  -1.674  0.00  0.00    +0.090 A 
ATOM     22  N   UNL     1       2.837   3.385  -1.539  0.00  0.00    -0.222 NA
ENDBRANCH  12  13
ENDBRANCH  11  12
ENDBRANCH   8  11
ENDBRANCH   2   5
BRANCH   1  25
ATOM     23  C   UNL     1      13.606   6.159   1.934  0.00  0.00    +0.260 C 
ATOM     24  O   UNL     1      12.912   6.003   2.920  0.00  0.00    -0.269 OA
ATOM     25  N   UNL     1      13.070   6.026   0.705  0.00  0.00    -0.230 N 
ATOM     26  H   UNL     1      13.697   6.167  -0.188  0.00  0.00    +0.173 HD
BRANCH  23  30
ATOM     27  C   UNL     1      17.720   7.120   2.362  0.00  0.00    +0.058 A 
ATOM     28  C   UNL     1      17.167   6.983   1.092  0.00  0.00    +0.026 A 
ATOM     29  C   UNL     1      15.836   6.666   0.950  0.00  0.00    +0.015 A 
ATOM     30  C   UNL     1      15.035   6.493   2.083  0.00  0.00    +0.040 A 
ATOM     31  C   UNL     1      15.593   6.631   3.357  0.00  0.00    +0.047 A 
ATOM     32  C   UNL     1      16.927   6.942   3.493  0.00  0.00    +0.148 A 
BRANCH  27  34
ATOM     33  C   UNL     1      19.873   7.747   1.320  0.00  0.00    +0.125 C 
ATOM     34  N   UNL     1      19.067   7.435   2.503  0.00  0.00    -0.345 N 
ATOM     35  H   UNL     1      19.527   7.450   3.502  0.00  0.00    +0.146 HD
ENDBRANCH  27  34
BRANCH  32  36
ATOM     36  N   UNL     1      17.519   7.088   4.841  0.00  0.00    +0.058 N 
ATOM     37  O   UNL     1      16.805   7.045   5.827  0.00  0.00    -0.126 OA
ATOM     38  O   UNL     1      18.719   7.252   4.965  0.00  0.00    -0.126 OA
ENDBRANCH  32  36
ENDBRANCH  23  30
ENDBRANCH   1  25
TORSDOF 8
