REMARK  Name = ZINC38672645
REMARK  9 active torsions:
REMARK  status: ('A' for Active; 'I' for Inactive)
REMARK    1  A    between atoms: C_1  and  C_2
REMARK    2  A    between atoms: C_4  and  S_10
REMARK    3  A    between atoms: S_10  and  N_13
REMARK    4  A    between atoms: N_13  and  C_14
REMARK    5  A    between atoms: C_14  and  C_15
REMARK    6  A    between atoms: C_15  and  C_17
REMARK    7  A    between atoms: C_15  and  N_27
REMARK    8  A    between atoms: N_25  and  C_26
REMARK    9  A    between atoms: N_30  and  C_33
REMARK                            x       y       z     vdW  Elec       q    Type
REMARK                         _______ _______ _______ _____ _____    ______ ____
ROOT
ATOM      1  C   UNL     1       2.969  -5.631  -2.412  0.00  0.00    +0.102 C 
ENDROOT
BRANCH   1   2
ATOM      2  C   UNL     1       3.130  -6.763  -1.429  0.00  0.00    -0.029 A 
ATOM      3  C   UNL     1       4.349  -7.405  -1.305  0.00  0.00    +0.007 A 
ATOM      4  C   UNL     1       4.499  -8.440  -0.407  0.00  0.00    +0.024 A 
ATOM      5  C   UNL     1       3.422  -8.848   0.383  0.00  0.00    +0.033 A 
ATOM      6  C   UNL     1       2.206  -8.198   0.251  0.00  0.00    -0.025 A 
ATOM      7  C   UNL     1       2.061  -7.157  -0.646  0.00  0.00    +0.010 A 
ATOM      8  C   UNL     1       1.218  -8.825   1.210  0.00  0.00    +0.056 C 
ATOM      9  C   UNL     1       2.019  -9.928   1.921  0.00  0.00    +0.109 C 
ATOM     10  N   UNL     1       3.363  -9.861   1.342  0.00  0.00    -0.332 N 
ATOM     11  C   UNL     1       4.482 -10.732   1.714  0.00  0.00    +0.129 C 
ENDBRANCH   1   2
BRANCH   1  12
ATOM     12  N   UNL     1       2.121  -6.069  -3.528  0.00  0.00    -0.298 NA
ATOM     13  C   UNL     1       0.797  -6.491  -3.049  0.00  0.00    +0.066 C 
ATOM     14  C   UNL     1      -0.074  -6.882  -4.245  0.00  0.00    -0.064 C 
ATOM     15  N   UNL     1       0.570  -7.976  -4.984  0.00  0.00    +0.379 N 
ATOM     16  C   UNL     1       1.880  -7.532  -5.477  0.00  0.00    -0.064 C 
ATOM     17  C   UNL     1       2.768  -7.146  -4.291  0.00  0.00    +0.066 C 
ATOM     18  C   UNL     1      -0.275  -8.364  -6.121  0.00  0.00    -0.096 C 
ATOM     19  H   UNL     1       0.693  -8.769  -4.371  0.00  0.00    -0.082 HD
ENDBRANCH   1  12
BRANCH   1  20
ATOM     20  C   UNL     1       2.316  -4.437  -1.713  0.00  0.00    +0.129 C 
BRANCH  20  21
ATOM     21  N   UNL     1       2.051  -3.382  -2.694  0.00  0.00    -0.188 NA
ATOM     22  H   UNL     1       2.475  -3.413  -3.566  0.00  0.00    +0.148 HD
BRANCH  21  23
ATOM     23  S   UNL     1       1.028  -2.137  -2.314  0.00  0.00    +0.060 S 
ATOM     24  O   UNL     1      -0.148  -2.727  -1.776  0.00  0.00    -0.153 OA
ATOM     25  O   UNL     1       0.999  -1.276  -3.445  0.00  0.00    -0.153 OA
BRANCH  23  29
ATOM     26  C   UNL     1       3.201   2.221  -0.417  0.00  0.00    +0.045 C 
ATOM     27  C   UNL     1       2.766   0.796  -0.189  0.00  0.00    -0.030 A 
ATOM     28  C   UNL     1       2.178   0.081  -1.215  0.00  0.00    +0.034 A 
ATOM     29  C   UNL     1       1.778  -1.226  -1.006  0.00  0.00    +0.124 A 
ATOM     30  C   UNL     1       1.967  -1.818   0.230  0.00  0.00    +0.069 A 
ATOM     31  C   UNL     1       2.556  -1.103   1.257  0.00  0.00    +0.042 A 
ATOM     32  C   UNL     1       2.960   0.203   1.046  0.00  0.00    +0.045 A 
ATOM     33 CL   UNL     1       3.705   1.100   2.332  0.00  0.00    -0.083 Cl
ATOM     34 CL   UNL     1       1.464  -3.459   0.492  0.00  0.00    -0.081 Cl
ENDBRANCH  23  29
ENDBRANCH  21  23
ENDBRANCH  20  21
ENDBRANCH   1  20
TORSDOF 6
