REMARK  Name = ZINC13643128
REMARK  7 active torsions:
REMARK  status: ('A' for Active; 'I' for Inactive)
REMARK    1  A    between atoms: C_1  and  C_2
REMARK    2  A    between atoms: C_2  and  C_3
REMARK    3  A    between atoms: C_3  and  C_4
REMARK    4  A    between atoms: N_6  and  C_7
REMARK    5  A    between atoms: C_20  and  C_23
REMARK    6  A    between atoms: N_35  and  C_36
REMARK    7  A    between atoms: C_36  and  C_37
REMARK                            x       y       z     vdW  Elec       q    Type
REMARK                         _______ _______ _______ _____ _____    ______ ____
ROOT
ATOM      1  C   UNL     1      -2.973  10.514  -1.481  0.00  0.00    +0.039 A 
ATOM      2  C   UNL     1      -3.890  11.108  -0.628  0.00  0.00    +0.025 A 
ATOM      3  C   UNL     1      -3.589  11.258   0.712  0.00  0.00    +0.023 A 
ATOM      4  C   UNL     1      -2.374  10.817   1.196  0.00  0.00    +0.062 A 
ATOM      5  C   UNL     1      -1.446  10.220   0.342  0.00  0.00    +0.052 A 
ATOM      6  C   UNL     1      -1.744  10.064  -0.999  0.00  0.00    +0.003 A 
ATOM      7  C   UNL     1      -0.798   9.423  -1.971  0.00  0.00    +0.050 C 
ATOM      8  C   UNL     1      -1.292   8.050  -2.368  0.00  0.00    -0.023 C 
ATOM      9  C   UNL     1      -0.289   7.213  -2.463  0.00  0.00    -0.030 C 
ATOM     10  C   UNL     1       1.019   7.913  -2.151  0.00  0.00    +0.033 C 
ATOM     11  C   UNL     1       0.579   9.156  -1.327  0.00  0.00    +0.029 C 
ATOM     12  C   UNL     1       0.370   8.706   0.121  0.00  0.00    +0.105 C 
ATOM     13  N   UNL     1      -0.233   9.797   0.888  0.00  0.00    -0.335 N 
ATOM     14 CL   UNL     1      -1.998  11.007   2.880  0.00  0.00    -0.082 Cl
ATOM     15  H   UNL     1       0.409  10.569   0.984  0.00  0.00    +0.147 HD
ENDROOT
BRANCH  12  16
ATOM     16  C   UNL     1      -0.544   7.508   0.148  0.00  0.00    -0.026 A 
ATOM     17  C   UNL     1      -1.891   7.673   0.433  0.00  0.00    +0.007 A 
ATOM     18  C   UNL     1      -2.740   6.588   0.462  0.00  0.00    +0.027 A 
ATOM     19  C   UNL     1      -2.248   5.312   0.203  0.00  0.00    +0.050 A 
ATOM     20  C   UNL     1      -0.885   5.147  -0.086  0.00  0.00    +0.008 A 
ATOM     21  C   UNL     1      -0.038   6.253  -0.111  0.00  0.00    +0.016 A 
ATOM     22  C   UNL     1      -0.677   3.704  -0.310  0.00  0.00    +0.008 A 
ATOM     23  C   UNL     1       0.440   2.935  -0.627  0.00  0.00    +0.010 A 
ATOM     24  C   UNL     1       0.312   1.571  -0.776  0.00  0.00    +0.001 A 
ATOM     25  C   UNL     1      -0.923   0.963  -0.611  0.00  0.00    +0.002 A 
ATOM     26  C   UNL     1      -2.037   1.713  -0.301  0.00  0.00    +0.026 A 
ATOM     27  C   UNL     1      -1.927   3.091  -0.142  0.00  0.00    +0.050 A 
ATOM     28  N   UNL     1      -2.856   4.070   0.165  0.00  0.00    -0.340 N 
BRANCH  28  29
ATOM     29  C   UNL     1      -4.279   3.826   0.413  0.00  0.00    +0.119 C 
ATOM     30  C   UNL     1      -5.050   3.920  -0.904  0.00  0.00    +0.027 C 
ENDBRANCH  28  29
ENDBRANCH  12  16
BRANCH   1  33
ATOM     31  C   UNL     1      -4.565  10.210  -3.224  0.00  0.00    +0.217 C 
ATOM     32  O   UNL     1      -5.457  10.282  -2.405  0.00  0.00    -0.275 OA
ATOM     33  N   UNL     1      -3.283  10.364  -2.838  0.00  0.00    -0.285 N 
ATOM     34  H   UNL     1      -2.575  10.372  -3.501  0.00  0.00    +0.155 HD
BRANCH  31  35
ATOM     35  C   UNL     1      -4.890   9.949  -4.672  0.00  0.00    +0.096 C 
BRANCH  35  37
ATOM     36  C   UNL     1      -6.736   9.550  -6.308  0.00  0.00    +0.004 C 
ATOM     37  C   UNL     1      -6.405   9.815  -4.838  0.00  0.00    +0.006 C 
ENDBRANCH  35  37
ENDBRANCH  31  35
ENDBRANCH   1  33
TORSDOF 5
