REMARK  Name = ZINC20748536
REMARK  9 active torsions:
REMARK  status: ('A' for Active; 'I' for Inactive)
REMARK    1  A    between atoms: C_1  and  C_2
REMARK    2  A    between atoms: C_2  and  O_3
REMARK    3  A    between atoms: O_3  and  C_4
REMARK    4  A    between atoms: C_9  and  C_10
REMARK    5  A    between atoms: C_21  and  S_26
REMARK    6  A    between atoms: S_26  and  N_29
REMARK    7  A    between atoms: N_29  and  C_30
REMARK    8  A    between atoms: C_32  and  C_37
REMARK    9  A    between atoms: C_34  and  C_36
REMARK                            x       y       z     vdW  Elec       q    Type
REMARK                         _______ _______ _______ _____ _____    ______ ____
ROOT
ATOM      1  C   UNL     1       1.142  -0.549   0.262  0.00  0.00    +0.108 C 
ATOM      2  C   UNL     1       0.719   0.833   0.726  0.00  0.00    +0.029 C 
ATOM      3  C   UNL     1      -0.589   1.392   0.147  0.00  0.00    +0.033 C 
ATOM      4  C   UNL     1      -0.331   2.899   0.202  0.00  0.00    -0.030 C 
ATOM      5  C   UNL     1       0.975   3.138   0.162  0.00  0.00    -0.023 C 
ATOM      6  C   UNL     1       1.690   1.842   0.044  0.00  0.00    +0.049 C 
ATOM      7  C   UNL     1       3.034   1.648   0.628  0.00  0.00    -0.018 A 
ATOM      8  C   UNL     1       3.915   2.690   0.822  0.00  0.00    +0.034 A 
ATOM      9  C   UNL     1       5.168   2.455   1.357  0.00  0.00    +0.109 A 
ATOM     10  C   UNL     1       5.542   1.169   1.701  0.00  0.00    +0.030 A 
ATOM     11  C   UNL     1       4.665   0.120   1.518  0.00  0.00    +0.025 A 
ATOM     12  C   UNL     1       3.401   0.346   0.987  0.00  0.00    +0.031 A 
ATOM     13  N   UNL     1       2.521  -0.731   0.829  0.00  0.00    -0.336 N 
ATOM     14  H   UNL     1       2.863  -1.731   1.134  0.00  0.00    +0.147 HD
ENDROOT
BRANCH   1  20
ATOM     15  C   UNL     1      -0.002  -0.775  -1.958  0.00  0.00    +0.125 A 
ATOM     16  C   UNL     1       0.032  -0.826  -3.344  0.00  0.00    +0.046 A 
ATOM     17  C   UNL     1       1.237  -0.708  -4.009  0.00  0.00    +0.004 A 
ATOM     18  C   UNL     1       2.409  -0.539  -3.295  0.00  0.00    +0.001 A 
ATOM     19  C   UNL     1       2.377  -0.483  -1.914  0.00  0.00    +0.009 A 
ATOM     20  C   UNL     1       1.175  -0.606  -1.244  0.00  0.00    +0.015 A 
BRANCH  15  21
ATOM     21  O   UNL     1      -1.186  -0.891  -1.301  0.00  0.00    -0.492 OA
BRANCH  21  23
ATOM     22  C   UNL     1      -3.583  -1.174  -1.193  0.00  0.00    +0.048 C 
ATOM     23  C   UNL     1      -2.357  -1.063  -2.101  0.00  0.00    +0.225 C 
ENDBRANCH  21  23
ENDBRANCH  15  21
ENDBRANCH   1  20
BRANCH   9  24
ATOM     24  S   UNL     1       6.287   3.794   1.602  0.00  0.00    +0.072 S 
ATOM     25  O   UNL     1       5.509   4.982   1.582  0.00  0.00    -0.150 OA
ATOM     26  O   UNL     1       7.109   3.439   2.705  0.00  0.00    -0.150 OA
BRANCH  24  27
ATOM     27  N   UNL     1       7.277   3.853   0.275  0.00  0.00    -0.216 N 
ATOM     28  H   UNL     1       8.357   3.679   0.386  0.00  0.00    +0.174 HD
BRANCH  27  29
ATOM     29  C   UNL     1       6.739   4.124  -0.985  0.00  0.00    +0.049 A 
ATOM     30  C   UNL     1       6.612   3.106  -1.921  0.00  0.00    +0.028 A 
ATOM     31  C   UNL     1       6.075   3.376  -3.165  0.00  0.00    -0.048 A 
ATOM     32  C   UNL     1       5.675   4.661  -3.483  0.00  0.00    +0.006 A 
ATOM     33  C   UNL     1       5.806   5.678  -2.555  0.00  0.00    -0.048 A 
ATOM     34  C   UNL     1       6.336   5.414  -1.308  0.00  0.00    +0.028 A 
ATOM     35  C   UNL     1       5.369   7.077  -2.906  0.00  0.00    +0.044 C 
ATOM     36  C   UNL     1       5.931   2.271  -4.179  0.00  0.00    +0.044 C 
ENDBRANCH  27  29
ENDBRANCH  24  27
ENDBRANCH   9  24
TORSDOF 6
