REMARK  Name = ZINC18077245
REMARK  12 active torsions:
REMARK  status: ('A' for Active; 'I' for Inactive)
REMARK    1  A    between atoms: C_1  and  C_2
REMARK    2  A    between atoms: C_4  and  C_39
REMARK    3  A    between atoms: N_10  and  C_11
REMARK    4  A    between atoms: C_11  and  C_13
REMARK    5  A    between atoms: C_14  and  C_15
REMARK    6  A    between atoms: C_18  and  O_23
REMARK    7  A    between atoms: C_19  and  O_21
REMARK    8  A    between atoms: O_21  and  C_22
REMARK    9  A    between atoms: O_23  and  C_24
REMARK   10  A    between atoms: N_25  and  C_26
REMARK   11  A    between atoms: C_26  and  C_27
REMARK   12  A    between atoms: C_27  and  C_28
REMARK                            x       y       z     vdW  Elec       q    Type
REMARK                         _______ _______ _______ _____ _____    ______ ____
ROOT
ATOM      1  C   UNL     1      -6.446  -2.936  -3.210  0.00  0.00    +0.066 C 
ATOM      2  C   UNL     1      -7.726  -3.652  -2.865  0.00  0.00    +0.044 A 
ATOM      3  C   UNL     1      -8.179  -4.700  -3.653  0.00  0.00    +0.046 A 
ATOM      4  C   UNL     1      -9.361  -5.331  -3.300  0.00  0.00    +0.044 A 
ATOM      5  N   UNL     1     -10.018  -4.918  -2.229  0.00  0.00    -0.217 NA
ATOM      6  C   UNL     1      -9.558  -3.915  -1.498  0.00  0.00    +0.231 A 
ATOM      7  N   UNL     1      -8.435  -3.286  -1.810  0.00  0.00    -0.217 NA
ATOM      8  N   UNL     1     -10.274  -3.507  -0.380  0.00  0.00    -0.297 N 
ATOM      9  C   UNL     1      -9.813  -2.472   0.388  0.00  0.00    +0.196 C 
ATOM     10  N   UNL     1      -8.688  -1.859   0.064  0.00  0.00    -0.143 NA
ATOM     11  N   UNL     1     -10.517  -2.072   1.486  0.00  0.00    -0.357 N 
ATOM     12  C   UNL     1      -9.891  -6.475  -4.126  0.00  0.00    +0.066 C 
ATOM     13  H   UNL     1     -11.100  -3.957  -0.142  0.00  0.00    +0.171 HD
ATOM     14  H   UNL     1     -10.149  -1.397   2.079  0.00  0.00    +0.162 HD
ENDROOT
BRANCH  10  15
ATOM     15  C   UNL     1      -8.347  -0.713   0.676  0.00  0.00    +0.263 C 
ATOM     16  O   UNL     1      -9.125  -0.179   1.448  0.00  0.00    -0.269 OA
BRANCH  15  17
ATOM     17  C   UNL     1      -7.038  -0.103   0.417  0.00  0.00    +0.070 C 
ATOM     18  C   UNL     1      -6.696   1.047   1.031  0.00  0.00    +0.013 C 
BRANCH  18  19
ATOM     19  C   UNL     1      -5.384   1.658   0.770  0.00  0.00    -0.021 A 
ATOM     20  C   UNL     1      -4.489   1.046  -0.114  0.00  0.00    +0.012 A 
ATOM     21  C   UNL     1      -3.262   1.623  -0.360  0.00  0.00    +0.050 A 
ATOM     22  C   UNL     1      -2.906   2.805   0.276  0.00  0.00    +0.162 A 
ATOM     23  C   UNL     1      -3.793   3.420   1.159  0.00  0.00    +0.162 A 
ATOM     24  C   UNL     1      -5.027   2.852   1.407  0.00  0.00    +0.057 A 
BRANCH  23  25
ATOM     25  O   UNL     1      -3.443   4.580   1.776  0.00  0.00    -0.491 OA
ATOM     26  C   UNL     1      -4.400   5.156   2.667  0.00  0.00    +0.277 C 
ENDBRANCH  23  25
BRANCH  22  27
ATOM     27  O   UNL     1      -1.693   3.366   0.034  0.00  0.00    -0.491 OA
ATOM     28  C   UNL     1      -0.834   2.683  -0.881  0.00  0.00    +0.277 C 
ENDBRANCH  22  27
ENDBRANCH  18  19
ENDBRANCH  15  17
ENDBRANCH  10  15
BRANCH  11  29
ATOM     29  C   UNL     1     -11.828  -2.660   1.772  0.00  0.00    +0.120 C 
BRANCH  29  30
ATOM     30  C   UNL     1     -12.397  -2.042   3.050  0.00  0.00    +0.058 C 
BRANCH  30  31
ATOM     31  C   UNL     1     -13.745  -2.648   3.343  0.00  0.00    -0.021 A 
ATOM     32  C   UNL     1     -14.940  -2.145   2.992  0.00  0.00    +0.087 A 
ATOM     33  N   UNL     1     -15.940  -2.970   3.430  0.00  0.00    -0.360 N 
ATOM     34  H   UNL     1     -16.888  -2.817   3.295  0.00  0.00    +0.165 HD
ATOM     35  C   UNL     1     -15.399  -4.052   4.090  0.00  0.00    +0.047 A 
ATOM     36  C   UNL     1     -14.001  -3.900   4.060  0.00  0.00    +0.006 A 
ATOM     37  C   UNL     1     -13.182  -4.855   4.665  0.00  0.00    +0.048 A 
ATOM     38  C   UNL     1     -13.751  -5.949   5.281  0.00  0.00    +0.124 A 
ATOM     39  C   UNL     1     -15.133  -6.101   5.306  0.00  0.00    +0.040 A 
ATOM     40  C   UNL     1     -15.953  -5.163   4.717  0.00  0.00    +0.029 A 
ATOM     41  F   UNL     1     -12.962  -6.879   5.863  0.00  0.00    -0.205 F 
ENDBRANCH  30  31
ENDBRANCH  29  30
ENDBRANCH  11  29
TORSDOF 8
