REMARK  Name = ZINC38742530
REMARK  10 active torsions:
REMARK  status: ('A' for Active; 'I' for Inactive)
REMARK    1  A    between atoms: C_1  and  C_2
REMARK    2  A    between atoms: C_2  and  C_3
REMARK    3  A    between atoms: C_2  and  C_4
REMARK    4  A    between atoms: C_6  and  C_10
REMARK    5  A    between atoms: C_18  and  C_20
REMARK    6  A    between atoms: C_20  and  C_21
REMARK    7  A    between atoms: C_24  and  O_29
REMARK    8  A    between atoms: C_25  and  O_27
REMARK    9  A    between atoms: O_27  and  C_28
REMARK   10  A    between atoms: O_29  and  C_30
REMARK                            x       y       z     vdW  Elec       q    Type
REMARK                         _______ _______ _______ _____ _____    ______ ____
ROOT
ATOM      1  C   UNL     1       1.690  -2.982   3.249  0.00  0.00    +0.206 C 
ATOM      2  N   UNL     1       2.301  -3.443   1.980  0.00  0.00    -0.231 NA
ATOM      3  N   UNL     1       3.620  -3.999   2.328  0.00  0.00    -0.224 NA
ATOM      4  C   UNL     1       3.454  -4.380   3.745  0.00  0.00    +0.240 C 
ATOM      5  N   UNL     1       2.727  -3.185   4.287  0.00  0.00    -0.206 N 
ATOM      6  N   UNL     1       3.289  -2.667   5.433  0.00  0.00    -0.178 NA
ATOM      7  C   UNL     1       4.470  -2.985   5.849  0.00  0.00    +0.099 C 
ATOM      8  S   UNL     1       5.029  -4.253   4.668  0.00  0.00    -0.067 S 
ATOM      9  H   UNL     1       2.392  -2.681   1.324  0.00  0.00    +0.143 HD
ATOM     10  H   UNL     1       4.345  -3.305   2.223  0.00  0.00    +0.144 HD
ENDROOT
BRANCH   1  13
ATOM     11  C   UNL     1       0.731  -0.503   1.223  0.00  0.00    +0.064 C 
ATOM     12  C   UNL     1       0.194  -1.291   2.157  0.00  0.00    +0.030 C 
ATOM     13  C   UNL     1       1.322  -1.500   3.152  0.00  0.00    +0.190 C 
ATOM     14  N   UNL     1       2.427  -0.722   2.567  0.00  0.00    -0.177 NA
ATOM     15  N   UNL     1       2.019  -0.219   1.517  0.00  0.00    -0.158 NA
BRANCH  11  17
ATOM     16  C   UNL     1      -0.019   1.526   0.010  0.00  0.00    +0.014 C 
ATOM     17  C   UNL     1       0.002  -0.004   0.002  0.00  0.00    +0.033 C 
ATOM     18  C   UNL     1       0.718  -0.497  -1.257  0.00  0.00    +0.014 C 
ENDBRANCH  11  17
ENDBRANCH   1  13
BRANCH   7  19
ATOM     19  C   UNL     1       5.212  -2.441   7.043  0.00  0.00    +0.099 C 
BRANCH  19  20
ATOM     20  C   UNL     1       4.357  -1.415   7.740  0.00  0.00    -0.037 A 
ATOM     21  C   UNL     1       4.435  -0.085   7.369  0.00  0.00    +0.008 A 
ATOM     22  C   UNL     1       3.653   0.861   8.005  0.00  0.00    +0.049 A 
ATOM     23  C   UNL     1       2.788   0.477   9.018  0.00  0.00    +0.161 A 
ATOM     24  C   UNL     1       2.709  -0.862   9.391  0.00  0.00    +0.162 A 
ATOM     25  C   UNL     1       3.492  -1.805   8.745  0.00  0.00    +0.053 A 
BRANCH  24  26
ATOM     26  O   UNL     1       1.862  -1.243  10.384  0.00  0.00    -0.491 OA
ATOM     27  C   UNL     1       1.833  -2.633  10.713  0.00  0.00    +0.277 C 
ENDBRANCH  24  26
BRANCH  23  28
ATOM     28  O   UNL     1       2.019   1.406   9.645  0.00  0.00    -0.491 OA
ATOM     29  C   UNL     1       2.153   2.760   9.210  0.00  0.00    +0.277 C 
ENDBRANCH  23  28
ENDBRANCH  19  20
ENDBRANCH   7  19
TORSDOF 6
