REMARK  Name = ZINC08703975
REMARK  6 active torsions:
REMARK  status: ('A' for Active; 'I' for Inactive)
REMARK    1  A    between atoms: C_3  and  C_6
REMARK    2  A    between atoms: C_15  and  C_17
REMARK    3  A    between atoms: C_17  and  N_52
REMARK    4  A    between atoms: N_20  and  S_23
REMARK    5  A    between atoms: S_23  and  C_26
REMARK    6  A    between atoms: C_29  and  C_32
REMARK                            x       y       z     vdW  Elec       q    Type
REMARK                         _______ _______ _______ _____ _____    ______ ____
ROOT
ATOM      1  C   UNL     1       2.253  -2.109  -3.564  0.00  0.00    -0.061 C 
ATOM      2  C   UNL     1       2.368  -2.862  -2.234  0.00  0.00    +0.091 C 
ATOM      3  N   UNL     1       1.041  -2.896  -1.601  0.00  0.00    -0.180 NA
ATOM      4  C   UNL     1      -0.099  -3.372  -2.400  0.00  0.00    +0.091 C 
ATOM      5  C   UNL     1      -0.117  -2.594  -3.725  0.00  0.00    -0.061 C 
ATOM      6  N   UNL     1       1.199  -2.748  -4.382  0.00  0.00    +0.386 N 
ATOM      7  H   UNL     1       1.410  -3.748  -4.474  0.00  0.00    -0.081 HD
ENDROOT
BRANCH   3   8
ATOM      8  S   UNL     1       0.836  -2.417  -0.029  0.00  0.00    +0.061 S 
ATOM      9  O   UNL     1       2.098  -2.567   0.608  0.00  0.00    -0.153 OA
ATOM     10  O   UNL     1      -0.337  -3.064   0.443  0.00  0.00    -0.153 OA
BRANCH   8  11
ATOM     11  C   UNL     1       0.485  -0.691  -0.051  0.00  0.00    +0.106 A 
ATOM     12  C   UNL     1      -0.825  -0.256  -0.139  0.00  0.00    +0.030 A 
ATOM     13  C   UNL     1      -1.108   1.094  -0.156  0.00  0.00    +0.021 A 
ATOM     14  C   UNL     1      -0.067   2.023  -0.085  0.00  0.00    +0.052 A 
ATOM     15  C   UNL     1       1.253   1.577   0.004  0.00  0.00    +0.021 A 
ATOM     16  C   UNL     1       1.521   0.224   0.020  0.00  0.00    +0.030 A 
BRANCH  14  17
ATOM     17  C   UNL     1      -0.353   3.426  -0.102  0.00  0.00    +0.099 C 
ATOM     18  N   UNL     1      -0.579   4.539  -0.116  0.00  0.00    -0.191 NA
ENDBRANCH  14  17
ENDBRANCH   8  11
ENDBRANCH   3   8
BRANCH   6  19
ATOM     19  C   UNL     1       1.166  -2.138  -5.727  0.00  0.00    -0.003 C 
BRANCH  19  29
ATOM     20  C   UNL     1       5.988  -3.693  -8.340  0.00  0.00    +0.010 A 
ATOM     21  C   UNL     1       6.722  -4.560  -7.599  0.00  0.00    +0.057 A 
ATOM     22  S   UNL     1       5.747  -4.770  -6.122  0.00  0.00    -0.076 S 
ATOM     23  C   UNL     1       4.390  -3.702  -6.528  0.00  0.00    +0.116 A 
ATOM     24  C   UNL     1       4.723  -3.206  -7.799  0.00  0.00    +0.080 A 
ATOM     25  C   UNL     1       3.780  -2.299  -8.378  0.00  0.00    +0.260 A 
ATOM     26  O   UNL     1       3.982  -1.816  -9.479  0.00  0.00    -0.267 OA
ATOM     27  N   UNL     1       2.665  -1.991  -7.691  0.00  0.00    -0.312 N 
ATOM     28  H   UNL     1       2.020  -1.380  -8.080  0.00  0.00    +0.170 HD
ATOM     29  C   UNL     1       2.426  -2.516  -6.462  0.00  0.00    +0.094 A 
ATOM     30  N   UNL     1       3.268  -3.347  -5.907  0.00  0.00    -0.229 NA
BRANCH  20  33
ATOM     31  C   UNL     1       7.894  -2.402 -11.346  0.00  0.00    +0.008 A 
ATOM     32  C   UNL     1       7.681  -2.748 -10.028  0.00  0.00    +0.016 A 
ATOM     33  C   UNL     1       6.459  -3.251  -9.669  0.00  0.00    +0.021 A 
ATOM     34  S   UNL     1       5.580  -3.225 -11.223  0.00  0.00    -0.097 S 
ATOM     35  C   UNL     1       6.887  -2.560 -12.242  0.00  0.00    +0.046 A 
ENDBRANCH  20  33
ENDBRANCH  19  29
ENDBRANCH   6  19
TORSDOF 6
