REMARK  Name = ZINC06245389
REMARK  9 active torsions:
REMARK  status: ('A' for Active; 'I' for Inactive)
REMARK    1  A    between atoms: C_1  and  C_2
REMARK    2  A    between atoms: C_5  and  N_8
REMARK    3  A    between atoms: N_8  and  C_9
REMARK    4  A    between atoms: C_9  and  C_10
REMARK    5  A    between atoms: C_13  and  S_22
REMARK    6  A    between atoms: N_14  and  C_15
REMARK    7  A    between atoms: S_22  and  C_23
REMARK    8  A    between atoms: C_23  and  C_24
REMARK    9  A    between atoms: N_26  and  C_27
REMARK                            x       y       z     vdW  Elec       q    Type
REMARK                         _______ _______ _______ _____ _____    ______ ____
ROOT
ATOM      1  C   UNL     1       0.970   3.625   0.011  0.00  0.00    +0.156 A 
ATOM      2  N   UNL     1       0.819   4.390  -1.032  0.00  0.00    -0.132 NA
ATOM      3  N   UNL     1       0.568   5.596  -0.665  0.00  0.00    -0.122 NA
ATOM      4  C   UNL     1       0.555   5.670   0.646  0.00  0.00    +0.197 A 
ATOM      5  N   UNL     1       0.812   4.413   1.121  0.00  0.00    -0.273 N 
ENDROOT
BRANCH   5   6
ATOM      6  C   UNL     1       0.895   4.014   2.463  0.00  0.00    +0.050 A 
ATOM      7  C   UNL     1      -0.037   3.127   2.984  0.00  0.00    +0.028 A 
ATOM      8  C   UNL     1       0.050   2.733   4.305  0.00  0.00    +0.022 A 
ATOM      9  C   UNL     1       1.060   3.229   5.111  0.00  0.00    +0.041 A 
ATOM     10  C   UNL     1       1.987   4.116   4.595  0.00  0.00    +0.022 A 
ATOM     11  C   UNL     1       1.907   4.510   3.273  0.00  0.00    +0.028 A 
ATOM     12 CL   UNL     1       1.163   2.736   6.772  0.00  0.00    -0.084 Cl
ENDBRANCH   5   6
BRANCH   1  13
ATOM     13  C   UNL     1       1.271   2.148   0.001  0.00  0.00    +0.178 C 
BRANCH  13  14
ATOM     14  N   UNL     1       0.014   1.394  -0.001  0.00  0.00    -0.337 N 
ATOM     15  H   UNL     1      -0.834   1.865   0.001  0.00  0.00    +0.147 HD
BRANCH  14  20
ATOM     16  C   UNL     1       0.110  -4.276  -0.041  0.00  0.00    +0.044 C 
ATOM     17  C   UNL     1       0.085  -2.769  -0.030  0.00  0.00    -0.050 A 
ATOM     18  C   UNL     1      -1.125  -2.099  -0.022  0.00  0.00    +0.005 A 
ATOM     19  C   UNL     1      -1.152  -0.719  -0.012  0.00  0.00    +0.023 A 
ATOM     20  C   UNL     1       0.038  -0.002  -0.010  0.00  0.00    +0.027 A 
ATOM     21  C   UNL     1       1.252  -0.678  -0.024  0.00  0.00    +0.023 A 
ATOM     22  C   UNL     1       1.271  -2.059  -0.029  0.00  0.00    +0.005 A 
ENDBRANCH  14  20
ENDBRANCH  13  14
ENDBRANCH   1  13
BRANCH   4  23
ATOM     23  S   UNL     1       0.264   7.115   1.611  0.00  0.00    -0.076 S 
BRANCH  23  24
ATOM     24  C   UNL     1       0.014   8.329   0.292  0.00  0.00    +0.173 C 
BRANCH  24  25
ATOM     25  C   UNL     1      -0.260   9.681   0.898  0.00  0.00    +0.227 C 
ATOM     26  O   UNL     1      -0.284   9.811   2.104  0.00  0.00    -0.275 OA
ATOM     27  N   UNL     1      -0.477  10.746   0.101  0.00  0.00    -0.285 N 
ATOM     28  H   UNL     1      -0.392  10.657  -0.861  0.00  0.00    +0.155 HD
BRANCH  27  29
ATOM     29  C   UNL     1      -0.827  11.979   0.661  0.00  0.00    +0.035 A 
ATOM     30  C   UNL     1      -1.707  12.822  -0.005  0.00  0.00    +0.023 A 
ATOM     31  C   UNL     1      -2.054  14.037   0.552  0.00  0.00    +0.003 A 
ATOM     32  C   UNL     1      -1.518  14.420   1.768  0.00  0.00    +0.020 A 
ATOM     33  C   UNL     1      -0.638  13.585   2.433  0.00  0.00    +0.043 A 
ATOM     34  C   UNL     1      -0.290  12.366   1.882  0.00  0.00    +0.043 A 
ATOM     35 CL   UNL     1       0.032  14.070   3.960  0.00  0.00    -0.083 Cl
ENDBRANCH  27  29
ENDBRANCH  24  25
ENDBRANCH  23  24
ENDBRANCH   4  23
TORSDOF 8
