REMARK  Name = ZINC09635205
REMARK  8 active torsions:
REMARK  status: ('A' for Active; 'I' for Inactive)
REMARK    1  A    between atoms: C_1  and  C_2
REMARK    2  A    between atoms: C_2  and  C_4
REMARK    3  A    between atoms: C_2  and  O_20
REMARK    4  A    between atoms: C_9  and  C_12
REMARK    5  A    between atoms: O_20  and  C_21
REMARK    6  A    between atoms: C_21  and  C_23
REMARK    7  A    between atoms: C_24  and  C_25
REMARK    8  A    between atoms: C_28  and  N_31
REMARK                            x       y       z     vdW  Elec       q    Type
REMARK                         _______ _______ _______ _____ _____    ______ ____
ROOT
ATOM      1  C   UNL     1       0.731  -0.503   1.223  0.00  0.00    +0.259 C 
ATOM      2  O   UNL     1       1.774  -1.109   1.101  0.00  0.00    -0.271 OA
ATOM      3  N   UNL     1       0.223  -0.277   2.451  0.00  0.00    -0.262 N 
ATOM      4  C   UNL     1       0.895  -0.737   3.576  0.00  0.00    +0.165 A 
ATOM      5  N   UNL     1       0.566  -0.624   4.850  0.00  0.00    -0.225 NA
ATOM      6  C   UNL     1       1.332  -1.129   5.805  0.00  0.00    +0.080 A 
ATOM      7  C   UNL     1       2.486  -1.780   5.466  0.00  0.00    +0.076 A 
ATOM      8  S   UNL     1       2.431  -1.646   3.684  0.00  0.00    -0.060 S 
ATOM      9  H   UNL     1      -0.611   0.208   2.548  0.00  0.00    +0.157 HD
ENDROOT
BRANCH   6  10
ATOM     10  C   UNL     1       0.942  -0.989   7.229  0.00  0.00    +0.004 A 
ATOM     11  C   UNL     1       1.755  -1.517   8.232  0.00  0.00    +0.013 A 
ATOM     12  C   UNL     1       1.389  -1.385   9.556  0.00  0.00    +0.042 A 
ATOM     13  C   UNL     1       0.216  -0.729   9.891  0.00  0.00    +0.158 A 
ATOM     14  C   UNL     1      -0.597  -0.202   8.898  0.00  0.00    +0.159 A 
ATOM     15  C   UNL     1      -0.235  -0.325   7.570  0.00  0.00    +0.051 A 
ATOM     16  F   UNL     1      -1.740   0.436   9.229  0.00  0.00    -0.202 F 
ATOM     17  F   UNL     1      -0.138  -0.603  11.188  0.00  0.00    -0.202 F 
ENDBRANCH   6  10
BRANCH   1  19
ATOM     18  C   UNL     1      -0.019   1.526   0.010  0.00  0.00    +0.062 C 
ATOM     19  C   UNL     1       0.002  -0.004   0.002  0.00  0.00    +0.259 C 
BRANCH  19  20
ATOM     20  O   UNL     1       0.671  -0.465  -1.174  0.00  0.00    -0.449 OA
BRANCH  20  21
ATOM     21  C   UNL     1      -0.089  -0.673  -2.269  0.00  0.00    +0.333 C 
ATOM     22  O   UNL     1      -1.287  -0.469  -2.225  0.00  0.00    -0.246 OA
BRANCH  21  23
ATOM     23  C   UNL     1       0.528  -1.145  -3.508  0.00  0.00    +0.092 C 
ATOM     24  C   UNL     1      -0.232  -1.353  -4.603  0.00  0.00    +0.015 C 
BRANCH  24  25
ATOM     25  C   UNL     1       0.389  -1.828  -5.850  0.00  0.00    -0.025 A 
ATOM     26  C   UNL     1       1.765  -2.070  -5.902  0.00  0.00    +0.010 A 
ATOM     27  C   UNL     1       2.340  -2.515  -7.074  0.00  0.00    +0.033 A 
ATOM     28  C   UNL     1       1.557  -2.723  -8.197  0.00  0.00    +0.126 A 
ATOM     29  C   UNL     1       0.194  -2.485  -8.153  0.00  0.00    +0.033 A 
ATOM     30  C   UNL     1      -0.396  -2.046  -6.987  0.00  0.00    +0.010 A 
BRANCH  28  31
ATOM     31  N   UNL     1       2.182  -3.200  -9.451  0.00  0.00    +0.056 N 
ATOM     32  O   UNL     1       3.372  -3.408  -9.493  0.00  0.00    -0.126 OA
ATOM     33  O   UNL     1       1.501  -3.383 -10.434  0.00  0.00    -0.126 OA
ENDBRANCH  28  31
ENDBRANCH  24  25
ENDBRANCH  21  23
ENDBRANCH  20  21
ENDBRANCH  19  20
ENDBRANCH   1  19
TORSDOF 7
