REMARK  Name = ZINC33378559
REMARK  6 active torsions:
REMARK  status: ('A' for Active; 'I' for Inactive)
REMARK    1  A    between atoms: C_6  and  C_7
REMARK    2  A    between atoms: C_10  and  C_12
REMARK    3  A    between atoms: N_13  and  N_14
REMARK    4  A    between atoms: C_19  and  C_22
REMARK    5  A    between atoms: C_22  and  C_23
REMARK    6  A    between atoms: N_25  and  C_26
REMARK                            x       y       z     vdW  Elec       q    Type
REMARK                         _______ _______ _______ _____ _____    ______ ____
ROOT
ATOM      1  N   UNL     1      -6.600   0.312   0.061  0.00  0.00    -0.127 NA
ATOM      2  C   UNL     1      -7.124   1.520   0.062  0.00  0.00    +0.183 C 
ATOM      3  N   UNL     1      -8.458   1.869   0.070  0.00  0.00    -0.263 N 
ATOM      4  C   UNL     1      -8.862   3.128   0.070  0.00  0.00    +0.233 C 
ATOM      5  O   UNL     1     -10.037   3.428   0.077  0.00  0.00    -0.274 OA
ATOM      6  C   UNL     1      -7.761   4.177   0.060  0.00  0.00    +0.149 C 
ATOM      7  S   UNL     1      -6.274   3.092   0.060  0.00  0.00    -0.075 S 
ATOM      8  H   UNL     1      -9.125   1.165   0.076  0.00  0.00    +0.157 HD
ENDROOT
BRANCH   1  10
ATOM      9  C   UNL     1      -4.797  -1.036   0.059  0.00  0.00    +0.181 C 
ATOM     10  N   UNL     1      -5.318   0.165   0.059  0.00  0.00    -0.152 NA
BRANCH   9  14
ATOM     11  C   UNL     1      -1.239  -0.733   0.052  0.00  0.00    +0.136 A 
ATOM     12  C   UNL     1      -1.344  -2.093   0.053  0.00  0.00    +0.050 A 
ATOM     13  C   UNL     1      -2.711  -2.400   0.056  0.00  0.00    +0.051 A 
ATOM     14  C   UNL     1      -3.389  -1.198   0.057  0.00  0.00    +0.148 A 
ATOM     15  O   UNL     1      -2.477  -0.203   0.060  0.00  0.00    -0.454 OA
BRANCH  11  21
ATOM     16  C   UNL     1      -0.002   1.428   0.055  0.00  0.00    +0.013 A 
ATOM     17  C   UNL     1       1.181   2.136   0.053  0.00  0.00    +0.021 A 
ATOM     18  C   UNL     1       2.393   1.466   0.045  0.00  0.00    +0.041 A 
ATOM     19  C   UNL     1       2.426   0.081   0.040  0.00  0.00    +0.021 A 
ATOM     20  C   UNL     1       1.250  -0.639   0.041  0.00  0.00    +0.013 A 
ATOM     21  C   UNL     1       0.024   0.031   0.050  0.00  0.00    +0.017 A 
ATOM     22 CL   UNL     1       3.878   2.365   0.043  0.00  0.00    -0.084 Cl
ENDBRANCH  11  21
ENDBRANCH   9  14
ENDBRANCH   1  10
BRANCH   6  23
ATOM     23  C   UNL     1      -7.826   5.038  -1.203  0.00  0.00    +0.120 C 
BRANCH  23  24
ATOM     24  C   UNL     1      -6.800   6.137  -1.116  0.00  0.00    +0.219 C 
ATOM     25  O   UNL     1      -6.086   6.224  -0.139  0.00  0.00    -0.275 OA
ATOM     26  N   UNL     1      -6.675   7.024  -2.123  0.00  0.00    -0.285 N 
ATOM     27  H   UNL     1      -7.198   6.916  -2.932  0.00  0.00    +0.155 HD
BRANCH  26  28
ATOM     28  C   UNL     1      -5.790   8.102  -2.000  0.00  0.00    +0.033 A 
ATOM     29  C   UNL     1      -6.111   9.333  -2.557  0.00  0.00    +0.025 A 
ATOM     30  C   UNL     1      -5.236  10.394  -2.435  0.00  0.00    +0.022 A 
ATOM     31  C   UNL     1      -4.040  10.232  -1.758  0.00  0.00    +0.041 A 
ATOM     32  C   UNL     1      -3.717   9.007  -1.202  0.00  0.00    +0.022 A 
ATOM     33  C   UNL     1      -4.591   7.944  -1.316  0.00  0.00    +0.025 A 
ATOM     34 CL   UNL     1      -2.942  11.569  -1.606  0.00  0.00    -0.084 Cl
ENDBRANCH  26  28
ENDBRANCH  23  24
ENDBRANCH   6  23
TORSDOF 6
