REMARK  Name = ZINC63428348
REMARK  5 active torsions:
REMARK  status: ('A' for Active; 'I' for Inactive)
REMARK    1  A    between atoms: C_6  and  C_10
REMARK    2  A    between atoms: C_12  and  N_17
REMARK    3  A    between atoms: C_18  and  C_20
REMARK    4  A    between atoms: C_20  and  S_21
REMARK    5  A    between atoms: S_21  and  C_22
REMARK                            x       y       z     vdW  Elec       q    Type
REMARK                         _______ _______ _______ _____ _____    ______ ____
ROOT
ATOM      1  C   UNL     1       3.526  -2.766  -1.290  0.00  0.00    +0.015 A 
ATOM      2  C   UNL     1       2.751  -3.769  -1.839  0.00  0.00    +0.032 A 
ATOM      3  C   UNL     1       3.187  -4.437  -2.976  0.00  0.00    +0.034 A 
ATOM      4  C   UNL     1       4.401  -4.095  -3.558  0.00  0.00    +0.025 A 
ATOM      5  C   UNL     1       5.171  -3.092  -3.004  0.00  0.00    +0.022 A 
ATOM      6  C   UNL     1       4.732  -2.423  -1.875  0.00  0.00    +0.048 A 
ATOM      7 CL   UNL     1       5.700  -1.157  -1.186  0.00  0.00    -0.083 Cl
ENDROOT
BRANCH   1  13
ATOM      8  C   UNL     1      -1.352  -1.605   1.181  0.00  0.00    +0.002 A 
ATOM      9  C   UNL     1      -1.192  -0.375   0.518  0.00  0.00    +0.002 A 
ATOM     10  C   UNL     1      -0.028  -0.002  -0.050  0.00  0.00    +0.027 A 
ATOM     11  C   UNL     1       1.132  -0.902   0.013  0.00  0.00    +0.060 A 
ATOM     12  N   UNL     1       2.350  -0.808  -0.435  0.00  0.00    -0.360 N 
ATOM     13  C   UNL     1       3.054  -2.040  -0.057  0.00  0.00    +0.207 C 
ATOM     14  N   UNL     1       2.083  -2.865   0.673  0.00  0.00    -0.360 N 
ATOM     15  C   UNL     1       0.962  -2.204   0.715  0.00  0.00    +0.060 A 
ATOM     16  C   UNL     1      -0.353  -2.503   1.296  0.00  0.00    +0.027 A 
ATOM     17  H   UNL     1       2.724  -0.062  -0.929  0.00  0.00    +0.162 HD
ATOM     18  H   UNL     1       2.246  -3.742   1.053  0.00  0.00    +0.162 HD
ENDBRANCH   1  13
BRANCH   3  19
ATOM     19  N   UNL     1       2.404  -5.454  -3.534  0.00  0.00    -0.285 N 
ATOM     20  C   UNL     1       1.059  -5.371  -3.489  0.00  0.00    +0.227 C 
ATOM     21  O   UNL     1       0.528  -4.375  -3.048  0.00  0.00    -0.275 OA
ATOM     22  H   UNL     1       2.829  -6.219  -3.954  0.00  0.00    +0.155 HD
BRANCH  20  23
ATOM     23  C   UNL     1       0.217  -6.517  -3.987  0.00  0.00    +0.170 C 
BRANCH  23  24
ATOM     24  S   UNL     1      -1.539  -6.105  -3.795  0.00  0.00    -0.116 S 
BRANCH  24  25
ATOM     25  C   UNL     1      -2.381  -7.524  -4.413  0.00  0.00    +0.008 A 
ATOM     26  C   UNL     1      -1.657  -8.611  -4.889  0.00  0.00    +0.016 A 
ATOM     27  C   UNL     1      -2.319  -9.722  -5.372  0.00  0.00    +0.021 A 
ATOM     28  C   UNL     1      -3.703  -9.754  -5.384  0.00  0.00    +0.041 A 
ATOM     29  C   UNL     1      -4.426  -8.673  -4.911  0.00  0.00    +0.021 A 
ATOM     30  C   UNL     1      -3.770  -7.562  -4.420  0.00  0.00    +0.016 A 
ATOM     31 CL   UNL     1      -4.532 -11.152  -5.994  0.00  0.00    -0.084 Cl
ENDBRANCH  24  25
ENDBRANCH  23  24
ENDBRANCH  20  23
ENDBRANCH   3  19
TORSDOF 5
