REMARK  Name = ZINC20701062
REMARK  7 active torsions:
REMARK  status: ('A' for Active; 'I' for Inactive)
REMARK    1  A    between atoms: C_4  and  C_7
REMARK    2  A    between atoms: C_7  and  C_8
REMARK    3  A    between atoms: C_8  and  N_9
REMARK    4  A    between atoms: N_9  and  S_10
REMARK    5  A    between atoms: S_10  and  C_13
REMARK    6  A    between atoms: C_26  and  C_29
REMARK    7  A    between atoms: C_34  and  O_35
REMARK                            x       y       z     vdW  Elec       q    Type
REMARK                         _______ _______ _______ _____ _____    ______ ____
ROOT
ATOM      1  C   UNL     1      -1.320   1.970   0.333  0.00  0.00    +0.106 A 
ATOM      2  C   UNL     1       0.063   1.991   0.349  0.00  0.00    +0.030 A 
ATOM      3  C   UNL     1       0.766   0.806   0.264  0.00  0.00    +0.025 A 
ATOM      4  C   UNL     1       0.085  -0.401   0.163  0.00  0.00    +0.031 A 
ATOM      5  C   UNL     1      -1.301  -0.427   0.147  0.00  0.00    -0.018 A 
ATOM      6  C   UNL     1      -1.997   0.771   0.233  0.00  0.00    +0.034 A 
ATOM      7  C   UNL     1      -2.076  -1.702   0.042  0.00  0.00    +0.049 C 
ATOM      8  C   UNL     1      -2.661  -1.880  -1.339  0.00  0.00    -0.023 C 
ATOM      9  C   UNL     1      -2.635  -3.144  -1.683  0.00  0.00    -0.030 C 
ATOM     10  C   UNL     1      -2.034  -3.985  -0.574  0.00  0.00    +0.033 C 
ATOM     11  C   UNL     1      -1.204  -2.955   0.249  0.00  0.00    +0.029 C 
ATOM     12  C   UNL     1       0.140  -2.780  -0.462  0.00  0.00    +0.109 C 
ATOM     13  N   UNL     1       0.812  -1.593   0.076  0.00  0.00    -0.336 N 
ATOM     14  H   UNL     1       1.862  -1.654   0.398  0.00  0.00    +0.147 HD
ENDROOT
BRANCH  12  15
ATOM     15  C   UNL     1      -0.091  -2.603  -1.941  0.00  0.00    +0.017 A 
ATOM     16  C   UNL     1      -0.377  -1.351  -2.450  0.00  0.00    +0.029 A 
ATOM     17  C   UNL     1      -0.590  -1.187  -3.808  0.00  0.00    +0.043 A 
ATOM     18  C   UNL     1      -0.516  -2.276  -4.658  0.00  0.00    +0.043 A 
ATOM     19  C   UNL     1      -0.229  -3.530  -4.153  0.00  0.00    +0.084 A 
ATOM     20  C   UNL     1      -0.010  -3.695  -2.791  0.00  0.00    +0.140 A 
ATOM     21 CL   UNL     1      -0.136  -4.896  -5.219  0.00  0.00    -0.080 Cl
ATOM     22 CL   UNL     1      -0.949   0.387  -4.445  0.00  0.00    -0.083 Cl
BRANCH  20  23
ATOM     23  O   UNL     1       0.278  -4.927  -2.293  0.00  0.00    -0.505 OA
ATOM     24  H   UNL     1       0.341  -5.793  -2.968  0.00  0.00    +0.292 HD
ENDBRANCH  20  23
ENDBRANCH  12  15
BRANCH   1  25
ATOM     25  S   UNL     1      -2.222   3.479   0.440  0.00  0.00    +0.058 S 
ATOM     26  O   UNL     1      -1.354   4.505  -0.023  0.00  0.00    -0.153 OA
ATOM     27  O   UNL     1      -3.494   3.236  -0.144  0.00  0.00    -0.153 OA
BRANCH  25  28
ATOM     28  N   UNL     1      -2.489   3.777   2.047  0.00  0.00    -0.190 NA
ATOM     29  H   UNL     1      -3.493   3.611   2.465  0.00  0.00    +0.148 HD
BRANCH  28  30
ATOM     30  C   UNL     1      -1.359   4.043   2.941  0.00  0.00    +0.110 C 
BRANCH  30  31
ATOM     31  C   UNL     1      -1.875   4.643   4.250  0.00  0.00    +0.052 C 
BRANCH  31  35
ATOM     32  C   UNL     1       1.419   5.420   6.857  0.00  0.00    +0.000 A 
ATOM     33  C   UNL     1       0.993   6.393   5.972  0.00  0.00    +0.000 A 
ATOM     34  C   UNL     1      -0.073   6.142   5.129  0.00  0.00    +0.003 A 
ATOM     35  C   UNL     1      -0.713   4.917   5.170  0.00  0.00    -0.046 A 
ATOM     36  C   UNL     1      -0.290   3.945   6.057  0.00  0.00    +0.003 A 
ATOM     37  C   UNL     1       0.779   4.195   6.897  0.00  0.00    +0.000 A 
ENDBRANCH  31  35
ENDBRANCH  30  31
ENDBRANCH  28  30
ENDBRANCH  25  28
ENDBRANCH   1  25
TORSDOF 7
