REMARK  Name = ZINC28681992
REMARK  7 active torsions:
REMARK  status: ('A' for Active; 'I' for Inactive)
REMARK    1  A    between atoms: C_1  and  C_2
REMARK    2  A    between atoms: C_2  and  N_3
REMARK    3  A    between atoms: C_7  and  C_9
REMARK    4  A    between atoms: C_9  and  S_10
REMARK    5  A    between atoms: S_10  and  C_11
REMARK    6  A    between atoms: C_15  and  C_18
REMARK    7  A    between atoms: N_26  and  C_27
REMARK                            x       y       z     vdW  Elec       q    Type
REMARK                         _______ _______ _______ _____ _____    ______ ____
ROOT
ATOM      1  C   UNL     1       4.769   1.447   0.067  0.00  0.00    +0.178 A 
ATOM      2  N   UNL     1       5.918   2.092   0.063  0.00  0.00    -0.215 NA
ATOM      3  C   UNL     1       5.956   3.416  -0.028  0.00  0.00    +0.117 A 
ATOM      4  C   UNL     1       4.787   4.191  -0.123  0.00  0.00    +0.080 A 
ATOM      5  C   UNL     1       5.008   5.631  -0.216  0.00  0.00    +0.004 A 
ATOM      6  C   UNL     1       6.278   6.098  -0.203  0.00  0.00    +0.056 A 
ATOM      7  S   UNL     1       7.261   4.618  -0.065  0.00  0.00    -0.076 S 
ATOM      8  C   UNL     1       3.556   3.466  -0.121  0.00  0.00    +0.268 A 
ATOM      9  O   UNL     1       2.492   4.056  -0.205  0.00  0.00    -0.267 OA
ATOM     10  N   UNL     1       3.585   2.124  -0.021  0.00  0.00    -0.255 N 
ENDROOT
BRANCH   5  11
ATOM     11  C   UNL     1       3.862   6.566  -0.321  0.00  0.00    -0.017 A 
ATOM     12  C   UNL     1       2.865   6.346  -1.271  0.00  0.00    +0.008 A 
ATOM     13  C   UNL     1       1.798   7.217  -1.361  0.00  0.00    +0.001 A 
ATOM     14  C   UNL     1       1.721   8.311  -0.518  0.00  0.00    +0.000 A 
ATOM     15  C   UNL     1       2.710   8.536   0.423  0.00  0.00    +0.001 A 
ATOM     16  C   UNL     1       3.779   7.670   0.526  0.00  0.00    +0.008 A 
ENDBRANCH   5  11
BRANCH  10  17
ATOM     17  C   UNL     1       2.381   1.409  -0.014  0.00  0.00    +0.052 A 
ATOM     18  C   UNL     1       1.826   0.968  -1.208  0.00  0.00    +0.026 A 
ATOM     19  C   UNL     1       0.638   0.263  -1.197  0.00  0.00    +0.002 A 
ATOM     20  C   UNL     1       0.002  -0.004   0.002  0.00  0.00    +0.000 A 
ATOM     21  C   UNL     1       0.552   0.434   1.192  0.00  0.00    +0.002 A 
ATOM     22  C   UNL     1       1.739   1.139   1.188  0.00  0.00    +0.026 A 
ENDBRANCH  10  17
BRANCH   1  23
ATOM     23  S   UNL     1       4.758  -0.311   0.190  0.00  0.00    -0.078 S 
BRANCH  23  24
ATOM     24  C   UNL     1       6.538  -0.630   0.275  0.00  0.00    +0.173 C 
BRANCH  24  29
ATOM     25  N   UNL     1       9.508  -4.393   0.641  0.00  0.00    -0.299 N 
ATOM     26  C   UNL     1       8.249  -3.917   0.564  0.00  0.00    +0.306 C 
ATOM     27  O   UNL     1       7.307  -4.684   0.584  0.00  0.00    -0.252 OA
ATOM     28  N   UNL     1       8.036  -2.590   0.464  0.00  0.00    -0.240 N 
ATOM     29  C   UNL     1       6.777  -2.114   0.386  0.00  0.00    +0.231 C 
ATOM     30  O   UNL     1       5.837  -2.880   0.407  0.00  0.00    -0.274 OA
ATOM     31  H   UNL     1      10.361  -3.698   0.623  0.00  0.00    +0.150 HD
ATOM     32  H   UNL     1       8.888  -1.896   0.445  0.00  0.00    +0.159 HD
BRANCH  25  34
ATOM     33  C   UNL     1      11.244  -6.106   0.822  0.00  0.00    +0.024 C 
ATOM     34  C   UNL     1       9.740  -5.835   0.750  0.00  0.00    +0.102 C 
ENDBRANCH  25  34
ENDBRANCH  24  29
ENDBRANCH  23  24
ENDBRANCH   1  23
TORSDOF 6
