REMARK  Name = ZINC64868650
REMARK  6 active torsions:
REMARK  status: ('A' for Active; 'I' for Inactive)
REMARK    1  A    between atoms: C_1  and  C_2
REMARK    2  A    between atoms: C_2  and  C_3
REMARK    3  A    between atoms: C_8  and  N_9
REMARK    4  A    between atoms: C_10  and  C_12
REMARK    5  A    between atoms: C_12  and  N_13
REMARK    6  A    between atoms: C_21  and  C_25
REMARK                            x       y       z     vdW  Elec       q    Type
REMARK                         _______ _______ _______ _____ _____    ______ ____
ROOT
ATOM      1  N   UNL     1      -2.571  -0.013  -5.910  0.00  0.00    -0.257 N 
ATOM      2  C   UNL     1      -3.227   1.166  -6.299  0.00  0.00    +0.058 A 
ATOM      3  C   UNL     1      -2.808   2.255  -5.553  0.00  0.00    +0.025 A 
ATOM      4  C   UNL     1      -3.347   3.506  -5.796  0.00  0.00    +0.002 A 
ATOM      5  C   UNL     1      -4.302   3.673  -6.781  0.00  0.00    +0.002 A 
ATOM      6  C   UNL     1      -4.726   2.589  -7.530  0.00  0.00    +0.025 A 
ATOM      7  C   UNL     1      -4.191   1.334  -7.292  0.00  0.00    +0.053 A 
ATOM      8  N   UNL     1      -4.740   0.365  -8.146  0.00  0.00    -0.312 N 
ATOM      9  C   UNL     1      -4.452  -0.986  -8.200  0.00  0.00    +0.050 C 
ATOM     10  C   UNL     1      -3.559  -1.706  -7.433  0.00  0.00    +0.092 C 
ATOM     11  C   UNL     1      -2.713  -1.257  -6.407  0.00  0.00    +0.246 C 
ATOM     12  O   UNL     1      -2.014  -2.112  -5.891  0.00  0.00    -0.270 OA
ATOM     13  H   UNL     1      -5.405   0.683  -8.777  0.00  0.00    +0.152 HD
ENDROOT
BRANCH   9  14
ATOM     14  C   UNL     1      -5.191  -1.755  -9.203  0.00  0.00    +0.035 A 
ATOM     15  C   UNL     1      -5.126  -3.111  -9.490  0.00  0.00    +0.018 A 
ATOM     16  C   UNL     1      -5.951  -3.548 -10.498  0.00  0.00    +0.023 A 
ATOM     17  C   UNL     1      -6.753  -2.653 -11.129  0.00  0.00    +0.056 A 
ATOM     18  S   UNL     1      -6.417  -1.193 -10.370  0.00  0.00    -0.080 S 
ATOM     19 BR   UNL     1      -7.973  -2.977 -12.536  0.00  0.00    -0.043 Br
ENDBRANCH   9  14
BRANCH   1  20
ATOM     20  C   UNL     1      -1.599   0.130  -4.823  0.00  0.00    +0.210 C 
BRANCH  20  22
ATOM     21  N   UNL     1       0.762   0.820  -4.562  0.00  0.00    -0.284 N 
ATOM     22  C   UNL     1      -0.287   0.615  -5.383  0.00  0.00    +0.235 C 
ATOM     23  O   UNL     1      -0.174   0.822  -6.573  0.00  0.00    -0.274 OA
ATOM     24  H   UNL     1       0.690   0.601  -3.620  0.00  0.00    +0.155 HD
BRANCH  21  30
ATOM     25  C   UNL     1       2.739   2.178  -4.277  0.00  0.00    -0.026 A 
ATOM     26  C   UNL     1       3.919   2.693  -4.778  0.00  0.00    +0.005 A 
ATOM     27  C   UNL     1       4.315   2.390  -6.067  0.00  0.00    +0.000 A 
ATOM     28  C   UNL     1       3.533   1.570  -6.860  0.00  0.00    +0.002 A 
ATOM     29  C   UNL     1       2.353   1.050  -6.365  0.00  0.00    +0.023 A 
ATOM     30  C   UNL     1       1.954   1.349  -5.068  0.00  0.00    +0.037 A 
BRANCH  25  32
ATOM     31  C   UNL     1       2.775   1.404  -1.921  0.00  0.00    +0.009 C 
ATOM     32  C   UNL     1       2.308   2.508  -2.872  0.00  0.00    +0.033 C 
ENDBRANCH  25  32
ENDBRANCH  21  30
ENDBRANCH  20  22
ENDBRANCH   1  20
TORSDOF 5
