REMARK  Name = ZINC39634311
REMARK  7 active torsions:
REMARK  status: ('A' for Active; 'I' for Inactive)
REMARK    1  A    between atoms: C_1  and  C_2
REMARK    2  A    between atoms: C_5  and  C_8
REMARK    3  A    between atoms: C_8  and  N_9
REMARK    4  A    between atoms: C_10  and  C_12
REMARK    5  A    between atoms: C_23  and  C_25
REMARK    6  A    between atoms: C_26  and  C_38
REMARK    7  A    between atoms: C_29  and  C_30
REMARK                            x       y       z     vdW  Elec       q    Type
REMARK                         _______ _______ _______ _____ _____    ______ ____
ROOT
ATOM      1  C   UNL     1       2.791  -5.594  -0.201  0.00  0.00    +0.100 C 
ATOM      2  C   UNL     1       3.587  -5.501  -1.522  0.00  0.00    +0.121 C 
ATOM      3  N   UNL     1       4.266  -6.813  -1.643  0.00  0.00    -0.296 N 
ATOM      4  C   UNL     1       3.260  -7.794  -1.170  0.00  0.00    +0.115 C 
ATOM      5  C   UNL     1       2.578  -7.100   0.026  0.00  0.00    -0.004 C 
ATOM      6  C   UNL     1       3.235  -7.535   1.333  0.00  0.00    -0.010 C 
ATOM      7  C   UNL     1       2.961  -9.024   1.565  0.00  0.00    -0.082 C 
ATOM      8  N   UNL     1       1.512  -9.254   1.622  0.00  0.00    +0.379 N 
ATOM      9  C   UNL     1       0.901  -8.919   0.330  0.00  0.00    -0.082 C 
ATOM     10  C   UNL     1       1.088  -7.426   0.045  0.00  0.00    -0.010 C 
ATOM     11  C   UNL     1       5.516  -7.059  -2.085  0.00  0.00    +0.252 C 
ATOM     12  O   UNL     1       5.932  -8.201  -2.126  0.00  0.00    -0.270 OA
ATOM     13  H   UNL     1       1.335 -10.223   1.835  0.00  0.00    -0.086 HD
ATOM     14  H   UNL     1       1.109  -8.674   2.343  0.00  0.00    -0.086 HD
ENDROOT
BRANCH  11  15
ATOM     15  C   UNL     1       6.376  -5.945  -2.517  0.00  0.00    +0.106 A 
ATOM     16  C   UNL     1       7.237  -5.231  -1.736  0.00  0.00    +0.147 A 
ATOM     17  O   UNL     1       7.830  -4.310  -2.500  0.00  0.00    -0.359 OA
ATOM     18  N   UNL     1       7.350  -4.415  -3.825  0.00  0.00    -0.077 NA
ATOM     19  C   UNL     1       6.478  -5.391  -3.876  0.00  0.00    +0.130 A 
ATOM     20  C   UNL     1       7.477  -5.445  -0.264  0.00  0.00    +0.090 C 
BRANCH  19  21
ATOM     21  C   UNL     1       5.734  -5.848  -5.074  0.00  0.00    +0.058 A 
ATOM     22  C   UNL     1       5.726  -7.201  -5.421  0.00  0.00    +0.134 A 
ATOM     23  C   UNL     1       5.029  -7.620  -6.539  0.00  0.00    +0.039 A 
ATOM     24  C   UNL     1       4.342  -6.702  -7.313  0.00  0.00    +0.004 A 
ATOM     25  C   UNL     1       4.346  -5.362  -6.974  0.00  0.00    +0.021 A 
ATOM     26  C   UNL     1       5.034  -4.930  -5.856  0.00  0.00    +0.053 A 
ATOM     27 CL   UNL     1       5.031  -3.248  -5.429  0.00  0.00    -0.083 Cl
ATOM     28  F   UNL     1       6.398  -8.097  -4.667  0.00  0.00    -0.205 F 
ENDBRANCH  19  21
ENDBRANCH  11  15
BRANCH   1  30
ATOM     29  N   UNL     1       0.878  -4.346   0.746  0.00  0.00    -0.311 N 
ATOM     30  C   UNL     1       1.465  -4.891  -0.337  0.00  0.00    +0.218 C 
ATOM     31  O   UNL     1       0.927  -4.816  -1.421  0.00  0.00    -0.275 OA
ATOM     32  H   UNL     1       1.308  -4.406   1.613  0.00  0.00    +0.149 HD
BRANCH  29  33
ATOM     33  C   UNL     1      -0.411  -3.662   0.614  0.00  0.00    +0.139 C 
BRANCH  33  38
ATOM     34  C   UNL     1      -2.084  -1.684   5.779  0.00  0.00    +0.044 C 
ATOM     35  C   UNL     1      -1.648  -2.200   4.432  0.00  0.00    -0.050 A 
ATOM     36  C   UNL     1      -0.878  -1.405   3.604  0.00  0.00    +0.003 A 
ATOM     37  C   UNL     1      -0.478  -1.878   2.368  0.00  0.00    +0.005 A 
ATOM     38  C   UNL     1      -0.847  -3.147   1.962  0.00  0.00    -0.030 A 
ATOM     39  C   UNL     1      -1.616  -3.942   2.790  0.00  0.00    +0.005 A 
ATOM     40  C   UNL     1      -2.013  -3.470   4.028  0.00  0.00    +0.003 A 
ENDBRANCH  33  38
ENDBRANCH  29  33
ENDBRANCH   1  30
TORSDOF 5
