REMARK  Name = ZINC59392972
REMARK  8 active torsions:
REMARK  status: ('A' for Active; 'I' for Inactive)
REMARK    1  A    between atoms: C_1  and  C_2
REMARK    2  A    between atoms: C_2  and  N_3
REMARK    3  A    between atoms: N_3  and  C_4
REMARK    4  A    between atoms: N_3  and  S_6
REMARK    5  A    between atoms: C_4  and  C_5
REMARK    6  A    between atoms: S_6  and  C_9
REMARK    7  A    between atoms: C_12  and  N_18
REMARK    8  A    between atoms: C_13  and  N_15
REMARK                            x       y       z     vdW  Elec       q    Type
REMARK                         _______ _______ _______ _____ _____    ______ ____
ROOT
ATOM      1  C   UNL     1      -0.337   0.586  -3.526  0.00  0.00    +0.108 A 
ATOM      2  C   UNL     1      -1.406   1.440  -3.328  0.00  0.00    +0.030 A 
ATOM      3  C   UNL     1      -1.526   2.586  -4.089  0.00  0.00    +0.027 A 
ATOM      4  C   UNL     1      -0.572   2.880  -5.055  0.00  0.00    +0.061 A 
ATOM      5  C   UNL     1       0.501   2.019  -5.251  0.00  0.00    +0.149 A 
ATOM      6  C   UNL     1       0.618   0.877  -4.482  0.00  0.00    +0.063 A 
ENDROOT
BRANCH   4   7
ATOM      7  N   UNL     1      -0.691   4.037  -5.827  0.00  0.00    -0.323 N 
ATOM      8  C   UNL     1      -1.429   4.025  -7.099  0.00  0.00    +0.111 C 
ATOM      9  C   UNL     1      -2.652   4.941  -6.976  0.00  0.00    +0.072 C 
ATOM     10  C   UNL     1      -2.232   6.240  -6.330  0.00  0.00    +0.023 A 
ATOM     11  C   UNL     1      -1.092   6.400  -5.623  0.00  0.00    -0.002 A 
ATOM     12  C   UNL     1      -1.057   7.774  -5.169  0.00  0.00    +0.006 A 
ATOM     13  C   UNL     1      -0.136   8.499  -4.407  0.00  0.00    +0.030 A 
ATOM     14  C   UNL     1      -0.434   9.819  -4.164  0.00  0.00    +0.042 A 
ATOM     15  C   UNL     1      -1.589  10.413  -4.646  0.00  0.00    +0.022 A 
ATOM     16  C   UNL     1      -2.517   9.718  -5.402  0.00  0.00    +0.027 A 
ATOM     17  C   UNL     1      -2.241   8.378  -5.665  0.00  0.00    +0.047 A 
ATOM     18  N   UNL     1      -2.924   7.423  -6.361  0.00  0.00    -0.358 N 
ATOM     19  H   UNL     1      -3.773   7.560  -6.811  0.00  0.00    +0.166 HD
ATOM     20 CL   UNL     1       0.672  10.770  -3.224  0.00  0.00    -0.084 Cl
ATOM     21  C   UNL     1      -0.084   5.306  -5.388  0.00  0.00    +0.142 C 
ENDBRANCH   4   7
BRANCH   1  22
ATOM     22  S   UNL     1      -0.188  -0.875  -2.551  0.00  0.00    +0.061 S 
ATOM     23  O   UNL     1       0.610  -1.782  -3.300  0.00  0.00    -0.153 OA
ATOM     24  O   UNL     1      -1.496  -1.201  -2.104  0.00  0.00    -0.153 OA
BRANCH  22  25
ATOM     25  N   UNL     1       0.688  -0.476  -1.203  0.00  0.00    -0.177 NA
BRANCH  25  27
ATOM     26  C   UNL     1      -0.019   1.526   0.010  0.00  0.00    +0.022 C 
ATOM     27  C   UNL     1       0.002  -0.004   0.002  0.00  0.00    +0.106 C 
ENDBRANCH  25  27
BRANCH  25  28
ATOM     28  C   UNL     1       2.148  -0.597  -1.216  0.00  0.00    +0.106 C 
ATOM     29  C   UNL     1       2.553  -1.951  -0.632  0.00  0.00    +0.022 C 
ENDBRANCH  25  28
ENDBRANCH  22  25
ENDBRANCH   1  22
BRANCH   5  30
ATOM     30  N   UNL     1       1.520   2.328  -6.279  0.00  0.00    +0.058 N 
ATOM     31  O   UNL     1       2.453   1.578  -6.449  0.00  0.00    -0.126 OA
ATOM     32  O   UNL     1       1.419   3.329  -6.949  0.00  0.00    -0.126 OA
ENDBRANCH   5  30
TORSDOF 6
