REMARK  Name = ZINC61371071
REMARK  7 active torsions:
REMARK  status: ('A' for Active; 'I' for Inactive)
REMARK    1  A    between atoms: C_1  and  C_2
REMARK    2  A    between atoms: C_2  and  C_3
REMARK    3  A    between atoms: C_2  and  C_4
REMARK    4  A    between atoms: C_4  and  C_6
REMARK    5  A    between atoms: C_4  and  C_10
REMARK    6  A    between atoms: N_7  and  O_8
REMARK    7  A    between atoms: N_12  and  C_13
REMARK                            x       y       z     vdW  Elec       q    Type
REMARK                         _______ _______ _______ _____ _____    ______ ____
ROOT
ATOM      1  C   UNL     1      -2.506  -0.219  -1.068  0.00  0.00    +0.224 C 
ATOM      2  O   UNL     1      -3.047  -1.019  -1.802  0.00  0.00    -0.275 OA
ATOM      3  N   UNL     1      -2.834   1.087  -1.135  0.00  0.00    -0.308 N 
ATOM      4  H   UNL     1      -2.354   1.736  -0.597  0.00  0.00    +0.149 HD
ENDROOT
BRANCH   3   5
ATOM      5  C   UNL     1      -3.915   1.525  -2.021  0.00  0.00    +0.104 C 
ATOM      6  C   UNL     1      -4.501   2.839  -1.503  0.00  0.00    +0.027 C 
ATOM      7  C   UNL     1      -5.503   3.402  -2.515  0.00  0.00    +0.007 C 
ATOM      8  C   UNL     1      -4.734   3.893  -3.750  0.00  0.00    +0.043 C 
ATOM      9  C   UNL     1      -3.765   2.829  -4.154  0.00  0.00    -0.005 A 
ATOM     10  C   UNL     1      -3.366   1.749  -3.427  0.00  0.00    -0.017 A 
ATOM     11  C   UNL     1      -2.448   0.891  -4.033  0.00  0.00    +0.013 A 
ATOM     12  C   UNL     1      -2.001   1.150  -5.283  0.00  0.00    +0.046 A 
ATOM     13  S   UNL     1      -2.872   2.666  -5.677  0.00  0.00    -0.101 S 
ENDBRANCH   3   5
BRANCH   1  14
ATOM     14  C   UNL     1      -1.467  -0.685  -0.080  0.00  0.00    +0.144 C 
BRANCH  14  15
ATOM     15  C   UNL     1      -1.268  -2.172  -0.225  0.00  0.00    +0.144 C 
ATOM     16  N   UNL     1      -0.309  -2.626  -0.961  0.00  0.00    -0.076 NA
ATOM     17  N   UNL     1      -2.108  -3.046   0.428  0.00  0.00    -0.343 N 
ATOM     18  H   UNL     1      -2.828  -2.704   0.982  0.00  0.00    +0.144 HD
ATOM     19  H   UNL     1      -1.980  -4.003   0.335  0.00  0.00    +0.144 HD
BRANCH  16  20
ATOM     20  O   UNL     1      -0.122  -4.023  -1.097  0.00  0.00    -0.408 OA
ATOM     21  H   UNL     1       0.620  -4.267  -1.667  0.00  0.00    +0.328 HD
ENDBRANCH  16  20
ENDBRANCH  14  15
BRANCH  14  23
ATOM     22  C   UNL     1       0.947  -0.544   0.549  0.00  0.00    +0.008 C 
ATOM     23  C   UNL     1      -0.145   0.036  -0.352  0.00  0.00    +0.002 C 
ATOM     24  C   UNL     1       0.248  -0.156  -1.819  0.00  0.00    +0.008 C 
ENDBRANCH  14  23
ENDBRANCH   1  14
TORSDOF 5
