REMARK  Name = ZINC39664406
REMARK  11 active torsions:
REMARK  status: ('A' for Active; 'I' for Inactive)
REMARK    1  A    between atoms: C_1  and  C_2
REMARK    2  A    between atoms: C_2  and  C_3
REMARK    3  A    between atoms: C_3  and  C_4
REMARK    4  A    between atoms: C_4  and  C_5
REMARK    5  A    between atoms: C_5  and  C_6
REMARK    6  A    between atoms: C_6  and  C_7
REMARK    7  A    between atoms: C_11  and  C_20
REMARK    8  A    between atoms: N_22  and  C_23
REMARK    9  A    between atoms: C_23  and  C_24
REMARK   10  A    between atoms: C_24  and  C_26
REMARK   11  A    between atoms: C_24  and  N_32
REMARK                            x       y       z     vdW  Elec       q    Type
REMARK                         _______ _______ _______ _____ _____    ______ ____
ROOT
ATOM      1  C   UNL     1       2.060  -4.691  -2.967  0.00  0.00    +0.216 C 
ATOM      2  O   UNL     1       2.555  -3.818  -3.648  0.00  0.00    -0.276 OA
ATOM      3  N   UNL     1       2.221  -5.985  -3.308  0.00  0.00    -0.300 N 
ATOM      4  C   UNL     1       1.691  -7.181  -2.612  0.00  0.00    +0.121 C 
ATOM      5  C   UNL     1       1.261  -8.136  -3.748  0.00  0.00    +0.100 C 
ATOM      6  C   UNL     1       2.103  -7.707  -4.961  0.00  0.00    -0.004 C 
ATOM      7  C   UNL     1       2.962  -6.533  -4.470  0.00  0.00    +0.115 C 
ATOM      8  C   UNL     1       1.196  -7.249  -6.099  0.00  0.00    -0.010 C 
ATOM      9  C   UNL     1       2.054  -6.882  -7.313  0.00  0.00    -0.082 C 
ATOM     10  N   UNL     1       2.842  -8.049  -7.728  0.00  0.00    +0.379 N 
ATOM     11  C   UNL     1       3.778  -8.425  -6.662  0.00  0.00    -0.082 C 
ATOM     12  C   UNL     1       2.993  -8.858  -5.420  0.00  0.00    -0.010 C 
ATOM     13  H   UNL     1       2.222  -8.821  -7.918  0.00  0.00    -0.086 HD
ATOM     14  H   UNL     1       3.360  -7.823  -8.564  0.00  0.00    -0.086 HD
ENDROOT
BRANCH   5  15
ATOM     15  C   UNL     1      -0.208  -7.973  -4.042  0.00  0.00    +0.218 C 
ATOM     16  O   UNL     1      -0.753  -6.910  -3.837  0.00  0.00    -0.275 OA
ATOM     17  N   UNL     1      -0.915  -9.010  -4.533  0.00  0.00    -0.313 N 
ATOM     18  H   UNL     1      -0.479  -9.861  -4.697  0.00  0.00    +0.149 HD
BRANCH  17  19
ATOM     19  C   UNL     1      -2.344  -8.852  -4.819  0.00  0.00    +0.127 C 
BRANCH  19  20
ATOM     20  C   UNL     1      -2.925 -10.194  -5.268  0.00  0.00    +0.104 C 
BRANCH  20  21
ATOM     21  C   UNL     1      -2.279 -10.614  -6.563  0.00  0.00    -0.029 A 
ATOM     22  C   UNL     1      -2.704 -10.063  -7.758  0.00  0.00    +0.005 A 
ATOM     23  C   UNL     1      -2.111 -10.448  -8.946  0.00  0.00    +0.000 A 
ATOM     24  C   UNL     1      -1.093 -11.383  -8.939  0.00  0.00    +0.000 A 
ATOM     25  C   UNL     1      -0.668 -11.933  -7.744  0.00  0.00    +0.000 A 
ATOM     26  C   UNL     1      -1.258 -11.545  -6.556  0.00  0.00    +0.005 A 
ENDBRANCH  20  21
BRANCH  20  27
ATOM     27  N   UNL     1      -4.375 -10.058  -5.465  0.00  0.00    -0.290 NA
ATOM     28  C   UNL     1      -5.029  -9.564  -4.245  0.00  0.00    +0.113 C 
ATOM     29  C   UNL     1      -6.525  -9.380  -4.512  0.00  0.00    +0.175 C 
ATOM     30  O   UNL     1      -7.079 -10.620  -4.960  0.00  0.00    -0.377 OA
ATOM     31  C   UNL     1      -6.466 -11.130  -6.147  0.00  0.00    +0.175 C 
ATOM     32  C   UNL     1      -4.970 -11.332  -5.896  0.00  0.00    +0.113 C 
ENDBRANCH  20  27
ENDBRANCH  19  20
ENDBRANCH  17  19
ENDBRANCH   5  15
BRANCH   1  33
ATOM     33  C   UNL     1       1.265  -4.329  -1.739  0.00  0.00    +0.096 C 
BRANCH  33  34
ATOM     34  C   UNL     1       1.236  -2.808  -1.580  0.00  0.00    +0.009 C 
BRANCH  34  35
ATOM     35  C   UNL     1       0.429  -2.440  -0.333  0.00  0.00    +0.000 C 
BRANCH  35  36
ATOM     36  C   UNL     1       0.400  -0.919  -0.174  0.00  0.00    -0.000 C 
BRANCH  36  38
ATOM     37  C   UNL     1      -0.436   0.970   1.232  0.00  0.00    +0.004 C 
ATOM     38  C   UNL     1      -0.407  -0.551   1.073  0.00  0.00    -0.003 C 
ENDBRANCH  36  38
ENDBRANCH  35  36
ENDBRANCH  34  35
ENDBRANCH  33  34
ENDBRANCH   1  33
TORSDOF 10
