REMARK  Name = ZINC21577966
REMARK  7 active torsions:
REMARK  status: ('A' for Active; 'I' for Inactive)
REMARK    1  A    between atoms: C_1  and  C_2
REMARK    2  A    between atoms: C_2  and  C_23
REMARK    3  A    between atoms: N_5  and  N_9
REMARK    4  A    between atoms: C_10  and  C_12
REMARK    5  A    between atoms: C_12  and  N_13
REMARK    6  A    between atoms: C_23  and  C_24
REMARK    7  A    between atoms: C_24  and  C_25
REMARK                            x       y       z     vdW  Elec       q    Type
REMARK                         _______ _______ _______ _____ _____    ______ ____
ROOT
ATOM      1  C   UNL     1      -0.013   1.086   0.008  0.00  0.00    +0.041 C 
ATOM      2  C   UNL     1      -0.729   1.579   1.267  0.00  0.00    +0.112 C 
ATOM      3  C   UNL     1      -2.112   0.968   1.368  0.00  0.00    +0.263 C 
ATOM      4  O   UNL     1      -3.029   1.097   0.585  0.00  0.00    -0.271 OA
ATOM      5  N   UNL     1      -2.112   0.252   2.509  0.00  0.00    -0.137 N 
ATOM      6  C   UNL     1      -0.933   0.325   3.137  0.00  0.00    +0.326 C 
ATOM      7  O   UNL     1      -0.690  -0.237   4.187  0.00  0.00    -0.251 OA
ATOM      8  N   UNL     1      -0.045   1.091   2.477  0.00  0.00    -0.284 N 
ATOM      9  H   UNL     1       0.997   1.380   2.675  0.00  0.00    +0.151 HD
ENDROOT
BRANCH   5  10
ATOM     10  N   UNL     1      -3.211  -0.478   2.981  0.00  0.00    -0.225 N 
ATOM     11  C   UNL     1      -3.936  -0.011   4.016  0.00  0.00    +0.213 C 
ATOM     12  O   UNL     1      -3.638   1.042   4.539  0.00  0.00    -0.276 OA
ATOM     13  H   UNL     1      -3.481  -1.433   2.506  0.00  0.00    +0.173 HD
BRANCH  11  14
ATOM     14  C   UNL     1      -5.118  -0.796   4.523  0.00  0.00    +0.021 C 
BRANCH  14  15
ATOM     15  N   UNL     1      -5.737  -0.080   5.647  0.00  0.00    +0.388 N 
ATOM     16  C   UNL     1      -6.756  -0.912   6.305  0.00  0.00    -0.073 C 
ATOM     17  C   UNL     1      -7.095  -0.284   7.658  0.00  0.00    +0.017 C 
ATOM     18  C   UNL     1      -7.403   1.181   7.482  0.00  0.00    -0.048 A 
ATOM     19  C   UNL     1      -8.067   1.844   8.503  0.00  0.00    +0.004 A 
ATOM     20  C   UNL     1      -8.365   3.187   8.384  0.00  0.00    +0.000 A 
ATOM     21  C   UNL     1      -8.000   3.873   7.241  0.00  0.00    +0.000 A 
ATOM     22  C   UNL     1      -7.341   3.214   6.224  0.00  0.00    +0.002 A 
ATOM     23  C   UNL     1      -7.042   1.864   6.341  0.00  0.00    -0.061 A 
ATOM     24  C   UNL     1      -6.325   1.187   5.202  0.00  0.00    -0.042 C 
ATOM     25  H   UNL     1      -4.944   0.145   6.375  0.00  0.00    -0.081 HD
ENDBRANCH  14  15
ENDBRANCH  11  14
ENDBRANCH   5  10
BRANCH   2  26
ATOM     26  C   UNL     1      -0.810   3.107   1.274  0.00  0.00    +0.040 C 
BRANCH  26  27
ATOM     27  C   UNL     1       0.603   3.693   1.227  0.00  0.00    +0.038 C 
BRANCH  27  28
ATOM     28  C   UNL     1       0.522   5.198   1.234  0.00  0.00    -0.047 A 
ATOM     29  C   UNL     1       0.450   5.892   0.041  0.00  0.00    +0.003 A 
ATOM     30  C   UNL     1       0.372   7.272   0.048  0.00  0.00    +0.000 A 
ATOM     31  C   UNL     1       0.377   7.959   1.247  0.00  0.00    +0.000 A 
ATOM     32  C   UNL     1       0.454   7.265   2.441  0.00  0.00    +0.000 A 
ATOM     33  C   UNL     1       0.527   5.885   2.434  0.00  0.00    +0.003 A 
ENDBRANCH  27  28
ENDBRANCH  26  27
ENDBRANCH   2  26
TORSDOF 6
