REMARK  Name = ZINC10125300
REMARK  9 active torsions:
REMARK  status: ('A' for Active; 'I' for Inactive)
REMARK    1  A    between atoms: C_1  and  C_2
REMARK    2  A    between atoms: C_2  and  C_3
REMARK    3  A    between atoms: C_2  and  C_4
REMARK    4  A    between atoms: C_4  and  C_6
REMARK    5  A    between atoms: C_4  and  N_24
REMARK    6  A    between atoms: N_8  and  N_9
REMARK    7  A    between atoms: C_10  and  C_12
REMARK    8  A    between atoms: C_15  and  C_17
REMARK    9  A    between atoms: C_25  and  C_27
REMARK                            x       y       z     vdW  Elec       q    Type
REMARK                         _______ _______ _______ _____ _____    ______ ____
ROOT
ATOM      1  C   UNL     1      -2.740   0.942  -0.147  0.00  0.00    +0.250 C 
ATOM      2  O   UNL     1      -2.382  -0.148  -0.538  0.00  0.00    -0.272 OA
ATOM      3  N   UNL     1      -4.035   1.304  -0.249  0.00  0.00    -0.233 N 
ATOM      4  H   UNL     1      -4.335   2.145   0.128  0.00  0.00    +0.173 HD
ENDROOT
BRANCH   3   5
ATOM      5  N   UNL     1      -4.947   0.464  -0.902  0.00  0.00    -0.230 N 
ATOM      6  C   UNL     1      -6.241   0.826  -1.005  0.00  0.00    +0.267 C 
ATOM      7  O   UNL     1      -6.617   1.882  -0.531  0.00  0.00    -0.268 OA
ATOM      8  H   UNL     1      -4.647  -0.377  -1.280  0.00  0.00    +0.173 HD
BRANCH   6   9
ATOM      9  C   UNL     1      -7.194  -0.052  -1.687  0.00  0.00    +0.076 A 
ATOM     10  C   UNL     1      -8.554   0.131  -1.893  0.00  0.00    +0.021 A 
ATOM     11  C   UNL     1      -9.251  -0.832  -2.568  0.00  0.00    +0.017 A 
ATOM     12  C   UNL     1      -8.575  -1.957  -3.010  0.00  0.00    +0.020 A 
ATOM     13  S   UNL     1      -6.907  -1.635  -2.461  0.00  0.00    -0.084 S 
BRANCH  12  14
ATOM     14  C   UNL     1      -9.099  -3.125  -3.748  0.00  0.00    -0.011 A 
ATOM     15  C   UNL     1     -10.453  -3.191  -4.085  0.00  0.00    +0.012 A 
ATOM     16  C   UNL     1     -10.936  -4.280  -4.778  0.00  0.00    +0.039 A 
ATOM     17  C   UNL     1     -10.083  -5.314  -5.132  0.00  0.00    +0.123 A 
ATOM     18  C   UNL     1      -8.739  -5.256  -4.796  0.00  0.00    +0.039 A 
ATOM     19  C   UNL     1      -8.244  -4.169  -4.107  0.00  0.00    +0.012 A 
ATOM     20  F   UNL     1     -10.562  -6.382  -5.806  0.00  0.00    -0.205 F 
ENDBRANCH  12  14
ENDBRANCH   6   9
ENDBRANCH   3   5
BRANCH   1  21
ATOM     21  C   UNL     1      -1.738   1.893   0.455  0.00  0.00    +0.163 C 
BRANCH  21  22
ATOM     22  N   UNL     1      -0.385   1.484   0.070  0.00  0.00    -0.303 N 
ATOM     23  C   UNL     1       0.609   2.393   0.031  0.00  0.00    +0.217 C 
ATOM     24  O   UNL     1       0.385   3.550   0.319  0.00  0.00    -0.275 OA
ATOM     25  H   UNL     1      -0.205   0.559  -0.161  0.00  0.00    +0.149 HD
BRANCH  23  26
ATOM     26  C   UNL     1       2.000   1.974  -0.371  0.00  0.00    +0.075 C 
ATOM     27  C   UNL     1       2.511   0.908   0.601  0.00  0.00    +0.013 C 
ATOM     28  C   UNL     1       3.923   0.482   0.193  0.00  0.00    +0.001 C 
ATOM     29  C   UNL     1       4.853   1.696   0.231  0.00  0.00    +0.000 C 
ATOM     30  C   UNL     1       4.342   2.761  -0.741  0.00  0.00    +0.001 C 
ATOM     31  C   UNL     1       2.930   3.188  -0.333  0.00  0.00    +0.013 C 
ENDBRANCH  23  26
ENDBRANCH  21  22
BRANCH  21  33
ATOM     32  C   UNL     1      -1.483   0.483   2.501  0.00  0.00    +0.009 C 
ATOM     33  C   UNL     1      -1.863   1.870   1.979  0.00  0.00    +0.012 C 
ATOM     34  C   UNL     1      -0.926   2.918   2.584  0.00  0.00    +0.009 C 
ENDBRANCH  21  33
ENDBRANCH   1  21
TORSDOF 7
