REMARK  Name = ZINC57316374
REMARK  8 active torsions:
REMARK  status: ('A' for Active; 'I' for Inactive)
REMARK    1  A    between atoms: C_1  and  O_2
REMARK    2  A    between atoms: O_2  and  C_3
REMARK    3  A    between atoms: C_8  and  C_9
REMARK    4  A    between atoms: N_11  and  C_12
REMARK    5  A    between atoms: C_12  and  N_14
REMARK    6  A    between atoms: N_14  and  C_15
REMARK    7  A    between atoms: C_15  and  C_16
REMARK    8  A    between atoms: C_19  and  C_21
REMARK                            x       y       z     vdW  Elec       q    Type
REMARK                         _______ _______ _______ _____ _____    ______ ____
ROOT
ATOM      1  C   UNL     1       1.063  -4.902  -0.034  0.00  0.00    +0.137 C 
ATOM      2  S   UNL     1       2.582  -4.112  -0.045  0.00  0.00    -0.018 S 
ENDROOT
BRANCH   1   5
ATOM      3  C   UNL     1      -0.013  -2.830  -0.013  0.00  0.00    +0.253 C 
ATOM      4  O   UNL     1       1.066  -2.270  -0.020  0.00  0.00    -0.270 OA
ATOM      5  N   UNL     1      -0.073  -4.177  -0.020  0.00  0.00    -0.264 N 
ATOM      6  H   UNL     1      -0.934  -4.624  -0.014  0.00  0.00    +0.157 HD
BRANCH   3  12
ATOM      7  C   UNL     1      -1.198  -0.636   0.010  0.00  0.00    +0.132 A 
ATOM      8  C   UNL     1      -2.373   0.100   0.019  0.00  0.00    +0.048 A 
ATOM      9  C   UNL     1      -3.594  -0.544   0.028  0.00  0.00    +0.023 A 
ATOM     10  C   UNL     1      -3.656  -1.929   0.026  0.00  0.00    +0.042 A 
ATOM     11  C   UNL     1      -2.498  -2.677   0.017  0.00  0.00    +0.036 A 
ATOM     12  C   UNL     1      -1.256  -2.037   0.003  0.00  0.00    +0.080 A 
ATOM     13 CL   UNL     1      -5.199  -2.725   0.036  0.00  0.00    -0.084 Cl
BRANCH   7  15
ATOM     14  C   UNL     1      -0.017   1.425   0.010  0.00  0.00    +0.277 C 
ATOM     15  O   UNL     1       0.002  -0.004   0.002  0.00  0.00    -0.494 OA
ENDBRANCH   7  15
ENDBRANCH   3  12
ENDBRANCH   1   5
BRANCH   1  16
ATOM     16  N   UNL     1       1.003  -6.248  -0.041  0.00  0.00    -0.319 N 
ATOM     17  H   UNL     1       0.142  -6.695  -0.035  0.00  0.00    +0.148 HD
BRANCH  16  18
ATOM     18  C   UNL     1       2.238  -7.036  -0.057  0.00  0.00    +0.177 C 
BRANCH  18  19
ATOM     19  C   UNL     1       1.897  -8.504  -0.062  0.00  0.00    +0.123 A 
ATOM     20  C   UNL     1       1.714  -9.265  -1.159  0.00  0.00    +0.047 A 
ATOM     21  C   UNL     1       1.413 -10.567  -0.713  0.00  0.00    +0.050 A 
ATOM     22  C   UNL     1       1.430 -10.530   0.646  0.00  0.00    +0.135 A 
ATOM     23  O   UNL     1       1.730  -9.273   1.027  0.00  0.00    -0.458 OA
BRANCH  22  24
ATOM     24  C   UNL     1       1.170 -11.670   1.549  0.00  0.00    +0.017 A 
ATOM     25  C   UNL     1       0.880 -12.930   1.021  0.00  0.00    +0.012 A 
ATOM     26  C   UNL     1       0.639 -13.991   1.869  0.00  0.00    +0.016 A 
ATOM     27  C   UNL     1       0.682 -13.809   3.241  0.00  0.00    +0.018 A 
ATOM     28  C   UNL     1       0.969 -12.562   3.770  0.00  0.00    +0.016 A 
ATOM     29  C   UNL     1       1.219 -11.494   2.933  0.00  0.00    +0.012 A 
ATOM     30 BR   UNL     1       0.349 -15.268   4.396  0.00  0.00    -0.050 Br
ENDBRANCH  22  24
ENDBRANCH  18  19
ENDBRANCH  16  18
ENDBRANCH   1  16
TORSDOF 7
