REMARK  Name = ZINC28822497
REMARK  13 active torsions:
REMARK  status: ('A' for Active; 'I' for Inactive)
REMARK    1  A    between atoms: C_1  and  C_2
REMARK    2  A    between atoms: C_3  and  C_24
REMARK    3  A    between atoms: N_7  and  C_23
REMARK    4  A    between atoms: C_9  and  C_12
REMARK    5  A    between atoms: N_14  and  C_15
REMARK    6  A    between atoms: C_15  and  C_16
REMARK    7  A    between atoms: C_24  and  N_25
REMARK    8  A    between atoms: N_25  and  C_26
REMARK    9  A    between atoms: N_25  and  C_27
REMARK   10  A    between atoms: C_27  and  C_28
REMARK   11  A    between atoms: C_28  and  C_30
REMARK   12  A    between atoms: C_28  and  O_37
REMARK   13  A    between atoms: C_33  and  O_36
REMARK                            x       y       z     vdW  Elec       q    Type
REMARK                         _______ _______ _______ _____ _____    ______ ____
ROOT
ATOM      1  C   UNL     1       2.637  -3.800   3.621  0.00  0.00    +0.047 C 
ATOM      2  C   UNL     1       1.446  -4.679   3.342  0.00  0.00    -0.015 A 
ATOM      3  C   UNL     1       0.217  -4.128   3.220  0.00  0.00    +0.009 A 
ATOM      4  S   UNL     1      -0.816  -5.550   2.910  0.00  0.00    -0.086 S 
ATOM      5  C   UNL     1       0.452  -6.790   2.953  0.00  0.00    +0.084 A 
ATOM      6  C   UNL     1       1.617  -6.061   3.211  0.00  0.00    +0.063 A 
ATOM      7  N   UNL     1       2.809  -6.779   3.308  0.00  0.00    -0.348 N 
ATOM      8  C   UNL     1       2.879  -8.105   3.167  0.00  0.00    +0.102 A 
ATOM      9  C   UNL     1       1.763  -8.874   2.912  0.00  0.00    +0.100 A 
ATOM     10  C   UNL     1       0.465  -8.183   2.796  0.00  0.00    +0.208 A 
ATOM     11  O   UNL     1      -0.562  -8.802   2.571  0.00  0.00    -0.286 OA
ATOM     12  C   UNL     1       4.046  -6.041   3.578  0.00  0.00    +0.149 C 
ENDROOT
BRANCH   9  13
ATOM     13  C   UNL     1       1.863 -10.334   2.760  0.00  0.00    +0.249 C 
ATOM     14  O   UNL     1       0.865 -10.992   2.535  0.00  0.00    -0.270 OA
ATOM     15  N   UNL     1       3.061 -10.942   2.871  0.00  0.00    -0.307 N 
ATOM     16  H   UNL     1       3.963 -10.347   3.075  0.00  0.00    +0.149 HD
BRANCH  15  17
ATOM     17  C   UNL     1       3.161 -12.396   2.721  0.00  0.00    +0.139 C 
BRANCH  17  18
ATOM     18  C   UNL     1       4.597 -12.821   2.888  0.00  0.00    -0.030 A 
ATOM     19  C   UNL     1       5.431 -12.887   1.788  0.00  0.00    +0.006 A 
ATOM     20  C   UNL     1       6.750 -13.271   1.942  0.00  0.00    +0.020 A 
ATOM     21  C   UNL     1       7.232 -13.600   3.196  0.00  0.00    +0.041 A 
ATOM     22  C   UNL     1       6.395 -13.539   4.296  0.00  0.00    +0.020 A 
ATOM     23  C   UNL     1       5.078 -13.150   4.142  0.00  0.00    +0.006 A 
ATOM     24 CL   UNL     1       8.887 -14.089   3.390  0.00  0.00    -0.084 Cl
ENDBRANCH  17  18
ENDBRANCH  15  17
ENDBRANCH   9  13
BRANCH   3  25
ATOM     25  C   UNL     1      -0.180  -2.678   3.326  0.00  0.00    +0.127 C 
BRANCH  25  26
ATOM     26  N   UNL     1      -0.105  -2.052   1.999  0.00  0.00    -0.298 NA
ATOM     27  C   UNL     1      -1.106  -2.624   1.089  0.00  0.00    +0.105 C 
BRANCH  26  28
ATOM     28  C   UNL     1      -0.253  -0.594   2.096  0.00  0.00    +0.120 C 
BRANCH  28  29
ATOM     29  C   UNL     1       1.052   0.019   2.608  0.00  0.00    +0.158 C 
BRANCH  29  30
ATOM     30  C   UNL     1       0.882   1.509   2.758  0.00  0.00    -0.018 A 
ATOM     31  C   UNL     1       0.978   2.330   1.650  0.00  0.00    +0.010 A 
ATOM     32  C   UNL     1       0.817   3.696   1.784  0.00  0.00    +0.046 A 
ATOM     33  C   UNL     1       0.571   4.244   3.035  0.00  0.00    +0.117 A 
ATOM     34  C   UNL     1       0.482   3.419   4.146  0.00  0.00    +0.046 A 
ATOM     35  C   UNL     1       0.637   2.053   4.006  0.00  0.00    +0.010 A 
BRANCH  33  36
ATOM     36  O   UNL     1       0.419   5.588   3.171  0.00  0.00    -0.507 OA
ATOM     37  H   UNL     1       0.225   6.021   4.163  0.00  0.00    +0.292 HD
ENDBRANCH  33  36
ENDBRANCH  29  30
BRANCH  29  38
ATOM     38  O   UNL     1       2.102  -0.249   1.676  0.00  0.00    -0.386 OA
ATOM     39  H   UNL     1       3.120   0.116   1.875  0.00  0.00    +0.210 HD
ENDBRANCH  29  38
ENDBRANCH  28  29
ENDBRANCH  26  28
ENDBRANCH  25  26
ENDBRANCH   3  25
TORSDOF 10
