REMARK  Name = ZINC13552080
REMARK  3 active torsions:
REMARK  status: ('A' for Active; 'I' for Inactive)
REMARK    1  A    between atoms: C_7  and  C_9
REMARK    2  A    between atoms: C_9  and  S_10
REMARK    3  A    between atoms: S_10  and  C_11
REMARK                            x       y       z     vdW  Elec       q    Type
REMARK                         _______ _______ _______ _____ _____    ______ ____
ROOT
ATOM      1  S   UNL     1      -1.125  -5.207  -0.015  0.00  0.00    -0.094 S 
ENDROOT
BRANCH   1   2
ATOM      2  C   UNL     1      -0.712  -6.920  -0.028  0.00  0.00    +0.126 A 
ATOM      3  C   UNL     1      -1.712  -7.896  -0.030  0.00  0.00    +0.117 A 
ATOM      4  C   UNL     1      -1.333  -9.247  -0.041  0.00  0.00    +0.182 A 
ATOM      5  N   UNL     1      -2.468  -9.971  -0.040  0.00  0.00    -0.216 NA
ATOM      6  H   UNL     1      -3.661  -7.100  -0.015  0.00  0.00    +0.167 HD
ATOM      7  C   UNL     1      -3.500  -9.174  -0.029  0.00  0.00    +0.199 A 
ATOM      8  N   UNL     1      -3.091  -7.885  -0.023  0.00  0.00    -0.341 N 
ATOM      9  N   UNL     1      -0.030  -9.548  -0.050  0.00  0.00    -0.214 NA
ATOM     10  C   UNL     1       0.876  -8.596  -0.048  0.00  0.00    +0.224 A 
ATOM     11  N   UNL     1       0.559  -7.314  -0.043  0.00  0.00    -0.227 NA
ENDBRANCH   1   2
BRANCH   1  12
ATOM     12  C   UNL     1       0.483  -4.368  -0.026  0.00  0.00    +0.172 C 
BRANCH  12  19
ATOM     13  C   UNL     1      -0.016   1.316   0.009  0.00  0.00    +0.120 A 
ATOM     14  C   UNL     1       1.183   1.948   0.001  0.00  0.00    +0.068 A 
ATOM     15  S   UNL     1       2.296   0.552  -0.017  0.00  0.00    -0.061 S 
ATOM     16  C   UNL     1       1.137  -0.669  -0.012  0.00  0.00    +0.164 A 
ATOM     17  N   UNL     1       0.002  -0.004   0.002  0.00  0.00    -0.233 NA
ATOM     18  N   UNL     1       1.333  -2.045  -0.022  0.00  0.00    -0.264 N 
ATOM     19  C   UNL     1       0.272  -2.876  -0.016  0.00  0.00    +0.229 C 
ATOM     20  O   UNL     1      -0.854  -2.423  -0.003  0.00  0.00    -0.275 OA
ATOM     21  H   UNL     1       2.232  -2.407  -0.032  0.00  0.00    +0.157 HD
ENDBRANCH  12  19
ENDBRANCH   1  12
TORSDOF 3
