REMARK  Name = ZINC05564105
REMARK  9 active torsions:
REMARK  status: ('A' for Active; 'I' for Inactive)
REMARK    1  A    between atoms: C_1  and  C_2
REMARK    2  A    between atoms: C_2  and  C_3
REMARK    3  A    between atoms: C_3  and  C_4
REMARK    4  A    between atoms: C_11  and  N_31
REMARK    5  A    between atoms: C_12  and  C_29
REMARK    6  A    between atoms: C_13  and  C_15
REMARK    7  A    between atoms: C_18  and  O_21
REMARK    8  A    between atoms: O_21  and  C_22
REMARK    9  A    between atoms: C_22  and  C_24
REMARK                            x       y       z     vdW  Elec       q    Type
REMARK                         _______ _______ _______ _____ _____    ______ ____
ROOT
ATOM      1  C   UNL     1       0.783  -1.872   1.271  0.00  0.00    +0.071 A 
ATOM      2  C   UNL     1      -0.145  -2.782   1.758  0.00  0.00    +0.049 A 
ATOM      3  C   UNL     1       0.303  -4.040   1.468  0.00  0.00    +0.222 A 
ATOM      4  N   UNL     1       1.473  -3.916   0.821  0.00  0.00    -0.246 N 
ATOM      5  H   UNL     1       2.023  -4.643   0.490  0.00  0.00    +0.192 HD
ATOM      6  N   UNL     1       1.754  -2.546   0.702  0.00  0.00    -0.176 NA
ATOM      7  O   UNL     1      -0.380  -5.159   1.816  0.00  0.00    -0.423 OA
ATOM      8  C   UNL     1      -1.388  -5.025   2.701  0.00  0.00    +0.200 C 
ATOM      9  C   UNL     1      -1.924  -3.837   3.057  0.00  0.00    +0.098 C 
ATOM     10  C   UNL     1      -1.440  -2.527   2.485  0.00  0.00    +0.101 C 
ENDROOT
BRANCH  10  11
ATOM     11  C   UNL     1      -2.465  -1.982   1.523  0.00  0.00    -0.034 A 
ATOM     12  C   UNL     1      -2.848  -2.730   0.426  0.00  0.00    +0.008 A 
ATOM     13  C   UNL     1      -3.786  -2.232  -0.458  0.00  0.00    +0.047 A 
ATOM     14  C   UNL     1      -4.345  -0.981  -0.242  0.00  0.00    +0.132 A 
ATOM     15  C   UNL     1      -3.958  -0.232   0.861  0.00  0.00    +0.047 A 
ATOM     16  C   UNL     1      -3.023  -0.737   1.744  0.00  0.00    +0.008 A 
BRANCH  14  17
ATOM     17  O   UNL     1      -5.268  -0.488  -1.109  0.00  0.00    -0.420 OA
BRANCH  17  18
ATOM     18  C   UNL     1      -6.481  -1.076  -1.143  0.00  0.00    +0.380 C 
ATOM     19  O   UNL     1      -6.758  -1.947  -0.341  0.00  0.00    -0.241 OA
BRANCH  18  20
ATOM     20  C   UNL     1      -7.466  -0.665  -2.147  0.00  0.00    +0.212 A 
ATOM     21  C   UNL     1      -8.727  -1.171  -2.288  0.00  0.00    +0.056 A 
ATOM     22  C   UNL     1      -9.315  -0.493  -3.367  0.00  0.00    +0.042 A 
ATOM     23  C   UNL     1      -8.399   0.386  -3.831  0.00  0.00    +0.196 A 
ATOM     24  O   UNL     1      -7.289   0.284  -3.090  0.00  0.00    -0.456 OA
ENDBRANCH  18  20
ENDBRANCH  17  18
ENDBRANCH  14  17
ENDBRANCH  10  11
BRANCH   8  25
ATOM     25  N   UNL     1      -1.901  -6.163   3.274  0.00  0.00    -0.328 N 
ATOM     26  H   UNL     1      -1.537  -7.031   3.038  0.00  0.00    +0.145 HD
ATOM     27  H   UNL     1      -2.627  -6.099   3.914  0.00  0.00    +0.145 HD
ENDBRANCH   8  25
BRANCH   9  28
ATOM     28  C   UNL     1      -2.991  -3.820   4.012  0.00  0.00    +0.101 C 
ATOM     29  N   UNL     1      -3.837  -3.806   4.770  0.00  0.00    -0.191 NA
ENDBRANCH   9  28
BRANCH   1  30
ATOM     30  C   UNL     1       0.688  -0.371   1.372  0.00  0.00    +0.057 C 
BRANCH  30  32
ATOM     31  C   UNL     1      -0.147   1.700   0.253  0.00  0.00    +0.004 C 
ATOM     32  C   UNL     1      -0.051   0.177   0.150  0.00  0.00    +0.003 C 
ENDBRANCH  30  32
ENDBRANCH   1  30
TORSDOF 8
