REMARK  Name = ZINC58289752
REMARK  7 active torsions:
REMARK  status: ('A' for Active; 'I' for Inactive)
REMARK    1  A    between atoms: C_1  and  C_2
REMARK    2  A    between atoms: C_2  and  C_3
REMARK    3  A    between atoms: C_3  and  C_4
REMARK    4  A    between atoms: C_3  and  C_6
REMARK    5  A    between atoms: C_4  and  C_5
REMARK    6  A    between atoms: C_12  and  C_14
REMARK    7  A    between atoms: C_14  and  C_15
REMARK                            x       y       z     vdW  Elec       q    Type
REMARK                         _______ _______ _______ _____ _____    ______ ____
ROOT
ATOM      1  C   UNL     1      -1.381  -2.101   0.240  0.00  0.00    +0.107 A 
ATOM      2  N   UNL     1      -0.814  -3.076  -0.442  0.00  0.00    -0.144 NA
ATOM      3  N   UNL     1      -0.932  -4.265  -0.029  0.00  0.00    -0.126 NA
ATOM      4  C   UNL     1      -1.606  -4.558   1.066  0.00  0.00    +0.188 A 
ATOM      5  S   UNL     1      -2.120  -3.035   1.573  0.00  0.00    -0.035 S 
ATOM      6  N   UNL     1      -1.830  -5.800   1.651  0.00  0.00    -0.263 N 
ATOM      7  C   UNL     1      -1.322  -6.913   1.087  0.00  0.00    +0.225 C 
ATOM      8  O   UNL     1      -0.670  -6.832   0.067  0.00  0.00    -0.275 OA
ATOM      9  H   UNL     1      -2.352  -5.864   2.467  0.00  0.00    +0.157 HD
ENDROOT
BRANCH   1  10
ATOM     10  C   UNL     1      -1.395  -0.618  -0.025  0.00  0.00    +0.046 C 
BRANCH  10  12
ATOM     11  C   UNL     1       0.649  -0.228   1.359  0.00  0.00    +0.004 C 
ATOM     12  C   UNL     1       0.041  -0.088  -0.038  0.00  0.00    +0.007 C 
ENDBRANCH  10  12
BRANCH  10  13
ATOM     13  C   UNL     1      -2.050  -0.348  -1.381  0.00  0.00    +0.007 C 
ATOM     14  C   UNL     1      -3.522  -0.765  -1.327  0.00  0.00    +0.004 C 
ENDBRANCH  10  13
ENDBRANCH   1  10
BRANCH   7  15
ATOM     15  C   UNL     1      -1.565  -8.258   1.722  0.00  0.00    +0.152 C 
BRANCH  15  16
ATOM     16  C   UNL     1      -0.895  -9.329   0.900  0.00  0.00    +0.059 A 
ATOM     17  C   UNL     1      -0.013 -10.197   1.452  0.00  0.00    +0.072 A 
ATOM     18  S   UNL     1       0.419 -11.184   0.029  0.00  0.00    -0.060 S 
ATOM     19  C   UNL     1      -0.554 -10.402  -1.100  0.00  0.00    +0.168 A 
ATOM     20  N   UNL     1      -1.147  -9.468  -0.389  0.00  0.00    -0.229 NA
ATOM     21  N   UNL     1      -0.699 -10.679  -2.455  0.00  0.00    -0.234 N 
ATOM     22  C   UNL     1       0.057 -11.785  -3.045  0.00  0.00    +0.119 C 
ATOM     23  C   UNL     1      -0.731 -12.357  -4.229  0.00  0.00    +0.038 C 
ATOM     24  C   UNL     1      -1.030 -11.219  -5.211  0.00  0.00    +0.107 C 
ATOM     25  N   UNL     1      -1.726 -10.144  -4.503  0.00  0.00    -0.299 N 
ATOM     26  C   UNL     1      -1.532  -9.931  -3.193  0.00  0.00    +0.308 C 
ATOM     27  O   UNL     1      -2.132  -9.021  -2.654  0.00  0.00    -0.252 OA
ATOM     28  H   UNL     1      -2.344  -9.576  -4.990  0.00  0.00    +0.150 HD
ENDBRANCH  15  16
ENDBRANCH   7  15
TORSDOF 5
