REMARK  Name = ZINC19925906
REMARK  12 active torsions:
REMARK  status: ('A' for Active; 'I' for Inactive)
REMARK    1  A    between atoms: C_1  and  C_2
REMARK    2  A    between atoms: C_2  and  N_3
REMARK    3  A    between atoms: N_3  and  C_4
REMARK    4  A    between atoms: N_3  and  C_6
REMARK    5  A    between atoms: C_4  and  C_5
REMARK    6  A    between atoms: C_6  and  C_7
REMARK    7  A    between atoms: C_8  and  C_18
REMARK    8  A    between atoms: N_20  and  N_21
REMARK    9  A    between atoms: C_22  and  C_23
REMARK   10  A    between atoms: C_26  and  C_29
REMARK   11  A    between atoms: C_29  and  O_31
REMARK   12  A    between atoms: O_31  and  C_32
REMARK                            x       y       z     vdW  Elec       q    Type
REMARK                         _______ _______ _______ _____ _____    ______ ____
ROOT
ATOM      1  C   UNL     1      -7.967   9.336   0.087  0.00  0.00    +0.079 A 
ATOM      2  C   UNL     1      -7.710   7.992   0.167  0.00  0.00    +0.154 A 
ATOM      3  N   UNL     1      -8.940   7.384   0.235  0.00  0.00    -0.183 N 
ATOM      4  N   UNL     1      -9.838   8.306   0.206  0.00  0.00    -0.058 NA
ATOM      5  N   UNL     1      -9.294   9.467   0.115  0.00  0.00    -0.135 NA
ATOM      6  C   UNL     1      -9.175   6.009   0.323  0.00  0.00    +0.241 A 
ATOM      7  C   UNL     1     -10.488   5.359   0.286  0.00  0.00    +0.206 A 
ATOM      8  N   UNL     1     -10.311   4.071   0.395  0.00  0.00    -0.032 NA
ATOM      9  O   UNL     1      -8.919   3.831   0.505  0.00  0.00    -0.239 OA
ATOM     10  N   UNL     1      -8.263   5.086   0.448  0.00  0.00    -0.027 NA
ATOM     11  N   UNL     1     -11.712   6.004   0.156  0.00  0.00    -0.337 N 
ATOM     12  H   UNL     1     -12.644   5.419   0.138  0.00  0.00    +0.144 HD
ATOM     13  H   UNL     1     -11.750   7.100   0.070  0.00  0.00    +0.144 HD
ENDROOT
BRANCH   2  14
ATOM     14  C   UNL     1      -6.393   7.337   0.173  0.00  0.00    +0.284 C 
ATOM     15  O   UNL     1      -5.804   7.144  -0.875  0.00  0.00    -0.267 OA
ATOM     16  N   UNL     1      -5.837   6.950   1.339  0.00  0.00    -0.202 N 
ATOM     17  H   UNL     1      -6.329   7.199   2.291  0.00  0.00    +0.178 HD
BRANCH  16  18
ATOM     18  N   UNL     1      -4.635   6.231   1.337  0.00  0.00    -0.187 NA
ATOM     19  C   UNL     1      -4.100   5.859   2.461  0.00  0.00    +0.138 C 
BRANCH  19  20
ATOM     20  C   UNL     1      -2.836   5.103   2.459  0.00  0.00    -0.005 A 
ATOM     21  C   UNL     1      -2.259   4.702   3.669  0.00  0.00    +0.010 A 
ATOM     22  C   UNL     1      -1.087   4.001   3.668  0.00  0.00    +0.015 A 
ATOM     23  C   UNL     1      -0.463   3.684   2.457  0.00  0.00    +0.059 A 
ATOM     24  C   UNL     1      -1.036   4.090   1.248  0.00  0.00    +0.015 A 
ATOM     25  C   UNL     1      -2.211   4.786   1.248  0.00  0.00    +0.010 A 
BRANCH  23  26
ATOM     26  C   UNL     1       0.803   2.927   2.456  0.00  0.00    +0.339 C 
ATOM     27  O   UNL     1       1.303   2.579   3.507  0.00  0.00    -0.245 OA
BRANCH  26  28
ATOM     28  O   UNL     1       1.401   2.617   1.289  0.00  0.00    -0.464 OA
ATOM     29  C   UNL     1       2.641   1.865   1.363  0.00  0.00    +0.280 C 
ENDBRANCH  26  28
ENDBRANCH  23  26
ENDBRANCH  19  20
ENDBRANCH  16  18
ENDBRANCH   2  14
BRANCH   1  30
ATOM     30  C   UNL     1      -6.952  10.445  -0.014  0.00  0.00    -0.018 C 
BRANCH  30  31
ATOM     31  N   UNL     1      -6.661  10.715  -1.429  0.00  0.00    +0.383 N 
ATOM     32  H   UNL     1      -6.401   9.761  -1.909  0.00  0.00    -0.081 HD
BRANCH  31  34
ATOM     33  C   UNL     1      -8.198  12.620  -1.515  0.00  0.00    -0.017 C 
ATOM     34  C   UNL     1      -7.841  11.258  -2.114  0.00  0.00    -0.082 C 
ENDBRANCH  31  34
BRANCH  31  35
ATOM     35  C   UNL     1      -5.511  11.618  -1.566  0.00  0.00    -0.082 C 
ATOM     36  C   UNL     1      -5.003  11.581  -3.009  0.00  0.00    -0.017 C 
ENDBRANCH  31  35
ENDBRANCH  30  31
ENDBRANCH   1  30
TORSDOF 9
