REMARK  Name = ZINC58267788
REMARK  8 active torsions:
REMARK  status: ('A' for Active; 'I' for Inactive)
REMARK    1  A    between atoms: C_1  and  C_2
REMARK    2  A    between atoms: C_4  and  C_29
REMARK    3  A    between atoms: C_5  and  N_11
REMARK    4  A    between atoms: C_6  and  C_8
REMARK    5  A    between atoms: N_11  and  S_12
REMARK    6  A    between atoms: S_12  and  C_15
REMARK    7  A    between atoms: C_18  and  S_21
REMARK    8  A    between atoms: S_21  and  N_24
REMARK                            x       y       z     vdW  Elec       q    Type
REMARK                         _______ _______ _______ _____ _____    ______ ____
ROOT
ATOM      1  S   UNL     1       0.096  -5.005   1.396  0.00  0.00    +0.072 S 
ATOM      2  O   UNL     1       0.059  -6.384   1.053  0.00  0.00    -0.150 OA
ATOM      3  O   UNL     1       1.093  -4.458   2.248  0.00  0.00    -0.150 OA
ENDROOT
BRANCH   1   4
ATOM      4  C   UNL     1      -1.460  -4.629   2.134  0.00  0.00    +0.109 A 
ATOM      5  C   UNL     1      -1.599  -3.495   2.913  0.00  0.00    +0.031 A 
ATOM      6  C   UNL     1      -2.819  -3.200   3.491  0.00  0.00    +0.030 A 
ATOM      7  C   UNL     1      -3.900  -4.038   3.292  0.00  0.00    +0.106 A 
ATOM      8  C   UNL     1      -3.761  -5.171   2.512  0.00  0.00    +0.030 A 
ATOM      9  C   UNL     1      -2.542  -5.464   1.930  0.00  0.00    +0.031 A 
BRANCH   7  10
ATOM     10  S   UNL     1      -5.455  -3.662   4.030  0.00  0.00    +0.061 S 
ATOM     11  O   UNL     1      -6.161  -4.890   4.138  0.00  0.00    -0.153 OA
ATOM     12  O   UNL     1      -5.181  -2.840   5.157  0.00  0.00    -0.153 OA
BRANCH  10  13
ATOM     13  N   UNL     1      -6.295  -2.725   2.954  0.00  0.00    -0.177 NA
ATOM     14  C   UNL     1      -6.254  -1.257   2.881  0.00  0.00    +0.109 C 
ATOM     15  C   UNL     1      -7.210  -0.828   1.749  0.00  0.00    +0.018 C 
ATOM     16  C   UNL     1      -8.166  -2.044   1.621  0.00  0.00    +0.018 C 
ATOM     17  C   UNL     1      -7.202  -3.225   1.905  0.00  0.00    +0.109 C 
ENDBRANCH  10  13
ENDBRANCH   7  10
ENDBRANCH   1   4
BRANCH   1  18
ATOM     18  N   UNL     1       0.178  -4.165  -0.029  0.00  0.00    -0.215 N 
ATOM     19  H   UNL     1       0.193  -4.642  -0.873  0.00  0.00    +0.174 HD
BRANCH  18  24
ATOM     20  C   UNL     1       0.386   1.504   0.034  0.00  0.00    +0.044 C 
ATOM     21  C   UNL     1       0.322  -0.002   0.014  0.00  0.00    -0.049 A 
ATOM     22  C   UNL     1       1.397  -0.744   0.478  0.00  0.00    +0.008 A 
ATOM     23  C   UNL     1       1.352  -2.123   0.466  0.00  0.00    -0.027 A 
ATOM     24  C   UNL     1       0.225  -2.779  -0.015  0.00  0.00    +0.065 A 
ATOM     25  C   UNL     1      -0.867  -2.030  -0.486  0.00  0.00    +0.086 A 
ATOM     26  C   UNL     1      -0.807  -0.632  -0.461  0.00  0.00    +0.020 A 
ATOM     27  C   UNL     1       2.527  -2.919   0.973  0.00  0.00    +0.046 C 
BRANCH  25  28
ATOM     28  C   UNL     1      -2.066  -2.710  -0.997  0.00  0.00    +0.388 C 
ATOM     29  O   UNL     1      -2.976  -2.058  -1.489  0.00  0.00    -0.241 OA
ATOM     30  O   UNL     1      -2.153  -3.929  -0.929  0.00  0.00    -0.241 OA
ENDBRANCH  25  28
ENDBRANCH  18  24
ENDBRANCH   1  18
TORSDOF 6
