REMARK  Name = ZINC65145638
REMARK  5 active torsions:
REMARK  status: ('A' for Active; 'I' for Inactive)
REMARK    1  A    between atoms: C_6  and  C_7
REMARK    2  A    between atoms: C_7  and  C_13
REMARK    3  A    between atoms: N_15  and  N_16
REMARK    4  A    between atoms: N_19  and  C_20
REMARK    5  A    between atoms: C_20  and  C_21
REMARK                            x       y       z     vdW  Elec       q    Type
REMARK                         _______ _______ _______ _____ _____    ______ ____
ROOT
ATOM      1  C   UNL     1      -1.431  -1.540  -1.280  0.00  0.00    +0.240 C 
ATOM      2  O   UNL     1      -2.321  -1.264  -2.057  0.00  0.00    -0.273 OA
ATOM      3  N   UNL     1      -0.565  -2.530  -1.572  0.00  0.00    -0.232 N 
ATOM      4  H   UNL     1       0.102  -2.799  -0.920  0.00  0.00    +0.173 HD
ENDROOT
BRANCH   1   5
ATOM      5  C   UNL     1      -1.294  -0.774   0.010  0.00  0.00    +0.073 C 
ATOM      6  C   UNL     1      -1.248  -1.755   1.183  0.00  0.00    +0.021 C 
ATOM      7  C   UNL     1      -2.539  -2.576   1.212  0.00  0.00    +0.001 C 
ATOM      8  C   UNL     1      -3.736  -1.638   1.379  0.00  0.00    +0.000 C 
ATOM      9  C   UNL     1      -3.782  -0.657   0.206  0.00  0.00    +0.001 C 
ATOM     10  C   UNL     1      -2.491   0.164   0.177  0.00  0.00    +0.021 C 
BRANCH   5  16
ATOM     11  C   UNL     1       0.909  -0.108   0.993  0.00  0.00    +0.008 A 
ATOM     12  C   UNL     1       2.077   0.631   0.971  0.00  0.00    +0.050 A 
ATOM     13  C   UNL     1       2.316   1.518  -0.065  0.00  0.00    +0.166 A 
ATOM     14  C   UNL     1       1.378   1.663  -1.085  0.00  0.00    +0.167 A 
ATOM     15  C   UNL     1       0.210   0.919  -1.056  0.00  0.00    +0.054 A 
ATOM     16  C   UNL     1      -0.022   0.035  -0.018  0.00  0.00    -0.029 A 
ATOM     17  O   UNL     1       1.841   2.586  -1.976  0.00  0.00    -0.453 OA
ATOM     18  C   UNL     1       2.880   3.303  -1.283  0.00  0.00    +0.466 C 
ATOM     19  O   UNL     1       3.368   2.352  -0.319  0.00  0.00    -0.453 OA
ENDBRANCH   5  16
ENDBRANCH   1   5
BRANCH   3  20
ATOM     20  N   UNL     1      -0.627  -3.172  -2.816  0.00  0.00    -0.218 N 
ATOM     21  C   UNL     1       0.239  -4.162  -3.107  0.00  0.00    +0.316 C 
ATOM     22  O   UNL     1       0.185  -4.719  -4.186  0.00  0.00    -0.251 OA
ATOM     23  N   UNL     1       1.165  -4.536  -2.202  0.00  0.00    -0.296 N 
ATOM     24  H   UNL     1      -1.294  -2.903  -3.467  0.00  0.00    +0.174 HD
ATOM     25  H   UNL     1       1.208  -4.091  -1.341  0.00  0.00    +0.150 HD
BRANCH  23  26
ATOM     26  C   UNL     1       2.107  -5.612  -2.518  0.00  0.00    +0.137 C 
BRANCH  26  27
ATOM     27  C   UNL     1       3.043  -5.837  -1.330  0.00  0.00    +0.135 C 
ATOM     28  C   UNL     1       4.112  -6.889  -1.696  0.00  0.00    +0.035 C 
ATOM     29  C   UNL     1       4.238  -7.703  -0.380  0.00  0.00    +0.031 C 
ATOM     30  C   UNL     1       2.779  -7.651   0.139  0.00  0.00    +0.160 C 
ATOM     31  O   UNL     1       2.301  -6.344  -0.215  0.00  0.00    -0.375 OA
ENDBRANCH  26  27
ENDBRANCH  23  26
ENDBRANCH   3  20
TORSDOF 5
