REMARK  Name = ZINC16766089
REMARK  7 active torsions:
REMARK  status: ('A' for Active; 'I' for Inactive)
REMARK    1  A    between atoms: C_1  and  C_2
REMARK    2  A    between atoms: C_2  and  C_4
REMARK    3  A    between atoms: C_2  and  O_15
REMARK    4  A    between atoms: N_6  and  C_7
REMARK    5  A    between atoms: O_15  and  C_16
REMARK    6  A    between atoms: C_16  and  C_18
REMARK    7  A    between atoms: C_20  and  N_26
REMARK                            x       y       z     vdW  Elec       q    Type
REMARK                         _______ _______ _______ _____ _____    ______ ____
ROOT
ATOM      1  O   UNL     1      -3.432  -2.485  -0.307  0.00  0.00    -0.448 OA
ENDROOT
BRANCH   1   3
ATOM      2  C   UNL     1      -4.564  -0.803   1.042  0.00  0.00    +0.062 C 
ATOM      3  C   UNL     1      -3.711  -1.065  -0.201  0.00  0.00    +0.259 C 
BRANCH   3   4
ATOM      4  C   UNL     1      -2.415  -0.304  -0.090  0.00  0.00    +0.258 C 
ATOM      5  O   UNL     1      -1.359  -0.902  -0.098  0.00  0.00    -0.271 OA
ATOM      6  N   UNL     1      -2.428   1.039   0.019  0.00  0.00    -0.280 N 
ATOM      7  H   UNL     1      -3.385   1.573   0.118  0.00  0.00    +0.155 HD
BRANCH   6   8
ATOM      8  C   UNL     1      -1.224   1.755   0.006  0.00  0.00    +0.069 A 
ATOM      9  C   UNL     1      -0.102   1.217  -0.610  0.00  0.00    +0.027 A 
ATOM     10  C   UNL     1       1.082   1.928  -0.626  0.00  0.00    +0.017 A 
ATOM     11  C   UNL     1       1.154   3.172  -0.025  0.00  0.00    +0.021 A 
ATOM     12  C   UNL     1       0.040   3.709   0.595  0.00  0.00    +0.055 A 
ATOM     13  C   UNL     1      -1.149   3.003   0.615  0.00  0.00    +0.146 A 
ATOM     14  F   UNL     1      -2.237   3.527   1.220  0.00  0.00    -0.204 F 
ATOM     15 BR   UNL     1       2.778   4.140  -0.050  0.00  0.00    -0.050 Br
ENDBRANCH   6   8
ENDBRANCH   3   4
ENDBRANCH   1   3
BRANCH   1  16
ATOM     16  C   UNL     1      -4.311  -3.232  -1.004  0.00  0.00    +0.360 C 
ATOM     17  O   UNL     1      -5.283  -2.709  -1.510  0.00  0.00    -0.243 OA
BRANCH  16  18
ATOM     18  C   UNL     1      -4.091  -4.687  -1.153  0.00  0.00    +0.169 A 
ATOM     19  C   UNL     1      -5.006  -5.452  -1.870  0.00  0.00    +0.095 A 
ATOM     20  C   UNL     1      -4.780  -6.823  -2.006  0.00  0.00    +0.067 A 
ATOM     21  C   UNL     1      -3.648  -7.370  -1.406  0.00  0.00    +0.100 A 
ATOM     22  C   UNL     1      -2.787  -6.543  -0.703  0.00  0.00    +0.150 A 
ATOM     23  N   UNL     1      -3.023  -5.252  -0.596  0.00  0.00    -0.226 NA
ATOM     24 CL   UNL     1      -1.375  -7.218   0.048  0.00  0.00    -0.060 Cl
ATOM     25 CL   UNL     1      -3.321  -9.070  -1.536  0.00  0.00    -0.078 Cl
ATOM     26 CL   UNL     1      -6.402  -4.713  -2.589  0.00  0.00    -0.079 Cl
BRANCH  20  27
ATOM     27  N   UNL     1      -5.668  -7.625  -2.720  0.00  0.00    -0.356 N 
ATOM     28  H   UNL     1      -5.477  -8.704  -2.820  0.00  0.00    +0.142 HD
ATOM     29  H   UNL     1      -6.560  -7.179  -3.185  0.00  0.00    +0.142 HD
ENDBRANCH  20  27
ENDBRANCH  16  18
ENDBRANCH   1  16
TORSDOF 6
