REMARK  Name = ZINC21306121
REMARK  10 active torsions:
REMARK  status: ('A' for Active; 'I' for Inactive)
REMARK    1  A    between atoms: C_1  and  C_2
REMARK    2  A    between atoms: C_5  and  O_9
REMARK    3  A    between atoms: C_7  and  C_8
REMARK    4  A    between atoms: O_9  and  C_10
REMARK    5  A    between atoms: C_10  and  C_12
REMARK    6  A    between atoms: C_10  and  C_13
REMARK    7  A    between atoms: N_15  and  C_16
REMARK    8  A    between atoms: C_19  and  S_22
REMARK    9  A    between atoms: S_22  and  N_25
REMARK   10  A    between atoms: N_25  and  C_26
REMARK                            x       y       z     vdW  Elec       q    Type
REMARK                         _______ _______ _______ _____ _____    ______ ____
ROOT
ATOM      1  C   UNL     1      -1.819  -2.861   2.128  0.00  0.00    +0.034 A 
ATOM      2  C   UNL     1      -1.940  -4.040   2.852  0.00  0.00    +0.025 A 
ATOM      3  C   UNL     1      -3.155  -4.383   3.413  0.00  0.00    +0.030 A 
ATOM      4  C   UNL     1      -4.252  -3.558   3.245  0.00  0.00    +0.109 A 
ATOM      5  C   UNL     1      -4.137  -2.387   2.521  0.00  0.00    +0.030 A 
ATOM      6  C   UNL     1      -2.923  -2.035   1.962  0.00  0.00    +0.025 A 
ENDROOT
BRANCH   1   9
ATOM      7  C   UNL     1      -0.230  -1.211   1.485  0.00  0.00    +0.258 C 
ATOM      8  O   UNL     1      -0.928  -0.357   1.990  0.00  0.00    -0.271 OA
ATOM      9  N   UNL     1      -0.588  -2.508   1.564  0.00  0.00    -0.282 N 
ATOM     10  H   UNL     1       0.087  -3.289   1.184  0.00  0.00    +0.155 HD
BRANCH   7  11
ATOM     11  C   UNL     1       1.038  -0.821   0.770  0.00  0.00    +0.256 C 
ATOM     12  C   UNL     1       0.909  -1.160  -0.717  0.00  0.00    +0.062 C 
BRANCH  11  13
ATOM     13  O   UNL     1       1.258   0.582   0.922  0.00  0.00    -0.480 OA
BRANCH  13  18
ATOM     14  C   UNL     1       6.592   2.375   0.665  0.00  0.00    +0.044 C 
ATOM     15  C   UNL     1       5.165   1.895   0.734  0.00  0.00    -0.047 A 
ATOM     16  C   UNL     1       4.152   2.784   1.047  0.00  0.00    +0.007 A 
ATOM     17  C   UNL     1       2.843   2.346   1.111  0.00  0.00    +0.046 A 
ATOM     18  C   UNL     1       2.545   1.015   0.860  0.00  0.00    +0.122 A 
ATOM     19  C   UNL     1       3.563   0.125   0.551  0.00  0.00    +0.049 A 
ATOM     20  C   UNL     1       4.870   0.568   0.483  0.00  0.00    -0.044 A 
ATOM     21  C   UNL     1       5.976  -0.397   0.143  0.00  0.00    +0.044 C 
ENDBRANCH  13  18
ENDBRANCH  11  13
ENDBRANCH   7  11
ENDBRANCH   1   9
BRANCH   4  22
ATOM     22  S   UNL     1      -5.802  -4.003   3.957  0.00  0.00    +0.072 S 
ATOM     23  O   UNL     1      -5.511  -4.785   5.107  0.00  0.00    -0.150 OA
ATOM     24  O   UNL     1      -6.575  -2.812   4.021  0.00  0.00    -0.150 OA
BRANCH  22  25
ATOM     25  N   UNL     1      -6.565  -5.005   2.882  0.00  0.00    -0.216 N 
ATOM     26  H   UNL     1      -7.513  -4.695   2.418  0.00  0.00    +0.174 HD
BRANCH  25  27
ATOM     27  C   UNL     1      -6.005  -6.245   2.565  0.00  0.00    +0.051 A 
ATOM     28  C   UNL     1      -5.399  -6.439   1.331  0.00  0.00    +0.044 A 
ATOM     29  C   UNL     1      -4.841  -7.665   1.021  0.00  0.00    +0.044 A 
ATOM     30  C   UNL     1      -4.895  -8.702   1.936  0.00  0.00    +0.040 A 
ATOM     31  C   UNL     1      -5.503  -8.513   3.165  0.00  0.00    +0.044 A 
ATOM     32  C   UNL     1      -6.058  -7.287   3.482  0.00  0.00    +0.044 A 
ATOM     33 CL   UNL     1      -5.569  -9.816   4.309  0.00  0.00    -0.083 Cl
ATOM     34 CL   UNL     1      -4.077  -7.907  -0.519  0.00  0.00    -0.083 Cl
ENDBRANCH  25  27
ENDBRANCH  22  25
ENDBRANCH   4  22
TORSDOF 7
