REMARK  Name = ZINC38904804
REMARK  6 active torsions:
REMARK  status: ('A' for Active; 'I' for Inactive)
REMARK    1  A    between atoms: C_3  and  C_8
REMARK    2  A    between atoms: C_10  and  C_13
REMARK    3  A    between atoms: C_13  and  N_14
REMARK    4  A    between atoms: C_18  and  C_21
REMARK    5  A    between atoms: N_23  and  C_24
REMARK    6  A    between atoms: C_27  and  N_30
REMARK                            x       y       z     vdW  Elec       q    Type
REMARK                         _______ _______ _______ _____ _____    ______ ____
ROOT
ATOM      1  N   UNL     1       7.750   2.316  -1.459  0.00  0.00    +0.386 N 
ATOM      2  C   UNL     1       7.188   1.121  -2.100  0.00  0.00    -0.078 C 
ATOM      3  C   UNL     1       7.608   1.082  -3.571  0.00  0.00    -0.018 C 
ATOM      4  C   UNL     1       9.136   1.039  -3.659  0.00  0.00    +0.009 C 
ATOM      5  C   UNL     1       9.714   2.251  -2.923  0.00  0.00    +0.059 C 
ATOM      6  C   UNL     1       9.216   2.247  -1.476  0.00  0.00    -0.065 C 
ATOM      7  H   UNL     1       7.447   3.138  -1.960  0.00  0.00    -0.081 HD
ENDROOT
BRANCH   5   8
ATOM      8  C   UNL     1      11.219   2.179  -2.939  0.00  0.00    +0.218 C 
ATOM      9  O   UNL     1      11.835   2.132  -1.895  0.00  0.00    -0.275 OA
ATOM     10  N   UNL     1      11.881   2.165  -4.113  0.00  0.00    -0.285 N 
ATOM     11  H   UNL     1      11.388   2.137  -4.947  0.00  0.00    +0.155 HD
BRANCH  10  12
ATOM     12  C   UNL     1      13.282   2.192  -4.127  0.00  0.00    +0.034 A 
ATOM     13  C   UNL     1      13.953   2.879  -5.130  0.00  0.00    +0.025 A 
ATOM     14  C   UNL     1      15.333   2.905  -5.145  0.00  0.00    +0.025 A 
ATOM     15  C   UNL     1      16.050   2.244  -4.157  0.00  0.00    +0.036 A 
ATOM     16  C   UNL     1      15.379   1.556  -3.154  0.00  0.00    +0.025 A 
ATOM     17  C   UNL     1      13.999   1.535  -3.136  0.00  0.00    +0.025 A 
BRANCH  15  18
ATOM     18  N   UNL     1      17.451   2.270  -4.172  0.00  0.00    -0.271 N 
ATOM     19  C   UNL     1      18.303   1.507  -3.252  0.00  0.00    +0.114 C 
ATOM     20  C   UNL     1      19.704   1.497  -3.902  0.00  0.00    +0.029 C 
ATOM     21  C   UNL     1      19.660   2.777  -4.768  0.00  0.00    +0.098 C 
ATOM     22  C   UNL     1      18.186   2.992  -5.034  0.00  0.00    +0.220 C 
ATOM     23  O   UNL     1      17.735   3.713  -5.898  0.00  0.00    -0.275 OA
ENDBRANCH  15  18
ENDBRANCH  10  12
ENDBRANCH   5   8
BRANCH   1  24
ATOM     24  C   UNL     1       7.281   2.391  -0.069  0.00  0.00    +0.022 C 
BRANCH  24  27
ATOM     25  C   UNL     1       3.659   2.163  -0.023  0.00  0.00    +0.202 A 
ATOM     26  N   UNL     1       4.896   1.635  -0.034  0.00  0.00    -0.193 NA
ATOM     27  C   UNL     1       5.787   2.585  -0.052  0.00  0.00    +0.211 A 
ATOM     28  O   UNL     1       5.151   3.763  -0.054  0.00  0.00    -0.340 OA
ATOM     29  N   UNL     1       3.762   3.469  -0.040  0.00  0.00    -0.056 NA
BRANCH  25  32
ATOM     30  C   UNL     1      -0.010   1.344   0.021  0.00  0.00    +0.002 A 
ATOM     31  C   UNL     1       1.168   2.064   0.002  0.00  0.00    +0.012 A 
ATOM     32  C   UNL     1       2.390   1.395  -0.002  0.00  0.00    +0.023 A 
ATOM     33  C   UNL     1       2.416   0.002   0.014  0.00  0.00    +0.027 A 
ATOM     34  C   UNL     1       1.232  -0.708   0.033  0.00  0.00    +0.019 A 
ATOM     35  C   UNL     1       0.020  -0.038   0.037  0.00  0.00    +0.015 A 
ATOM     36 BR   UNL     1       1.264  -2.599   0.054  0.00  0.00    -0.050 Br
ENDBRANCH  25  32
ENDBRANCH  24  27
ENDBRANCH   1  24
TORSDOF 6
