REMARK  Name = ZINC32535207
REMARK  12 active torsions:
REMARK  status: ('A' for Active; 'I' for Inactive)
REMARK    1  A    between atoms: C_1  and  C_2
REMARK    2  A    between atoms: C_11  and  C_12
REMARK    3  A    between atoms: C_15  and  S_16
REMARK    4  A    between atoms: S_16  and  C_17
REMARK    5  A    between atoms: C_17  and  C_19
REMARK    6  A    between atoms: C_17  and  C_20
REMARK    7  A    between atoms: C_25  and  C_34
REMARK    8  A    between atoms: C_26  and  C_28
REMARK    9  A    between atoms: C_28  and  O_30
REMARK   10  A    between atoms: O_30  and  C_31
REMARK   11  A    between atoms: C_31  and  C_32
REMARK   12  A    between atoms: C_31  and  C_33
REMARK                            x       y       z     vdW  Elec       q    Type
REMARK                         _______ _______ _______ _____ _____    ______ ____
ROOT
ATOM      1  C   UNL     1       3.511  -1.574   2.309  0.00  0.00    +0.137 C 
ATOM      2  C   UNL     1       3.858  -2.344   1.034  0.00  0.00    +0.029 C 
ENDROOT
BRANCH   1   3
ATOM      3  C   UNL     1       3.098  -2.545   3.385  0.00  0.00    +0.232 C 
ATOM      4  O   UNL     1       1.923  -2.792   3.561  0.00  0.00    -0.274 OA
ATOM      5  N   UNL     1       4.033  -3.139   4.153  0.00  0.00    -0.264 N 
ATOM      6  C   UNL     1       3.653  -4.031   5.141  0.00  0.00    +0.165 A 
ATOM      7  N   UNL     1       4.418  -4.710   5.981  0.00  0.00    -0.229 NA
ATOM      8  C   UNL     1       3.906  -5.519   6.872  0.00  0.00    +0.062 A 
ATOM      9  C   UNL     1       2.525  -5.657   6.902  0.00  0.00    +0.120 A 
ATOM     10  S   UNL     1       2.055  -4.546   5.583  0.00  0.00    -0.045 S 
ATOM     11  C   UNL     1       4.786  -6.282   7.828  0.00  0.00    +0.067 C 
ATOM     12  H   UNL     1       5.098  -2.916   3.993  0.00  0.00    +0.157 HD
BRANCH   9  13
ATOM     13  C   UNL     1       1.688  -6.482   7.771  0.00  0.00    +0.348 C 
ATOM     14  O   UNL     1       2.200  -7.183   8.622  0.00  0.00    -0.244 OA
BRANCH  13  15
ATOM     15  O   UNL     1       0.346  -6.465   7.628  0.00  0.00    -0.458 OA
BRANCH  15  16
ATOM     16  C   UNL     1      -0.410  -7.296   8.512  0.00  0.00    +0.171 C 
ATOM     17  C   UNL     1      -0.767  -6.507   9.773  0.00  0.00    +0.052 C 
ATOM     18  C   UNL     1      -1.694  -7.747   7.812  0.00  0.00    +0.052 C 
ENDBRANCH  15  16
ENDBRANCH  13  15
ENDBRANCH   9  13
ENDBRANCH   1   3
BRANCH   1  19
ATOM     19  S   UNL     1       2.149  -0.431   1.973  0.00  0.00    -0.073 S 
BRANCH  19  34
ATOM     20  C   UNL     1       0.002  -0.004   0.002  0.00  0.00    +0.046 C 
ATOM     21  C   UNL     1      -0.018   1.502   0.010  0.00  0.00    -0.026 A 
ATOM     22  C   UNL     1      -1.256   2.123   0.072  0.00  0.00    +0.005 A 
ATOM     23  C   UNL     1      -1.362   3.500   0.019  0.00  0.00    +0.001 A 
ATOM     24  C   UNL     1      -0.232   4.265  -0.172  0.00  0.00    +0.010 A 
ATOM     25  C   UNL     1       1.019   3.649  -0.245  0.00  0.00    +0.002 A 
ATOM     26  C   UNL     1       1.138   2.260   0.003  0.00  0.00    +0.061 A 
ATOM     27  N   UNL     1       2.405   1.740   0.200  0.00  0.00    -0.270 N 
ATOM     28  C   UNL     1       3.509   2.437  -0.255  0.00  0.00    +0.162 A 
ATOM     29  C   UNL     1       3.406   3.785  -0.662  0.00  0.00    +0.052 A 
ATOM     30  C   UNL     1       2.212   4.417  -0.611  0.00  0.00    -0.038 A 
ATOM     31  C   UNL     1       2.122   5.878  -0.969  0.00  0.00    +0.044 C 
ATOM     32  N   UNL     1       4.547   1.625  -0.166  0.00  0.00    -0.129 NA
ATOM     33  N   UNL     1       4.203   0.568   0.469  0.00  0.00    -0.122 NA
ATOM     34  C   UNL     1       2.935   0.652   0.826  0.00  0.00    +0.197 A 
ENDBRANCH  19  34
ENDBRANCH   1  19
TORSDOF 6
