REMARK  Name = ZINC63985177
REMARK  8 active torsions:
REMARK  status: ('A' for Active; 'I' for Inactive)
REMARK    1  A    between atoms: C_7  and  C_10
REMARK    2  A    between atoms: C_10  and  C_11
REMARK    3  A    between atoms: C_11  and  C_13
REMARK    4  A    between atoms: C_11  and  N_31
REMARK    5  A    between atoms: C_17  and  S_20
REMARK    6  A    between atoms: S_20  and  C_21
REMARK    7  A    between atoms: C_21  and  C_22
REMARK    8  A    between atoms: C_22  and  C_24
REMARK                            x       y       z     vdW  Elec       q    Type
REMARK                         _______ _______ _______ _____ _____    ______ ____
ROOT
ATOM      1  C   UNL     1      -0.398  -4.923  -1.452  0.00  0.00    +0.188 C 
ATOM      2  N   UNL     1      -0.605  -5.418  -2.838  0.00  0.00    -0.228 NA
ATOM      3  N   UNL     1      -0.876  -6.850  -2.623  0.00  0.00    -0.218 NA
ATOM      4  C   UNL     1       0.009  -7.207  -1.491  0.00  0.00    +0.263 C 
ATOM      5  O   UNL     1       0.297  -5.990  -0.782  0.00  0.00    -0.334 OA
ATOM      6  H   UNL     1      -1.394  -4.962  -3.271  0.00  0.00    +0.143 HD
ATOM      7  H   UNL     1      -1.845  -7.003  -2.387  0.00  0.00    +0.144 HD
ENDROOT
BRANCH   1   8
ATOM      8  C   UNL     1       0.457  -3.653  -1.462  0.00  0.00    -0.025 C 
BRANCH   8   9
ATOM      9  N   UNL     1      -0.240  -2.600  -2.212  0.00  0.00    +0.383 N 
ATOM     10  H   UNL     1      -0.394  -2.909  -3.160  0.00  0.00    -0.089 HD
ATOM     11  H   UNL     1      -1.127  -2.405  -1.773  0.00  0.00    -0.089 HD
ATOM     12  H   UNL     1       0.323  -1.763  -2.218  0.00  0.00    -0.089 HD
ENDBRANCH   8   9
BRANCH   8  13
ATOM     13  C   UNL     1       0.691  -3.186  -0.024  0.00  0.00    +0.021 C 
BRANCH  13  20
ATOM     14  C   UNL     1      -0.016   1.348   0.009  0.00  0.00    +0.001 A 
ATOM     15  C   UNL     1       1.166   2.101   0.002  0.00  0.00    +0.002 A 
ATOM     16  C   UNL     1       2.391   1.535  -0.013  0.00  0.00    +0.026 A 
ATOM     17  C   UNL     1       2.529   0.120  -0.022  0.00  0.00    +0.043 A 
ATOM     18  N   UNL     1       3.587  -0.654  -0.037  0.00  0.00    -0.380 N 
ATOM     19  C   UNL     1       3.143  -2.053  -0.041  0.00  0.00    +0.144 C 
ATOM     20  C   UNL     1       1.631  -2.008  -0.025  0.00  0.00    -0.043 C 
ATOM     21  C   UNL     1       1.295  -0.698  -0.014  0.00  0.00    -0.001 A 
ATOM     22  C   UNL     1       0.002  -0.004   0.002  0.00  0.00    +0.010 A 
ATOM     23  H   UNL     1       4.509  -0.353  -0.045  0.00  0.00    +0.160 HD
ENDBRANCH  13  20
ENDBRANCH   8  13
ENDBRANCH   1   8
BRANCH   4  24
ATOM     24  S   UNL     1      -0.834  -8.379  -0.393  0.00  0.00    -0.105 S 
BRANCH  24  25
ATOM     25  C   UNL     1      -2.333  -7.497   0.123  0.00  0.00    +0.152 C 
BRANCH  25  26
ATOM     26  C   UNL     1      -3.136  -8.372   1.051  0.00  0.00    +0.173 C 
ATOM     27  O   UNL     1      -2.736  -9.481   1.337  0.00  0.00    -0.291 OA
BRANCH  26  28
ATOM     28  C   UNL     1      -4.404  -7.880   1.611  0.00  0.00    +0.018 A 
ATOM     29  C   UNL     1      -4.871  -6.604   1.280  0.00  0.00    +0.013 A 
ATOM     30  C   UNL     1      -6.060  -6.150   1.808  0.00  0.00    +0.020 A 
ATOM     31  C   UNL     1      -6.793  -6.955   2.666  0.00  0.00    +0.041 A 
ATOM     32  C   UNL     1      -6.337  -8.220   2.999  0.00  0.00    +0.020 A 
ATOM     33  C   UNL     1      -5.152  -8.690   2.474  0.00  0.00    +0.013 A 
ATOM     34 CL   UNL     1      -8.289  -6.375   3.327  0.00  0.00    -0.084 Cl
ENDBRANCH  26  28
ENDBRANCH  25  26
ENDBRANCH  24  25
ENDBRANCH   4  24
TORSDOF 8
