REMARK  Name = ZINC39431083
REMARK  7 active torsions:
REMARK  status: ('A' for Active; 'I' for Inactive)
REMARK    1  A    between atoms: C_1  and  C_2
REMARK    2  A    between atoms: C_2  and  C_3
REMARK    3  A    between atoms: C_6  and  N_9
REMARK    4  A    between atoms: C_10  and  S_21
REMARK    5  A    between atoms: S_21  and  C_22
REMARK    6  A    between atoms: C_22  and  C_24
REMARK    7  A    between atoms: C_22  and  C_25
REMARK                            x       y       z     vdW  Elec       q    Type
REMARK                         _______ _______ _______ _____ _____    ______ ____
ROOT
ATOM      1  N   UNL     1      -5.348  -1.995   0.081  0.00  0.00    -0.239 N 
ATOM      2  C   UNL     1      -5.963  -2.094  -1.243  0.00  0.00    +0.227 C 
ATOM      3  N   UNL     1      -7.383  -1.731  -1.174  0.00  0.00    -0.316 N 
ATOM      4  C   UNL     1      -8.148  -2.218  -0.119  0.00  0.00    +0.041 A 
ATOM      5  C   UNL     1      -9.508  -2.441  -0.248  0.00  0.00    +0.024 A 
ATOM      6  C   UNL     1     -10.228  -2.916   0.832  0.00  0.00    +0.002 A 
ATOM      7  C   UNL     1      -9.600  -3.169   2.041  0.00  0.00    +0.001 A 
ATOM      8  C   UNL     1      -8.245  -2.957   2.184  0.00  0.00    +0.015 A 
ATOM      9  C   UNL     1      -7.506  -2.483   1.103  0.00  0.00    +0.058 A 
ATOM     10  C   UNL     1      -6.051  -2.267   1.198  0.00  0.00    +0.255 C 
ATOM     11  O   UNL     1      -5.489  -2.331   2.275  0.00  0.00    -0.269 OA
ATOM     12  H   UNL     1      -7.781  -1.162  -1.851  0.00  0.00    +0.149 HD
ENDROOT
BRANCH   1  16
ATOM     13  C   UNL     1      -1.351  -0.867   0.399  0.00  0.00    -0.048 A 
ATOM     14  C   UNL     1      -1.681  -2.083  -0.172  0.00  0.00    +0.005 A 
ATOM     15  C   UNL     1      -3.006  -2.459  -0.279  0.00  0.00    +0.024 A 
ATOM     16  C   UNL     1      -4.006  -1.617   0.188  0.00  0.00    +0.039 A 
ATOM     17  C   UNL     1      -3.670  -0.397   0.762  0.00  0.00    +0.024 A 
ATOM     18  C   UNL     1      -2.344  -0.028   0.870  0.00  0.00    +0.005 A 
BRANCH  13  20
ATOM     19  C   UNL     1       0.661  -0.956   1.846  0.00  0.00    +0.009 C 
ATOM     20  C   UNL     1       0.095  -0.459   0.514  0.00  0.00    +0.032 C 
ENDBRANCH  13  20
ENDBRANCH   1  16
BRANCH   2  21
ATOM     21  S   UNL     1      -5.812  -3.797  -1.850  0.00  0.00    -0.108 S 
BRANCH  21  22
ATOM     22  C   UNL     1      -6.200  -3.669  -3.617  0.00  0.00    +0.112 C 
ATOM     23  C   UNL     1      -5.102  -2.872  -4.324  0.00  0.00    +0.027 C 
BRANCH  22  24
ATOM     24  C   UNL     1      -6.282  -5.051  -4.214  0.00  0.00    +0.123 A 
ATOM     25  N   UNL     1      -6.458  -5.163  -5.557  0.00  0.00    -0.309 N 
ATOM     26  H   UNL     1      -6.527  -4.363  -6.101  0.00  0.00    +0.170 HD
ATOM     27  C   UNL     1      -6.538  -6.381  -6.142  0.00  0.00    +0.259 A 
ATOM     28  O   UNL     1      -6.694  -6.496  -7.343  0.00  0.00    -0.267 OA
ATOM     29  C   UNL     1      -6.427  -7.559  -5.269  0.00  0.00    +0.065 A 
ATOM     30  C   UNL     1      -6.497  -8.857  -5.771  0.00  0.00    +0.015 A 
ATOM     31  C   UNL     1      -6.388  -9.925  -4.909  0.00  0.00    +0.001 A 
ATOM     32  C   UNL     1      -6.210  -9.718  -3.547  0.00  0.00    +0.002 A 
ATOM     33  C   UNL     1      -6.139  -8.444  -3.031  0.00  0.00    +0.028 A 
ATOM     34  C   UNL     1      -6.247  -7.345  -3.885  0.00  0.00    +0.078 A 
ATOM     35  N   UNL     1      -6.177  -6.072  -3.420  0.00  0.00    -0.233 NA
ENDBRANCH  22  24
ENDBRANCH  21  22
ENDBRANCH   2  21
TORSDOF 5
