REMARK  Name = ZINC36692808
REMARK  15 active torsions:
REMARK  status: ('A' for Active; 'I' for Inactive)
REMARK    1  A    between atoms: C_1  and  C_2
REMARK    2  A    between atoms: C_2  and  N_3
REMARK    3  A    between atoms: N_3  and  C_4
REMARK    4  A    between atoms: N_3  and  C_6
REMARK    5  A    between atoms: C_4  and  C_5
REMARK    6  A    between atoms: C_6  and  C_8
REMARK    7  A    between atoms: C_6  and  C_30
REMARK    8  A    between atoms: C_8  and  N_9
REMARK    9  A    between atoms: C_10  and  C_12
REMARK   10  A    between atoms: C_12  and  C_14
REMARK   11  A    between atoms: C_12  and  S_15
REMARK   12  A    between atoms: S_15  and  C_16
REMARK   13  A    between atoms: C_16  and  C_17
REMARK   14  A    between atoms: C_23  and  C_29
REMARK   15  A    between atoms: C_24  and  C_28
REMARK                            x       y       z     vdW  Elec       q    Type
REMARK                         _______ _______ _______ _____ _____    ______ ____
ROOT
ATOM      1  N   UNL     1       0.253  -2.402  -1.931  0.00  0.00    -0.316 N 
ATOM      2  C   UNL     1       0.711  -3.432  -1.191  0.00  0.00    +0.226 C 
ATOM      3  O   UNL     1       1.588  -3.250  -0.374  0.00  0.00    -0.275 OA
ATOM      4  H   UNL     1      -0.497  -2.532  -2.531  0.00  0.00    +0.149 HD
ENDROOT
BRANCH   2   5
ATOM      5  C   UNL     1       0.131  -4.811  -1.380  0.00  0.00    +0.129 C 
ATOM      6  C   UNL     1      -1.219  -4.899  -0.666  0.00  0.00    +0.029 C 
BRANCH   5   7
ATOM      7  S   UNL     1       1.265  -6.043  -0.683  0.00  0.00    -0.141 S 
BRANCH   7   8
ATOM      8  C   UNL     1       0.508  -7.633  -1.121  0.00  0.00    +0.144 C 
BRANCH   8   9
ATOM      9  C   UNL     1       1.361  -8.758  -0.594  0.00  0.00    +0.121 A 
ATOM     10  N   UNL     1       0.981 -10.043  -0.814  0.00  0.00    -0.310 N 
ATOM     11  H   UNL     1       0.165 -10.219  -1.308  0.00  0.00    +0.170 HD
ATOM     12  C   UNL     1       1.714 -11.077  -0.362  0.00  0.00    +0.260 A 
ATOM     13  O   UNL     1       1.360 -12.225  -0.569  0.00  0.00    -0.267 OA
ATOM     14  C   UNL     1       2.918 -10.807   0.367  0.00  0.00    +0.075 A 
ATOM     15  C   UNL     1       3.869 -11.736   0.950  0.00  0.00    -0.026 A 
ATOM     16  C   UNL     1       4.942 -11.255   1.598  0.00  0.00    -0.008 A 
ATOM     17  S   UNL     1       4.746  -9.488   1.466  0.00  0.00    -0.073 S 
ATOM     18  C   UNL     1       3.229  -9.447   0.546  0.00  0.00    +0.116 A 
ATOM     19  N   UNL     1       2.456  -8.480   0.062  0.00  0.00    -0.226 NA
ATOM     20  C   UNL     1       6.048 -12.024   2.274  0.00  0.00    +0.052 C 
ATOM     21  C   UNL     1       3.654 -13.223   0.831  0.00  0.00    +0.045 C 
ENDBRANCH   8   9
ENDBRANCH   7   8
ENDBRANCH   5   7
ENDBRANCH   2   5
BRANCH   1  22
ATOM     22  C   UNL     1       0.890  -1.087  -1.827  0.00  0.00    +0.093 C 
BRANCH  22  23
ATOM     23  C   UNL     1       0.098  -0.071  -2.653  0.00  0.00    -0.020 C 
BRANCH  23  24
ATOM     24  C   UNL     1       0.681   1.304  -2.450  0.00  0.00    -0.059 A 
ATOM     25  C   UNL     1       1.988   1.445  -2.024  0.00  0.00    +0.002 A 
ATOM     26  C   UNL     1       2.523   2.706  -1.838  0.00  0.00    +0.000 A 
ATOM     27  C   UNL     1       1.750   3.827  -2.079  0.00  0.00    +0.000 A 
ATOM     28  C   UNL     1       0.443   3.686  -2.505  0.00  0.00    +0.000 A 
ATOM     29  C   UNL     1      -0.090   2.425  -2.695  0.00  0.00    +0.002 A 
ENDBRANCH  23  24
BRANCH  23  30
ATOM     30  N   UNL     1      -1.306  -0.076  -2.221  0.00  0.00    +0.385 N 
ATOM     31  H   UNL     1      -1.564  -1.007  -1.928  0.00  0.00    -0.081 HD
BRANCH  30  33
ATOM     32  C   UNL     1      -0.524   0.469   0.035  0.00  0.00    -0.017 C 
ATOM     33  C   UNL     1      -1.476   0.856  -1.098  0.00  0.00    -0.081 C 
ENDBRANCH  30  33
BRANCH  30  34
ATOM     34  C   UNL     1      -2.163   0.341  -3.338  0.00  0.00    -0.081 C 
ATOM     35  C   UNL     1      -2.152  -0.740  -4.421  0.00  0.00    -0.017 C 
ENDBRANCH  30  34
ENDBRANCH  23  30
ENDBRANCH  22  23
ENDBRANCH   1  22
TORSDOF 10
