REMARK  Name = ZINC64870763
REMARK  7 active torsions:
REMARK  status: ('A' for Active; 'I' for Inactive)
REMARK    1  A    between atoms: C_1  and  C_2
REMARK    2  A    between atoms: C_7  and  C_8
REMARK    3  A    between atoms: C_11  and  C_15
REMARK    4  A    between atoms: N_25  and  C_28
REMARK    5  A    between atoms: C_28  and  C_29
REMARK    6  A    between atoms: C_29  and  C_30
REMARK    7  A    between atoms: C_29  and  C_31
REMARK                            x       y       z     vdW  Elec       q    Type
REMARK                         _______ _______ _______ _____ _____    ______ ____
ROOT
ATOM      1  C   UNL     1       0.969   0.668   5.649  0.00  0.00    -0.000 A 
ATOM      2  C   UNL     1      -0.294   0.216   5.998  0.00  0.00    +0.008 A 
ATOM      3  C   UNL     1      -0.695   0.214   7.317  0.00  0.00    +0.016 A 
ATOM      4  C   UNL     1       0.180   0.671   8.301  0.00  0.00    +0.063 A 
ATOM      5  C   UNL     1       1.460   1.130   7.946  0.00  0.00    +0.056 A 
ATOM      6  C   UNL     1       1.847   1.119   6.614  0.00  0.00    +0.034 A 
ATOM      7  N   UNL     1       2.310   1.579   8.946  0.00  0.00    -0.307 N 
ATOM      8  H   UNL     1       3.196   1.898   8.716  0.00  0.00    +0.170 HD
ATOM      9  C   UNL     1       1.916   1.575  10.231  0.00  0.00    +0.330 A 
ATOM     10  O   UNL     1       2.691   1.977  11.078  0.00  0.00    -0.246 OA
ATOM     11  N   UNL     1       0.705   1.148  10.620  0.00  0.00    -0.260 N 
ATOM     12  C   UNL     1      -0.198   0.691   9.725  0.00  0.00    +0.264 A 
ATOM     13  O   UNL     1      -1.293   0.304  10.086  0.00  0.00    -0.267 OA
ENDROOT
BRANCH   1  16
ATOM     14  C   UNL     1      -0.080   0.207   2.403  0.00  0.00    +0.181 C 
ATOM     15  N   UNL     1       0.707  -0.432   3.484  0.00  0.00    -0.265 NA
ATOM     16  C   UNL     1       1.390   0.663   4.202  0.00  0.00    +0.242 C 
ATOM     17  O   UNL     1       0.999   1.896   3.570  0.00  0.00    -0.274 OA
ATOM     18  N   UNL     1       0.601   1.513   2.195  0.00  0.00    -0.177 NA
ATOM     19  H   UNL     1       0.109  -0.955   4.106  0.00  0.00    +0.127 HD
ATOM     20  H   UNL     1      -0.032   2.191   1.797  0.00  0.00    +0.156 HD
BRANCH  14  27
ATOM     21  C   UNL     1      -2.084  -1.819   1.926  0.00  0.00    +0.044 C 
ATOM     22  C   UNL     1      -0.986  -1.593   0.918  0.00  0.00    -0.044 A 
ATOM     23  C   UNL     1      -0.941  -2.352  -0.237  0.00  0.00    +0.004 A 
ATOM     24  C   UNL     1       0.066  -2.144  -1.161  0.00  0.00    +0.000 A 
ATOM     25  C   UNL     1       1.027  -1.178  -0.930  0.00  0.00    +0.000 A 
ATOM     26  C   UNL     1       0.982  -0.420   0.224  0.00  0.00    +0.007 A 
ATOM     27  C   UNL     1      -0.028  -0.624   1.147  0.00  0.00    -0.011 A 
ENDBRANCH  14  27
ENDBRANCH   1  16
BRANCH  11  28
ATOM     28  C   UNL     1       0.355   1.177  12.043  0.00  0.00    +0.133 C 
BRANCH  28  29
ATOM     29  C   UNL     1      -0.289   2.523  12.381  0.00  0.00    +0.003 C 
ATOM     30  C   UNL     1      -1.617   2.656  11.635  0.00  0.00    +0.009 C 
ATOM     31  C   UNL     1      -0.540   2.603  13.888  0.00  0.00    +0.009 C 
ENDBRANCH  28  29
ENDBRANCH  11  28
TORSDOF 4
