REMARK  Name = ZINC21263562
REMARK  13 active torsions:
REMARK  status: ('A' for Active; 'I' for Inactive)
REMARK    1  A    between atoms: C_1  and  C_2
REMARK    2  A    between atoms: C_2  and  C_31
REMARK    3  A    between atoms: C_4  and  N_10
REMARK    4  A    between atoms: C_6  and  C_8
REMARK    5  A    between atoms: C_6  and  C_9
REMARK    6  A    between atoms: N_10  and  C_11
REMARK    7  A    between atoms: C_11  and  N_13
REMARK    8  A    between atoms: N_13  and  C_14
REMARK    9  A    between atoms: N_13  and  C_23
REMARK   10  A    between atoms: C_14  and  C_15
REMARK   11  A    between atoms: C_18  and  O_21
REMARK   12  A    between atoms: O_21  and  C_22
REMARK   13  A    between atoms: C_23  and  C_24
REMARK                            x       y       z     vdW  Elec       q    Type
REMARK                         _______ _______ _______ _____ _____    ______ ____
ROOT
ATOM      1  N   UNL     1      -2.927   0.721   1.401  0.00  0.00    -0.304 N 
ENDROOT
BRANCH   1   2
ATOM      2  C   UNL     1      -2.519  -0.400   2.028  0.00  0.00    +0.134 C 
ATOM      3  S   UNL     1      -3.001  -0.702   3.643  0.00  0.00    -0.019 S 
BRANCH   2   4
ATOM      4  N   UNL     1      -1.731  -1.284   1.385  0.00  0.00    -0.324 N 
ATOM      5  H   UNL     1      -1.421  -1.091   0.347  0.00  0.00    +0.148 HD
BRANCH   4   9
ATOM      6  C   UNL     1      -1.680  -5.580   2.349  0.00  0.00    -0.010 C 
ATOM      7  C   UNL     1      -0.489  -4.856   1.709  0.00  0.00    -0.072 C 
ATOM      8  C   UNL     1      -0.974  -3.580   1.027  0.00  0.00    +0.009 C 
ATOM      9  C   UNL     1      -1.286  -2.505   2.068  0.00  0.00    +0.069 C 
ATOM     10  C   UNL     1      -0.010  -2.206   2.854  0.00  0.00    +0.009 C 
ATOM     11  C   UNL     1       0.489  -3.466   3.558  0.00  0.00    -0.072 C 
ATOM     12  N   UNL     1       0.559  -4.614   2.679  0.00  0.00    +0.386 N 
ATOM     13  C   UNL     1      -0.393  -3.754   4.778  0.00  0.00    -0.010 C 
ATOM     14  C   UNL     1       1.912  -3.172   4.082  0.00  0.00    -0.010 C 
ATOM     15  C   UNL     1       0.075  -5.785   0.612  0.00  0.00    -0.010 C 
ATOM     16  H   UNL     1       0.624  -5.469   3.369  0.00  0.00    -0.084 HD
ATOM     17  H   UNL     1       1.519  -4.489   2.158  0.00  0.00    -0.084 HD
ENDBRANCH   4   9
ENDBRANCH   2   4
ENDBRANCH   1   2
BRANCH   1  18
ATOM     18  C   UNL     1      -3.783   1.681   2.101  0.00  0.00    +0.142 C 
BRANCH  18  19
ATOM     19  C   UNL     1      -5.229   1.327   1.869  0.00  0.00    -0.030 A 
ATOM     20  C   UNL     1      -5.908   1.866   0.792  0.00  0.00    +0.009 A 
ATOM     21  C   UNL     1      -7.232   1.539   0.574  0.00  0.00    +0.046 A 
ATOM     22  C   UNL     1      -7.884   0.677   1.444  0.00  0.00    +0.120 A 
ATOM     23  C   UNL     1      -7.203   0.142   2.527  0.00  0.00    +0.046 A 
ATOM     24  C   UNL     1      -5.877   0.468   2.737  0.00  0.00    +0.009 A 
BRANCH  22  25
ATOM     25  O   UNL     1      -9.188   0.357   1.234  0.00  0.00    -0.495 OA
ATOM     26  C   UNL     1      -9.826   0.945   0.099  0.00  0.00    +0.277 C 
ENDBRANCH  22  25
ENDBRANCH  18  19
ENDBRANCH   1  18
BRANCH   1  27
ATOM     27  C   UNL     1      -2.514   0.978   0.019  0.00  0.00    +0.142 C 
BRANCH  27  28
ATOM     28  C   UNL     1      -1.220   1.750   0.017  0.00  0.00    -0.027 A 
ATOM     29  C   UNL     1      -0.013   1.076   0.008  0.00  0.00    +0.005 A 
ATOM     30  C   UNL     1       1.175   1.783   0.000  0.00  0.00    +0.003 A 
ATOM     31  C   UNL     1       1.158   3.165   0.007  0.00  0.00    +0.038 A 
ATOM     32  C   UNL     1      -0.050   3.841   0.023  0.00  0.00    +0.124 A 
ATOM     33  C   UNL     1      -1.240   3.132   0.031  0.00  0.00    +0.043 A 
ATOM     34  F   UNL     1      -0.068   5.192   0.029  0.00  0.00    -0.205 F 
ENDBRANCH  27  28
ENDBRANCH   1  27
TORSDOF 8
