REMARK  Name = ZINC18155502
REMARK  9 active torsions:
REMARK  status: ('A' for Active; 'I' for Inactive)
REMARK    1  A    between atoms: C_1  and  C_2
REMARK    2  A    between atoms: C_2  and  O_3
REMARK    3  A    between atoms: O_3  and  C_4
REMARK    4  A    between atoms: C_5  and  C_13
REMARK    5  A    between atoms: C_9  and  O_10
REMARK    6  A    between atoms: O_10  and  C_11
REMARK    7  A    between atoms: C_13  and  N_14
REMARK    8  A    between atoms: N_14  and  C_15
REMARK    9  A    between atoms: C_24  and  O_27
REMARK                            x       y       z     vdW  Elec       q    Type
REMARK                         _______ _______ _______ _____ _____    ______ ____
ROOT
ATOM      1  N   UNL     1       0.017  -1.820  -2.719  0.00  0.00    +0.386 N 
ATOM      2  H   UNL     1       0.440  -1.170  -2.073  0.00  0.00    -0.085 HD
ATOM      3  H   UNL     1       0.483  -2.712  -2.651  0.00  0.00    -0.085 HD
ENDROOT
BRANCH   1   4
ATOM      4  C   UNL     1       0.145  -1.304  -4.088  0.00  0.00    -0.065 C 
ATOM      5  C   UNL     1      -0.496  -2.289  -5.067  0.00  0.00    -0.009 C 
ATOM      6  C   UNL     1      -0.362  -1.752  -6.493  0.00  0.00    -0.009 C 
ATOM      7  C   UNL     1      -1.069  -0.398  -6.596  0.00  0.00    +0.007 C 
ATOM      8  C   UNL     1      -0.427   0.588  -5.617  0.00  0.00    -0.009 C 
ATOM      9  C   UNL     1      -0.561   0.050  -4.191  0.00  0.00    -0.009 C 
ATOM     10  C   UNL     1       1.054   0.757  -5.962  0.00  0.00    +0.038 C 
ATOM     11  C   UNL     1       1.760  -0.596  -5.859  0.00  0.00    +0.065 C 
ATOM     12  C   UNL     1       1.119  -1.581  -6.837  0.00  0.00    +0.038 C 
ATOM     13  C   UNL     1       1.626  -1.134  -4.432  0.00  0.00    +0.022 C 
BRANCH  11  14
ATOM     14  O   UNL     1       3.143  -0.437  -6.180  0.00  0.00    -0.389 OA
ATOM     15  H   UNL     1       3.304  -0.099  -7.072  0.00  0.00    +0.210 HD
ENDBRANCH  11  14
ENDBRANCH   1   4
BRANCH   1  16
ATOM     16  C   UNL     1      -1.405  -1.983  -2.388  0.00  0.00    -0.042 C 
BRANCH  16  18
ATOM     17  C   UNL     1      -1.369  -1.681   0.099  0.00  0.00    +0.163 A 
ATOM     18  C   UNL     1      -1.536  -2.524  -0.988  0.00  0.00    -0.018 A 
ATOM     19  C   UNL     1      -1.823  -3.862  -0.788  0.00  0.00    +0.025 A 
ATOM     20  C   UNL     1      -1.945  -4.361   0.497  0.00  0.00    +0.045 A 
ATOM     21  C   UNL     1      -1.780  -3.524   1.586  0.00  0.00    +0.069 A 
ATOM     22  C   UNL     1      -1.486  -2.184   1.391  0.00  0.00    +0.163 A 
ATOM     23 CL   UNL     1      -2.307  -6.041   0.742  0.00  0.00    -0.083 Cl
BRANCH  22  24
ATOM     24  O   UNL     1      -1.317  -1.361   2.460  0.00  0.00    -0.491 OA
ATOM     25  C   UNL     1      -1.451  -1.947   3.757  0.00  0.00    +0.277 C 
ENDBRANCH  22  24
BRANCH  17  26
ATOM     26  O   UNL     1      -1.087  -0.365  -0.097  0.00  0.00    -0.488 OA
BRANCH  26  28
ATOM     27  C   UNL     1      -1.669   1.978  -0.201  0.00  0.00    +0.048 C 
ATOM     28  C   UNL     1      -2.189   0.544  -0.083  0.00  0.00    +0.226 C 
ENDBRANCH  26  28
ENDBRANCH  17  26
ENDBRANCH  16  18
ENDBRANCH   1  16
TORSDOF 7
