REMARK  Name = ZINC06322226
REMARK  13 active torsions:
REMARK  status: ('A' for Active; 'I' for Inactive)
REMARK    1  A    between atoms: C_1  and  C_2
REMARK    2  A    between atoms: C_5  and  C_39
REMARK    3  A    between atoms: C_9  and  C_14
REMARK    4  A    between atoms: C_14  and  C_16
REMARK    5  A    between atoms: C_14  and  N_69
REMARK    6  A    between atoms: N_20  and  C_21
REMARK    7  A    between atoms: C_21  and  C_22
REMARK    8  A    between atoms: C_21  and  C_23
REMARK    9  A    between atoms: C_21  and  C_24
REMARK   10  A    between atoms: C_25  and  C_26
REMARK   11  A    between atoms: C_25  and  N_69
REMARK   12  A    between atoms: C_33  and  C_34
REMARK   13  A    between atoms: C_33  and  N_69
REMARK                            x       y       z     vdW  Elec       q    Type
REMARK                         _______ _______ _______ _____ _____    ______ ____
ROOT
ATOM      1  C   UNL     1       1.808   0.683  -0.676  0.00  0.00    +0.040 C 
ENDROOT
BRANCH   1  10
ATOM      2  C   UNL     1      -3.269  -0.109  -1.517  0.00  0.00    +0.044 C 
ATOM      3  C   UNL     1      -3.016   1.369  -1.665  0.00  0.00    -0.041 A 
ATOM      4  C   UNL     1      -4.046   2.215  -1.968  0.00  0.00    +0.004 A 
ATOM      5  C   UNL     1      -3.823   3.577  -2.107  0.00  0.00    +0.005 A 
ATOM      6  C   UNL     1      -2.560   4.104  -1.942  0.00  0.00    -0.026 A 
ATOM      7  C   UNL     1      -1.497   3.263  -1.633  0.00  0.00    +0.052 A 
ATOM      8  C   UNL     1      -1.725   1.881  -1.499  0.00  0.00    +0.002 A 
ATOM      9  C   UNL     1      -0.600   1.004  -1.168  0.00  0.00    +0.018 A 
ATOM     10  C   UNL     1       0.628   1.558  -1.012  0.00  0.00    +0.011 A 
ATOM     11  C   UNL     1       0.805   2.950  -1.164  0.00  0.00    +0.251 A 
ATOM     12  O   UNL     1       1.917   3.426  -1.020  0.00  0.00    -0.268 OA
ATOM     13  N   UNL     1      -0.223   3.763  -1.463  0.00  0.00    -0.322 N 
ATOM     14  H   UNL     1      -0.066   4.715  -1.560  0.00  0.00    +0.169 HD
ATOM     15  C   UNL     1      -2.333   5.586  -2.097  0.00  0.00    +0.046 C 
ENDBRANCH   1  10
BRANCH   1  16
ATOM     16  C   UNL     1       2.325   1.040   0.694  0.00  0.00    +0.143 A 
ATOM     17  N   UNL     1       3.053   2.084   1.008  0.00  0.00    -0.115 NA
ATOM     18  N   UNL     1       3.291   2.037   2.273  0.00  0.00    -0.023 NA
ATOM     19  N   UNL     1       2.733   0.991   2.774  0.00  0.00    -0.043 NA
ATOM     20  N   UNL     1       2.123   0.353   1.833  0.00  0.00    -0.225 N 
BRANCH  20  21
ATOM     21  C   UNL     1       1.358  -0.888   1.977  0.00  0.00    +0.059 C 
ATOM     22  C   UNL     1       2.024  -1.996   1.158  0.00  0.00    +0.036 C 
ATOM     23  C   UNL     1       1.320  -1.296   3.451  0.00  0.00    +0.036 C 
ATOM     24  C   UNL     1      -0.070  -0.668   1.471  0.00  0.00    +0.036 C 
ENDBRANCH  20  21
ENDBRANCH   1  16
BRANCH   1  25
ATOM     25  N   UNL     1       2.883   0.916  -1.664  0.00  0.00    +0.397 N 
ATOM     26  H   UNL     1       3.337   1.813  -1.457  0.00  0.00    -0.079 HD
BRANCH  25  27
ATOM     27  C   UNL     1       3.889  -0.163  -1.580  0.00  0.00    -0.041 C 
BRANCH  27  28
ATOM     28  C   UNL     1       4.910   0.213  -0.536  0.00  0.00    -0.064 A 
ATOM     29  C   UNL     1       5.940   1.077  -0.857  0.00  0.00    +0.003 A 
ATOM     30  C   UNL     1       6.873   1.427   0.101  0.00  0.00    +0.020 A 
ATOM     31  C   UNL     1       6.782   0.902   1.378  0.00  0.00    +0.041 A 
ATOM     32  C   UNL     1       5.754   0.033   1.697  0.00  0.00    +0.020 A 
ATOM     33  C   UNL     1       4.818  -0.311   0.740  0.00  0.00    +0.003 A 
ATOM     34 CL   UNL     1       7.957   1.335   2.581  0.00  0.00    -0.084 Cl
ENDBRANCH  27  28
ENDBRANCH  25  27
BRANCH  25  35
ATOM     35  C   UNL     1       2.313   0.971  -3.027  0.00  0.00    -0.001 C 
BRANCH  35  36
ATOM     36  C   UNL     1       3.364   1.495  -3.971  0.00  0.00    +0.089 A 
ATOM     37  C   UNL     1       4.171   0.747  -4.745  0.00  0.00    +0.042 A 
ATOM     38  C   UNL     1       4.994   1.643  -5.465  0.00  0.00    +0.041 A 
ATOM     39  C   UNL     1       4.642   2.885  -5.088  0.00  0.00    +0.195 A 
ATOM     40  O   UNL     1       3.650   2.790  -4.187  0.00  0.00    -0.470 OA
ENDBRANCH  35  36
ENDBRANCH  25  35
ENDBRANCH   1  25
TORSDOF 8
