REMARK  Name = ZINC02808703
REMARK  8 active torsions:
REMARK  status: ('A' for Active; 'I' for Inactive)
REMARK    1  A    between atoms: C_1  and  C_2
REMARK    2  A    between atoms: C_5  and  C_8
REMARK    3  A    between atoms: C_8  and  N_9
REMARK    4  A    between atoms: C_11  and  N_14
REMARK    5  A    between atoms: C_15  and  C_20
REMARK    6  A    between atoms: C_18  and  S_19
REMARK    7  A    between atoms: N_25  and  S_27
REMARK    8  A    between atoms: S_27  and  C_30
REMARK                            x       y       z     vdW  Elec       q    Type
REMARK                         _______ _______ _______ _____ _____    ______ ____
ROOT
ATOM      1  N   UNL     1       2.544   0.855  -0.012  0.00  0.00    -0.271 N 
ATOM      2  C   UNL     1       1.401   1.608  -0.003  0.00  0.00    +0.143 A 
ATOM      3  N   UNL     1       1.762   2.861   0.001  0.00  0.00    -0.133 NA
ATOM      4  N   UNL     1       3.044   2.951  -0.011  0.00  0.00    -0.122 NA
ATOM      5  C   UNL     1       3.576   1.751  -0.023  0.00  0.00    +0.193 A 
ENDROOT
BRANCH   2   6
ATOM      6  C   UNL     1      -0.013   1.086   0.008  0.00  0.00    +0.073 C 
ATOM      7  C   UNL     1      -0.754   1.593  -1.231  0.00  0.00    +0.014 C 
ATOM      8  C   UNL     1      -2.180   1.036  -1.237  0.00  0.00    +0.018 C 
ATOM      9  C   UNL     1      -2.923   1.530   0.008  0.00  0.00    +0.109 C 
ATOM     10  N   UNL     1      -2.141   1.172   1.199  0.00  0.00    -0.181 NA
ATOM     11  C   UNL     1      -0.731   1.581   1.267  0.00  0.00    +0.120 C 
BRANCH  10  12
ATOM     12  S   UNL     1      -2.834   0.323   2.440  0.00  0.00    +0.029 S 
ATOM     13  O   UNL     1      -3.894  -0.405   1.834  0.00  0.00    -0.158 OA
ATOM     14  O   UNL     1      -1.753  -0.356   3.064  0.00  0.00    -0.158 OA
ATOM     15  C   UNL     1      -3.503   1.589   3.554  0.00  0.00    +0.215 C 
ENDBRANCH  10  12
ENDBRANCH   2   6
BRANCH   1  18
ATOM     16  N   UNL     1       3.061  -2.610   0.590  0.00  0.00    -0.265 N 
ATOM     17  C   UNL     1       3.165  -1.318   0.974  0.00  0.00    +0.135 A 
ATOM     18  C   UNL     1       2.637  -0.551  -0.013  0.00  0.00    +0.088 A 
ATOM     19  C   UNL     1       2.205  -1.407  -1.037  0.00  0.00    +0.160 A 
ATOM     20  N   UNL     1       2.460  -2.638  -0.675  0.00  0.00    -0.177 NA
BRANCH  16  21
ATOM     21  C   UNL     1       3.505  -3.776   1.358  0.00  0.00    +0.178 C 
BRANCH  21  26
ATOM     22  C   UNL     1      -0.901  -7.461   1.988  0.00  0.00    +0.044 C 
ATOM     23  C   UNL     1       0.247  -6.500   1.823  0.00  0.00    -0.050 A 
ATOM     24  C   UNL     1       1.089  -6.609   0.732  0.00  0.00    +0.004 A 
ATOM     25  C   UNL     1       2.143  -5.727   0.582  0.00  0.00    +0.006 A 
ATOM     26  C   UNL     1       2.355  -4.736   1.522  0.00  0.00    -0.026 A 
ATOM     27  C   UNL     1       1.517  -4.631   2.616  0.00  0.00    +0.006 A 
ATOM     28  C   UNL     1       0.460  -5.509   2.764  0.00  0.00    +0.004 A 
ENDBRANCH  21  26
ENDBRANCH  16  21
ENDBRANCH   1  18
BRANCH   5  29
ATOM     29  S   UNL     1       5.296   1.367  -0.042  0.00  0.00    -0.103 S 
ATOM     30  H   UNL     1       5.548   1.306   1.344  0.00  0.00    +0.110 HD
ENDBRANCH   5  29
TORSDOF 6
