REMARK  Name = ZINC40404712
REMARK  9 active torsions:
REMARK  status: ('A' for Active; 'I' for Inactive)
REMARK    1  A    between atoms: C_4  and  C_7
REMARK    2  A    between atoms: C_7  and  C_8
REMARK    3  A    between atoms: C_8  and  C_10
REMARK    4  A    between atoms: C_8  and  O_34
REMARK    5  A    between atoms: C_10  and  N_11
REMARK    6  A    between atoms: N_11  and  C_12
REMARK    7  A    between atoms: N_11  and  C_31
REMARK    8  A    between atoms: C_12  and  C_13
REMARK    9  A    between atoms: C_19  and  C_24
REMARK                            x       y       z     vdW  Elec       q    Type
REMARK                         _______ _______ _______ _____ _____    ______ ____
ROOT
ATOM      1  C   UNL     1       7.410  -3.332   4.042  0.00  0.00    +0.094 A 
ATOM      2  N   UNL     1       8.559  -4.044   4.167  0.00  0.00    -0.312 N 
ATOM      3  H   UNL     1       9.073  -4.260   3.374  0.00  0.00    +0.170 HD
ATOM      4  C   UNL     1       8.998  -4.456   5.371  0.00  0.00    +0.260 A 
ATOM      5  O   UNL     1      10.033  -5.094   5.466  0.00  0.00    -0.267 OA
ATOM      6  C   UNL     1       8.234  -4.133   6.537  0.00  0.00    +0.080 A 
ATOM      7  C   UNL     1       8.497  -4.461   7.933  0.00  0.00    +0.004 A 
ATOM      8  C   UNL     1       7.620  -4.042   8.877  0.00  0.00    +0.056 A 
ATOM      9  S   UNL     1       6.380  -3.176   7.933  0.00  0.00    -0.076 S 
ATOM     10  C   UNL     1       7.061  -3.394   6.309  0.00  0.00    +0.116 A 
ATOM     11  N   UNL     1       6.693  -3.017   5.088  0.00  0.00    -0.229 NA
ENDROOT
BRANCH   7  12
ATOM     12  C   UNL     1       9.701  -5.237   8.312  0.00  0.00    -0.015 A 
ATOM     13  C   UNL     1      10.006  -6.425   7.648  0.00  0.00    +0.008 A 
ATOM     14  C   UNL     1      11.128  -7.144   8.005  0.00  0.00    +0.002 A 
ATOM     15  C   UNL     1      11.950  -6.690   9.020  0.00  0.00    +0.020 A 
ATOM     16  C   UNL     1      11.653  -5.512   9.684  0.00  0.00    +0.042 A 
ATOM     17  C   UNL     1      10.536  -4.781   9.331  0.00  0.00    +0.028 A 
ATOM     18 CL   UNL     1      12.690  -4.950  10.958  0.00  0.00    -0.084 Cl
ENDBRANCH   7  12
BRANCH   1  19
ATOM     19  C   UNL     1       6.957  -2.892   2.674  0.00  0.00    -0.003 C 
BRANCH  19  20
ATOM     20  N   UNL     1       5.702  -2.137   2.793  0.00  0.00    +0.388 N 
ATOM     21  H   UNL     1       5.019  -2.696   3.283  0.00  0.00    -0.081 HD
BRANCH  20  22
ATOM     22  C   UNL     1       5.946  -0.896   3.540  0.00  0.00    -0.068 C 
ATOM     23  C   UNL     1       5.224  -0.723   4.878  0.00  0.00    -0.017 C 
ATOM     24  C   UNL     1       4.786   0.095   3.661  0.00  0.00    -0.017 C 
ENDBRANCH  20  22
BRANCH  20  25
ATOM     25  C   UNL     1       5.197  -1.811   1.452  0.00  0.00    -0.046 C 
BRANCH  25  26
ATOM     26  C   UNL     1       4.803  -3.100   0.729  0.00  0.00    +0.102 C 
BRANCH  26  27
ATOM     27  O   UNL     1       3.774  -3.764   1.466  0.00  0.00    -0.393 OA
ATOM     28  H   UNL     1       2.969  -3.241   1.576  0.00  0.00    +0.210 HD
ENDBRANCH  26  27
BRANCH  26  29
ATOM     29  C   UNL     1       4.289  -2.761  -0.672  0.00  0.00    +0.064 C 
BRANCH  29  33
ATOM     30  C   UNL     1       3.515  -6.373  -2.819  0.00  0.00    +0.000 A 
ATOM     31  C   UNL     1       2.516  -5.793  -2.059  0.00  0.00    +0.000 A 
ATOM     32  C   UNL     1       2.767  -4.624  -1.365  0.00  0.00    +0.004 A 
ATOM     33  C   UNL     1       4.016  -4.036  -1.429  0.00  0.00    -0.045 A 
ATOM     34  C   UNL     1       5.015  -4.617  -2.188  0.00  0.00    +0.004 A 
ATOM     35  C   UNL     1       4.764  -5.784  -2.884  0.00  0.00    +0.000 A 
ENDBRANCH  29  33
ENDBRANCH  26  29
ENDBRANCH  25  26
ENDBRANCH  20  25
ENDBRANCH  19  20
ENDBRANCH   1  19
TORSDOF 9
