REMARK  Name = ZINC64870083
REMARK  7 active torsions:
REMARK  status: ('A' for Active; 'I' for Inactive)
REMARK    1  A    between atoms: C_1  and  C_2
REMARK    2  A    between atoms: C_2  and  O_3
REMARK    3  A    between atoms: O_3  and  C_4
REMARK    4  A    between atoms: C_7  and  C_10
REMARK    5  A    between atoms: C_13  and  C_17
REMARK    6  A    between atoms: N_27  and  C_30
REMARK    7  A    between atoms: C_33  and  C_36
REMARK                            x       y       z     vdW  Elec       q    Type
REMARK                         _______ _______ _______ _____ _____    ______ ____
ROOT
ATOM      1  C   UNL     1       0.187  -7.912  -4.954  0.00  0.00    -0.000 A 
ATOM      2  C   UNL     1       1.415  -7.899  -5.597  0.00  0.00    +0.008 A 
ATOM      3  C   UNL     1       1.717  -8.851  -6.548  0.00  0.00    +0.016 A 
ATOM      4  C   UNL     1       0.777  -9.831  -6.859  0.00  0.00    +0.063 A 
ATOM      5  C   UNL     1      -0.468  -9.845  -6.206  0.00  0.00    +0.056 A 
ATOM      6  C   UNL     1      -0.751  -8.882  -5.250  0.00  0.00    +0.034 A 
ATOM      7  N   UNL     1      -1.384 -10.833  -6.536  0.00  0.00    -0.307 N 
ATOM      8  H   UNL     1      -2.247 -10.855  -6.094  0.00  0.00    +0.170 HD
ATOM      9  C   UNL     1      -1.087 -11.760  -7.463  0.00  0.00    +0.334 A 
ATOM     10  O   UNL     1      -1.918 -12.608  -7.724  0.00  0.00    -0.246 OA
ATOM     11  N   UNL     1       0.087 -11.789  -8.113  0.00  0.00    -0.229 N 
ATOM     12  C   UNL     1       1.048 -10.872  -7.866  0.00  0.00    +0.269 A 
ATOM     13  O   UNL     1       2.108 -10.905  -8.459  0.00  0.00    -0.266 OA
ENDROOT
BRANCH   1  16
ATOM     14  C   UNL     1       1.001  -5.028  -2.935  0.00  0.00    +0.180 C 
ATOM     15  N   UNL     1       0.583  -5.602  -4.232  0.00  0.00    -0.265 NA
ATOM     16  C   UNL     1      -0.125  -6.864  -3.918  0.00  0.00    +0.242 C 
ATOM     17  O   UNL     1       0.387  -7.261  -2.626  0.00  0.00    -0.274 OA
ATOM     18  N   UNL     1       0.527  -5.978  -1.900  0.00  0.00    -0.177 NA
ATOM     19  H   UNL     1      -0.018  -4.965  -4.732  0.00  0.00    +0.127 HD
ATOM     20  H   UNL     1      -0.358  -5.681  -1.516  0.00  0.00    +0.156 HD
BRANCH  14  24
ATOM     21  C   UNL     1      -0.811  -1.200  -2.364  0.00  0.00    +0.121 A 
ATOM     22  C   UNL     1      -0.531  -2.006  -1.270  0.00  0.00    +0.046 A 
ATOM     23  C   UNL     1       0.054  -3.244  -1.457  0.00  0.00    +0.010 A 
ATOM     24  C   UNL     1       0.362  -3.678  -2.733  0.00  0.00    -0.014 A 
ATOM     25  C   UNL     1       0.085  -2.876  -3.825  0.00  0.00    +0.010 A 
ATOM     26  C   UNL     1      -0.506  -1.641  -3.644  0.00  0.00    +0.046 A 
BRANCH  21  27
ATOM     27  O   UNL     1      -1.387   0.017  -2.183  0.00  0.00    -0.492 OA
BRANCH  27  29
ATOM     28  C   UNL     1      -2.314   1.795  -0.833  0.00  0.00    +0.048 C 
ATOM     29  C   UNL     1      -1.672   0.406  -0.837  0.00  0.00    +0.225 C 
ENDBRANCH  27  29
ENDBRANCH  21  27
ENDBRANCH  14  24
ENDBRANCH   1  16
BRANCH  11  30
ATOM     30  C   UNL     1       0.320 -12.789  -9.066  0.00  0.00    +0.054 A 
ATOM     31  C   UNL     1      -0.018 -12.575 -10.396  0.00  0.00    +0.026 A 
ATOM     32  C   UNL     1       0.213 -13.562 -11.334  0.00  0.00    +0.005 A 
ATOM     33  C   UNL     1       0.780 -14.763 -10.949  0.00  0.00    -0.050 A 
ATOM     34  C   UNL     1       1.118 -14.980  -9.626  0.00  0.00    +0.005 A 
ATOM     35  C   UNL     1       0.894 -13.994  -8.685  0.00  0.00    +0.026 A 
ATOM     36  C   UNL     1       1.031 -15.839 -11.975  0.00  0.00    +0.044 C 
ENDBRANCH  11  30
TORSDOF 5
