REMARK  Name = ZINC49369565
REMARK  10 active torsions:
REMARK  status: ('A' for Active; 'I' for Inactive)
REMARK    1  A    between atoms: C_1  and  C_2
REMARK    2  A    between atoms: C_2  and  C_3
REMARK    3  A    between atoms: C_3  and  C_4
REMARK    4  A    between atoms: C_4  and  C_5
REMARK    5  A    between atoms: C_16  and  S_18
REMARK    6  A    between atoms: S_18  and  C_19
REMARK    7  A    between atoms: C_19  and  C_20
REMARK    8  A    between atoms: N_22  and  C_23
REMARK    9  A    between atoms: C_23  and  C_24
REMARK   10  A    between atoms: C_23  and  C_25
REMARK                            x       y       z     vdW  Elec       q    Type
REMARK                         _______ _______ _______ _____ _____    ______ ____
ROOT
ATOM      1  C   UNL     1       1.492  -2.540   2.454  0.00  0.00    +0.216 C 
ATOM      2  O   UNL     1       1.950  -1.750   3.252  0.00  0.00    -0.276 OA
ATOM      3  N   UNL     1       1.635  -3.864   2.659  0.00  0.00    -0.298 N 
ATOM      4  C   UNL     1       1.091  -4.833   1.697  0.00  0.00    +0.126 C 
ATOM      5  C   UNL     1       2.224  -5.761   1.241  0.00  0.00    +0.126 C 
ATOM      6  N   UNL     1       2.927  -6.262   2.430  0.00  0.00    -0.305 N 
ATOM      7  C   UNL     1       3.472  -5.293   3.392  0.00  0.00    +0.126 C 
ATOM      8  C   UNL     1       2.343  -4.365   3.845  0.00  0.00    +0.126 C 
ATOM      9  C   UNL     1       3.075  -7.628   2.641  0.00  0.00    +0.185 A 
ATOM     10  N   UNL     1       2.666  -8.637   1.898  0.00  0.00    -0.125 NA
ATOM     11  N   UNL     1       2.921  -9.929   2.297  0.00  0.00    -0.133 NA
ATOM     12  C   UNL     1       3.574 -10.152   3.422  0.00  0.00    +0.160 A 
ATOM     13  S   UNL     1       3.877  -8.485   3.988  0.00  0.00    -0.024 S 
ENDROOT
BRANCH   1  14
ATOM     14  C   UNL     1       0.763  -2.041   1.233  0.00  0.00    +0.096 C 
BRANCH  14  15
ATOM     15  C   UNL     1       0.742  -0.511   1.242  0.00  0.00    +0.009 C 
BRANCH  15  17
ATOM     16  C   UNL     1      -0.019   1.526   0.010  0.00  0.00    +0.004 C 
ATOM     17  C   UNL     1       0.002  -0.004   0.002  0.00  0.00    -0.003 C 
ENDBRANCH  15  17
ENDBRANCH  14  15
ENDBRANCH   1  14
BRANCH  12  18
ATOM     18  S   UNL     1       4.030 -11.683   4.163  0.00  0.00    -0.088 S 
BRANCH  18  19
ATOM     19  C   UNL     1       3.392 -12.934   3.015  0.00  0.00    +0.172 C 
BRANCH  19  20
ATOM     20  C   UNL     1       3.719 -14.309   3.538  0.00  0.00    +0.223 C 
ATOM     21  O   UNL     1       4.323 -14.433   4.582  0.00  0.00    -0.275 OA
ATOM     22  N   UNL     1       3.340 -15.401   2.845  0.00  0.00    -0.312 N 
ATOM     23  H   UNL     1       2.856 -15.302   2.010  0.00  0.00    +0.149 HD
BRANCH  22  24
ATOM     24  C   UNL     1       3.658 -16.738   3.353  0.00  0.00    +0.067 C 
ATOM     25  C   UNL     1       2.652 -17.748   2.797  0.00  0.00    +0.027 C 
ATOM     26  C   UNL     1       5.070 -17.129   2.912  0.00  0.00    +0.027 C 
ENDBRANCH  22  24
ENDBRANCH  19  20
ENDBRANCH  18  19
ENDBRANCH  12  18
TORSDOF 7
