REMARK  Name = ZINC06998787
REMARK  9 active torsions:
REMARK  status: ('A' for Active; 'I' for Inactive)
REMARK    1  A    between atoms: C_1  and  C_2
REMARK    2  A    between atoms: C_2  and  C_3
REMARK    3  A    between atoms: C_2  and  C_4
REMARK    4  A    between atoms: C_7  and  N_10
REMARK    5  A    between atoms: C_11  and  C_13
REMARK    6  A    between atoms: C_13  and  N_14
REMARK    7  A    between atoms: C_15  and  N_29
REMARK    8  A    between atoms: C_16  and  C_19
REMARK    9  A    between atoms: N_21  and  C_22
REMARK                            x       y       z     vdW  Elec       q    Type
REMARK                         _______ _______ _______ _____ _____    ______ ____
ROOT
ATOM      1  N   UNL     1       3.759   5.940   0.262  0.00  0.00    -0.222 N 
ATOM      2  C   UNL     1       4.587   6.247  -0.765  0.00  0.00    +0.148 A 
ATOM      3  C   UNL     1       5.727   6.802  -0.197  0.00  0.00    +0.188 A 
ATOM      4  N   UNL     1       5.562   6.817   1.139  0.00  0.00    -0.123 NA
ATOM      5  N   UNL     1       4.413   6.322   1.441  0.00  0.00    -0.063 NA
ENDROOT
BRANCH   3   6
ATOM      6  C   UNL     1       6.905   7.287  -0.926  0.00  0.00    +0.272 C 
ATOM      7  O   UNL     1       6.939   7.221  -2.140  0.00  0.00    -0.268 OA
ATOM      8  N   UNL     1       7.949   7.806  -0.249  0.00  0.00    -0.280 N 
ATOM      9  H   UNL     1       7.955   7.791   0.720  0.00  0.00    +0.155 HD
BRANCH   8  10
ATOM     10  C   UNL     1       9.025   8.366  -0.947  0.00  0.00    +0.034 A 
ATOM     11  C   UNL     1      10.311   8.278  -0.429  0.00  0.00    +0.025 A 
ATOM     12  C   UNL     1      11.372   8.827  -1.122  0.00  0.00    +0.022 A 
ATOM     13  C   UNL     1      11.154   9.474  -2.325  0.00  0.00    +0.041 A 
ATOM     14  C   UNL     1       9.873   9.568  -2.841  0.00  0.00    +0.022 A 
ATOM     15  C   UNL     1       8.809   9.016  -2.155  0.00  0.00    +0.025 A 
ATOM     16 CL   UNL     1      12.489  10.169  -3.190  0.00  0.00    -0.084 Cl
ENDBRANCH   8  10
ENDBRANCH   3   6
BRANCH   2  17
ATOM     17  N   UNL     1       4.346   6.048  -2.109  0.00  0.00    -0.341 N 
ATOM     18  H   UNL     1       3.511   5.649  -2.398  0.00  0.00    +0.144 HD
ATOM     19  H   UNL     1       5.013   6.307  -2.764  0.00  0.00    +0.144 HD
ENDBRANCH   2  17
BRANCH   1  20
ATOM     20  C   UNL     1       2.431   5.331   0.159  0.00  0.00    +0.243 C 
BRANCH  20  22
ATOM     21  N   UNL     1       1.461   3.056   0.132  0.00  0.00    -0.284 N 
ATOM     22  C   UNL     1       2.561   3.831   0.210  0.00  0.00    +0.239 C 
ATOM     23  O   UNL     1       3.656   3.320   0.321  0.00  0.00    -0.273 OA
ATOM     24  H   UNL     1       0.594   3.459  -0.032  0.00  0.00    +0.155 HD
BRANCH  21  28
ATOM     25  C   UNL     1       1.784  -1.072   0.593  0.00  0.00    -0.045 A 
ATOM     26  C   UNL     1       2.632  -0.232   1.290  0.00  0.00    +0.006 A 
ATOM     27  C   UNL     1       2.528   1.137   1.139  0.00  0.00    +0.023 A 
ATOM     28  C   UNL     1       1.570   1.669   0.286  0.00  0.00    +0.033 A 
ATOM     29  C   UNL     1       0.720   0.822  -0.413  0.00  0.00    +0.023 A 
ATOM     30  C   UNL     1       0.830  -0.546  -0.258  0.00  0.00    +0.006 A 
BRANCH  25  32
ATOM     31  C   UNL     1       0.581  -3.124   1.294  0.00  0.00    +0.012 C 
ATOM     32  C   UNL     1       1.901  -2.565   0.760  0.00  0.00    +0.013 C 
ATOM     33  C   UNL     1       2.216  -3.207  -0.593  0.00  0.00    +0.012 C 
ENDBRANCH  25  32
ENDBRANCH  21  28
ENDBRANCH  20  22
ENDBRANCH   1  20
TORSDOF 7
