REMARK  Name = ZINC59488198
REMARK  7 active torsions:
REMARK  status: ('A' for Active; 'I' for Inactive)
REMARK    1  A    between atoms: C_1  and  C_2
REMARK    2  A    between atoms: C_2  and  C_4
REMARK    3  A    between atoms: C_2  and  S_12
REMARK    4  A    between atoms: S_12  and  C_13
REMARK    5  A    between atoms: C_18  and  N_22
REMARK    6  A    between atoms: C_23  and  C_24
REMARK    7  A    between atoms: C_29  and  O_30
REMARK                            x       y       z     vdW  Elec       q    Type
REMARK                         _______ _______ _______ _____ _____    ______ ____
ROOT
ATOM      1  C   UNL     1      -2.365  -0.093  -1.525  0.00  0.00    +0.136 A 
ATOM      2  N   UNL     1      -1.780   0.597  -2.479  0.00  0.00    -0.233 NA
ATOM      3  C   UNL     1      -2.417   0.944  -3.619  0.00  0.00    +0.080 A 
ATOM      4  C   UNL     1      -1.903   1.680  -4.713  0.00  0.00    +0.031 A 
ATOM      5  C   UNL     1      -2.673   1.952  -5.798  0.00  0.00    +0.030 A 
ATOM      6  C   UNL     1      -4.002   1.516  -5.878  0.00  0.00    +0.065 A 
ATOM      7  C   UNL     1      -4.542   0.786  -4.814  0.00  0.00    +0.045 A 
ATOM      8  C   UNL     1      -3.761   0.515  -3.723  0.00  0.00    +0.042 A 
ATOM      9  S   UNL     1      -4.002  -0.353  -2.192  0.00  0.00    -0.061 S 
ENDROOT
BRANCH   6  10
ATOM     10  N   UNL     1      -4.761   1.802  -6.980  0.00  0.00    -0.255 NA
ATOM     11  C   UNL     1      -4.747   3.003  -7.487  0.00  0.00    +0.123 C 
BRANCH  11  12
ATOM     12  C   UNL     1      -5.563   3.310  -8.672  0.00  0.00    +0.037 A 
ATOM     13  C   UNL     1      -5.546   4.595  -9.223  0.00  0.00    +0.033 A 
ATOM     14  C   UNL     1      -6.313   4.876 -10.335  0.00  0.00    +0.043 A 
ATOM     15  C   UNL     1      -7.101   3.890 -10.908  0.00  0.00    +0.043 A 
ATOM     16  C   UNL     1      -7.126   2.615 -10.372  0.00  0.00    +0.084 A 
ATOM     17  C   UNL     1      -6.357   2.314  -9.259  0.00  0.00    +0.144 A 
ATOM     18 CL   UNL     1      -8.117   1.389 -11.100  0.00  0.00    -0.080 Cl
ATOM     19 CL   UNL     1      -6.293   6.471 -11.018  0.00  0.00    -0.083 Cl
BRANCH  17  20
ATOM     20  O   UNL     1      -6.377   1.061  -8.736  0.00  0.00    -0.505 OA
ATOM     21  H   UNL     1      -7.056   0.927  -8.061  0.00  0.00    +0.292 HD
ENDBRANCH  17  20
ENDBRANCH  11  12
ENDBRANCH   6  10
BRANCH   1  22
ATOM     22  S   UNL     1      -1.700  -0.632   0.015  0.00  0.00    -0.086 S 
BRANCH  22  24
ATOM     23  C   UNL     1      -0.019   1.526   0.010  0.00  0.00    +0.029 C 
ATOM     24  C   UNL     1       0.002  -0.004   0.002  0.00  0.00    +0.136 C 
BRANCH  24  25
ATOM     25  C   UNL     1       0.731  -0.503   1.223  0.00  0.00    +0.232 C 
ATOM     26  O   UNL     1       0.105  -0.891   2.187  0.00  0.00    -0.274 OA
ATOM     27  N   UNL     1       2.079  -0.519   1.244  0.00  0.00    -0.264 N 
ATOM     28  C   UNL     1       2.751  -0.979   2.370  0.00  0.00    +0.164 A 
ATOM     29  N   UNL     1       2.244  -1.439   3.494  0.00  0.00    -0.233 NA
ATOM     30  C   UNL     1       3.024  -1.842   4.479  0.00  0.00    +0.120 A 
ATOM     31  C   UNL     1       4.362  -1.760   4.279  0.00  0.00    +0.068 A 
ATOM     32  S   UNL     1       4.411  -1.091   2.624  0.00  0.00    -0.061 S 
ATOM     33  H   UNL     1       2.579  -0.208   0.473  0.00  0.00    +0.157 HD
ENDBRANCH  24  25
ENDBRANCH  22  24
ENDBRANCH   1  22
TORSDOF 6
