REMARK  Name = ZINC34899746
REMARK  10 active torsions:
REMARK  status: ('A' for Active; 'I' for Inactive)
REMARK    1  A    between atoms: C_1  and  C_2
REMARK    2  A    between atoms: C_7  and  C_8
REMARK    3  A    between atoms: N_10  and  C_11
REMARK    4  A    between atoms: C_17  and  N_19
REMARK    5  A    between atoms: C_20  and  C_22
REMARK    6  A    between atoms: C_28  and  C_30
REMARK    7  A    between atoms: C_33  and  C_36
REMARK    8  A    between atoms: C_36  and  C_37
REMARK    9  A    between atoms: C_36  and  C_38
REMARK   10  A    between atoms: C_36  and  C_39
REMARK                            x       y       z     vdW  Elec       q    Type
REMARK                         _______ _______ _______ _____ _____    ______ ____
ROOT
ATOM      1  N   UNL     1      -0.896  -1.357   6.670  0.00  0.00    -0.310 N 
ATOM      2  C   UNL     1      -1.375  -2.555   7.059  0.00  0.00    +0.216 C 
ATOM      3  O   UNL     1      -0.673  -3.310   7.699  0.00  0.00    -0.276 OA
ATOM      4  H   UNL     1      -1.457  -0.753   6.158  0.00  0.00    +0.149 HD
ENDROOT
BRANCH   2   5
ATOM      5  C   UNL     1      -2.782  -2.957   6.700  0.00  0.00    +0.078 C 
ATOM      6  C   UNL     1      -3.768  -1.952   7.299  0.00  0.00    +0.032 C 
ATOM      7  C   UNL     1      -5.195  -2.344   6.903  0.00  0.00    +0.109 C 
ATOM      8  N   UNL     1      -5.432  -3.736   7.308  0.00  0.00    -0.297 N 
ATOM      9  C   UNL     1      -4.490  -4.772   6.863  0.00  0.00    +0.109 C 
ATOM     10  C   UNL     1      -3.071  -4.353   7.259  0.00  0.00    +0.032 C 
ATOM     11  C   UNL     1      -6.493  -4.057   8.075  0.00  0.00    +0.247 C 
ATOM     12  O   UNL     1      -6.625  -5.193   8.487  0.00  0.00    -0.270 OA
BRANCH  11  13
ATOM     13  C   UNL     1      -7.497  -3.026   8.416  0.00  0.00    +0.037 A 
ATOM     14  C   UNL     1      -7.796  -2.011   7.506  0.00  0.00    +0.013 A 
ATOM     15  C   UNL     1      -8.734  -1.053   7.830  0.00  0.00    +0.005 A 
ATOM     16  C   UNL     1      -9.377  -1.096   9.055  0.00  0.00    -0.042 A 
ATOM     17  C   UNL     1      -9.085  -2.099   9.962  0.00  0.00    +0.005 A 
ATOM     18  C   UNL     1      -8.153  -3.067   9.647  0.00  0.00    +0.013 A 
BRANCH  16  19
ATOM     19  C   UNL     1     -10.401  -0.046   9.402  0.00  0.00    -0.013 C 
ATOM     20  C   UNL     1     -11.540  -0.087   8.382  0.00  0.00    +0.015 C 
ATOM     21  C   UNL     1     -10.958  -0.320  10.801  0.00  0.00    +0.015 C 
ATOM     22  C   UNL     1      -9.743   1.335   9.377  0.00  0.00    +0.015 C 
ENDBRANCH  16  19
ENDBRANCH  11  13
ENDBRANCH   2   5
BRANCH   1  28
ATOM     23  C   UNL     1       0.983   0.061   6.007  0.00  0.00    +0.093 C 
ATOM     24  C   UNL     1       2.412   0.470   6.371  0.00  0.00    +0.024 C 
ATOM     25  C   UNL     1       2.425   1.084   7.772  0.00  0.00    +0.002 C 
ATOM     26  C   UNL     1       1.914   0.057   8.784  0.00  0.00    +0.002 C 
ATOM     27  C   UNL     1       0.485  -0.351   8.420  0.00  0.00    +0.024 C 
ATOM     28  C   UNL     1       0.472  -0.966   7.019  0.00  0.00    +0.093 C 
BRANCH  23  31
ATOM     29  C   UNL     1       0.882   0.269   3.581  0.00  0.00    +0.245 C 
ATOM     30  O   UNL     1       0.812   1.474   3.716  0.00  0.00    -0.270 OA
ATOM     31  N   UNL     1       0.970  -0.527   4.665  0.00  0.00    -0.307 N 
ATOM     32  H   UNL     1       1.026  -1.490   4.557  0.00  0.00    +0.149 HD
BRANCH  29  39
ATOM     33  C   UNL     1       0.849   1.997   1.261  0.00  0.00    +0.044 C 
ATOM     34  C   UNL     1       0.853   0.498   1.101  0.00  0.00    -0.038 A 
ATOM     35  C   UNL     1       0.847  -0.062  -0.160  0.00  0.00    +0.004 A 
ATOM     36  C   UNL     1       0.851  -1.438  -0.309  0.00  0.00    +0.000 A 
ATOM     37  C   UNL     1       0.862  -2.260   0.804  0.00  0.00    +0.001 A 
ATOM     38  C   UNL     1       0.868  -1.712   2.070  0.00  0.00    +0.013 A 
ATOM     39  C   UNL     1       0.869  -0.325   2.227  0.00  0.00    +0.040 A 
ENDBRANCH  29  39
ENDBRANCH  23  31
ENDBRANCH   1  28
TORSDOF 6
