REMARK  Name = ZINC48290902
REMARK  6 active torsions:
REMARK  status: ('A' for Active; 'I' for Inactive)
REMARK    1  A    between atoms: C_1  and  C_2
REMARK    2  A    between atoms: C_3  and  C_12
REMARK    3  A    between atoms: C_12  and  C_14
REMARK    4  A    between atoms: C_14  and  C_26
REMARK    5  A    between atoms: C_15  and  C_16
REMARK    6  A    between atoms: C_18  and  N_23
REMARK                            x       y       z     vdW  Elec       q    Type
REMARK                         _______ _______ _______ _____ _____    ______ ____
ROOT
ATOM      1  C   UNL     1       0.309   1.088  -2.950  0.00  0.00    +0.100 C 
ATOM      2  C   UNL     1       1.462   1.526  -3.562  0.00  0.00    +0.032 C 
ENDROOT
BRANCH   2   3
ATOM      3  C   UNL     1       2.471   0.558  -4.002  0.00  0.00    -0.003 A 
ATOM      4  C   UNL     1       2.684  -0.619  -3.273  0.00  0.00    +0.042 A 
ATOM      5  C   UNL     1       3.635  -1.523  -3.694  0.00  0.00    +0.127 A 
ATOM      6  C   UNL     1       4.379  -1.272  -4.835  0.00  0.00    +0.034 A 
ATOM      7  C   UNL     1       4.176  -0.113  -5.562  0.00  0.00    +0.023 A 
ATOM      8  C   UNL     1       3.224   0.802  -5.159  0.00  0.00    +0.048 A 
ATOM      9 CL   UNL     1       2.966   2.252  -6.078  0.00  0.00    -0.083 Cl
BRANCH   5  10
ATOM     10  N   UNL     1       3.862  -2.767  -2.924  0.00  0.00    +0.056 N 
ATOM     11  O   UNL     1       3.214  -2.988  -1.927  0.00  0.00    -0.126 OA
ATOM     12  O   UNL     1       4.696  -3.562  -3.292  0.00  0.00    -0.126 OA
ENDBRANCH   5  10
ENDBRANCH   2   3
BRANCH   1  13
ATOM     13  C   UNL     1       0.028  -0.354  -2.856  0.00  0.00    +0.206 C 
ATOM     14  O   UNL     1      -0.138  -1.009  -3.869  0.00  0.00    -0.286 OA
BRANCH  13  17
ATOM     15  C   UNL     1      -0.809  -3.306  -2.332  0.00  0.00    +0.064 C 
ATOM     16  C   UNL     1      -0.418  -2.293  -1.286  0.00  0.00    +0.025 A 
ATOM     17  C   UNL     1      -0.054  -1.002  -1.540  0.00  0.00    +0.051 A 
ATOM     18  C   UNL     1       0.240  -0.387  -0.233  0.00  0.00    +0.011 A 
ATOM     19  C   UNL     1       0.653   0.881   0.168  0.00  0.00    +0.011 A 
ATOM     20  C   UNL     1       0.845   1.144   1.507  0.00  0.00    +0.001 A 
ATOM     21  C   UNL     1       0.630   0.153   2.453  0.00  0.00    +0.002 A 
ATOM     22  C   UNL     1       0.223  -1.107   2.070  0.00  0.00    +0.026 A 
ATOM     23  C   UNL     1       0.022  -1.391   0.723  0.00  0.00    +0.047 A 
ATOM     24  N   UNL     1      -0.379  -2.526   0.048  0.00  0.00    -0.358 N 
ATOM     25  H   UNL     1      -0.600  -3.372   0.469  0.00  0.00    +0.166 HD
ENDBRANCH  13  17
ENDBRANCH   1  13
BRANCH   1  26
ATOM     26  C   UNL     1      -0.616   2.035  -2.404  0.00  0.00    +0.103 C 
ATOM     27  N   UNL     1      -1.350   2.787  -1.972  0.00  0.00    -0.191 NA
ENDBRANCH   1  26
TORSDOF 5
