REMARK  Name = ZINC40539027
REMARK  7 active torsions:
REMARK  status: ('A' for Active; 'I' for Inactive)
REMARK    1  A    between atoms: C_1  and  C_2
REMARK    2  A    between atoms: C_3  and  C_25
REMARK    3  A    between atoms: C_5  and  C_24
REMARK    4  A    between atoms: C_6  and  C_7
REMARK    5  A    between atoms: N_9  and  C_10
REMARK    6  A    between atoms: C_14  and  C_16
REMARK    7  A    between atoms: C_16  and  C_23
REMARK                            x       y       z     vdW  Elec       q    Type
REMARK                         _______ _______ _______ _____ _____    ______ ____
ROOT
ATOM      1  C   UNL     1       1.263   0.154   4.549  0.00  0.00    +0.034 A 
ATOM      2  C   UNL     1       0.095   0.325   5.281  0.00  0.00    +0.023 A 
ATOM      3  C   UNL     1       0.158   0.779   6.583  0.00  0.00    +0.002 A 
ATOM      4  C   UNL     1       1.383   1.064   7.160  0.00  0.00    +0.006 A 
ATOM      5  C   UNL     1       2.547   0.894   6.434  0.00  0.00    -0.014 A 
ATOM      6  C   UNL     1       2.492   0.435   5.133  0.00  0.00    +0.029 A 
ENDROOT
BRANCH   5   7
ATOM      7  C   UNL     1       3.880   1.206   7.066  0.00  0.00    +0.135 C 
ATOM      8  C   UNL     1       4.535   2.386   6.375  0.00  0.00    +0.248 C 
ATOM      9  O   UNL     1       4.871   2.459   5.213  0.00  0.00    -0.273 OA
ATOM     10  N   UNL     1       4.664   3.336   7.322  0.00  0.00    -0.238 N 
ATOM     11  C   UNL     1       4.188   2.925   8.502  0.00  0.00    +0.307 C 
ATOM     12  O   UNL     1       4.195   3.607   9.508  0.00  0.00    -0.252 OA
ATOM     13  N   UNL     1       3.700   1.673   8.452  0.00  0.00    -0.282 N 
ATOM     14  C   UNL     1       4.793  -0.021   7.025  0.00  0.00    +0.047 C 
ATOM     15  H   UNL     1       5.056   4.210   7.167  0.00  0.00    +0.159 HD
ATOM     16  H   UNL     1       3.306   1.174   9.184  0.00  0.00    +0.152 HD
ENDBRANCH   5   7
BRANCH   1  19
ATOM     17  C   UNL     1       0.180   0.063   2.433  0.00  0.00    +0.252 C 
ATOM     18  O   UNL     1      -0.733   0.727   2.885  0.00  0.00    -0.270 OA
ATOM     19  N   UNL     1       1.203  -0.306   3.230  0.00  0.00    -0.281 N 
ATOM     20  H   UNL     1       1.897  -0.891   2.888  0.00  0.00    +0.155 HD
BRANCH  17  26
ATOM     21  C   UNL     1       1.450   1.730  -0.075  0.00  0.00    +0.048 C 
ATOM     22  C   UNL     1       0.736   0.403  -0.121  0.00  0.00    +0.003 A 
ATOM     23  C   UNL     1       0.493  -0.346  -1.208  0.00  0.00    +0.106 A 
ATOM     24  O   UNL     1      -0.165  -1.456  -0.838  0.00  0.00    -0.464 OA
ATOM     25  C   UNL     1      -0.372  -1.470   0.482  0.00  0.00    +0.115 A 
ATOM     26  C   UNL     1       0.169  -0.337   1.015  0.00  0.00    +0.081 A 
ATOM     27  C   UNL     1      -1.079  -2.556   1.252  0.00  0.00    +0.087 C 
ATOM     28  C   UNL     1       0.894   0.003  -2.618  0.00  0.00    +0.086 C 
ENDBRANCH  17  26
ENDBRANCH   1  19
TORSDOF 3
