REMARK  Name = ZINC06949982
REMARK  7 active torsions:
REMARK  status: ('A' for Active; 'I' for Inactive)
REMARK    1  A    between atoms: C_1  and  C_2
REMARK    2  A    between atoms: C_8  and  N_10
REMARK    3  A    between atoms: C_11  and  C_13
REMARK    4  A    between atoms: C_16  and  C_19
REMARK    5  A    between atoms: C_19  and  N_20
REMARK    6  A    between atoms: N_20  and  S_21
REMARK    7  A    between atoms: S_21  and  C_24
REMARK                            x       y       z     vdW  Elec       q    Type
REMARK                         _______ _______ _______ _____ _____    ______ ____
ROOT
ATOM      1  C   UNL     1       0.033   0.579   4.842  0.00  0.00    +0.075 C 
ATOM      2  C   UNL     1      -1.105  -0.382   5.191  0.00  0.00    +0.013 C 
ATOM      3  C   UNL     1      -1.821   0.111   6.450  0.00  0.00    +0.005 C 
ATOM      4  C   UNL     1      -0.828   0.170   7.612  0.00  0.00    +0.005 C 
ATOM      5  C   UNL     1       0.310   1.131   7.263  0.00  0.00    +0.005 C 
ATOM      6  C   UNL     1       1.026   0.638   6.004  0.00  0.00    +0.013 C 
ENDROOT
BRANCH   1   8
ATOM      7  N   UNL     1       0.056  -0.038   2.447  0.00  0.00    -0.312 N 
ATOM      8  C   UNL     1       0.738   0.093   3.602  0.00  0.00    +0.216 C 
ATOM      9  O   UNL     1       1.919  -0.179   3.644  0.00  0.00    -0.276 OA
ATOM     10  H   UNL     1      -0.888   0.180   2.413  0.00  0.00    +0.149 HD
BRANCH   7  17
ATOM     11  C   UNL     1      -0.019   1.526   0.010  0.00  0.00    +0.009 C 
ATOM     12  C   UNL     1       0.002  -0.004   0.002  0.00  0.00    +0.006 C 
ATOM     13  C   UNL     1      -1.433  -0.534   0.013  0.00  0.00    +0.005 C 
ATOM     14  C   UNL     1      -1.413  -2.063   0.004  0.00  0.00    +0.000 C 
ATOM     15  C   UNL     1      -0.673  -2.570   1.244  0.00  0.00    +0.002 C 
ATOM     16  C   UNL     1       0.763  -2.041   1.233  0.00  0.00    +0.022 C 
ATOM     17  C   UNL     1       0.742  -0.511   1.242  0.00  0.00    +0.076 C 
ENDBRANCH   7  17
ENDBRANCH   1   8
BRANCH   4  18
ATOM     18  C   UNL     1      -1.544   0.663   8.871  0.00  0.00    +0.109 C 
BRANCH  18  19
ATOM     19  N   UNL     1      -0.624   0.606  10.010  0.00  0.00    -0.190 NA
ATOM     20  H   UNL     1       0.198   0.095   9.945  0.00  0.00    +0.148 HD
BRANCH  19  21
ATOM     21  S   UNL     1      -0.988   1.413  11.410  0.00  0.00    +0.058 S 
ATOM     22  O   UNL     1       0.069   1.145  12.320  0.00  0.00    -0.153 OA
ATOM     23  O   UNL     1      -1.353   2.734  11.033  0.00  0.00    -0.153 OA
BRANCH  21  24
ATOM     24  C   UNL     1      -2.434   0.664  12.082  0.00  0.00    +0.105 A 
ATOM     25  C   UNL     1      -3.685   1.131  11.723  0.00  0.00    +0.031 A 
ATOM     26  C   UNL     1      -4.820   0.544  12.249  0.00  0.00    +0.040 A 
ATOM     27  C   UNL     1      -4.704  -0.512  13.137  0.00  0.00    +0.124 A 
ATOM     28  C   UNL     1      -3.451  -0.979  13.496  0.00  0.00    +0.040 A 
ATOM     29  C   UNL     1      -2.318  -0.394  12.964  0.00  0.00    +0.031 A 
ATOM     30  F   UNL     1      -5.813  -1.087  13.652  0.00  0.00    -0.205 F 
ENDBRANCH  21  24
ENDBRANCH  19  21
ENDBRANCH  18  19
ENDBRANCH   4  18
TORSDOF 6
