REMARK  Name = ZINC40959928
REMARK  11 active torsions:
REMARK  status: ('A' for Active; 'I' for Inactive)
REMARK    1  A    between atoms: C_1  and  C_2
REMARK    2  A    between atoms: C_2  and  C_3
REMARK    3  A    between atoms: C_8  and  O_9
REMARK    4  A    between atoms: O_9  and  C_10
REMARK    5  A    between atoms: C_10  and  C_11
REMARK    6  A    between atoms: N_13  and  N_14
REMARK    7  A    between atoms: C_15  and  C_16
REMARK    8  A    between atoms: C_18  and  O_24
REMARK    9  A    between atoms: C_19  and  O_23
REMARK   10  A    between atoms: O_24  and  C_25
REMARK   11  A    between atoms: C_25  and  C_26
REMARK                            x       y       z     vdW  Elec       q    Type
REMARK                         _______ _______ _______ _____ _____    ______ ____
ROOT
ATOM      1  C   UNL     1       4.853  -0.015   1.081  0.00  0.00    +0.270 C 
ATOM      2  O   UNL     1       4.151   0.358   1.998  0.00  0.00    -0.270 OA
ATOM      3  N   UNL     1       6.191  -0.068   1.235  0.00  0.00    -0.204 N 
ATOM      4  H   UNL     1       6.752  -0.366   0.502  0.00  0.00    +0.177 HD
ENDROOT
BRANCH   3   5
ATOM      5  N   UNL     1       6.771   0.308   2.454  0.00  0.00    -0.188 NA
ATOM      6  C   UNL     1       8.060   0.258   2.602  0.00  0.00    +0.138 C 
BRANCH   6   7
ATOM      7  C   UNL     1       8.671   0.653   3.884  0.00  0.00    -0.001 A 
ATOM      8  C   UNL     1      10.058   0.605   4.043  0.00  0.00    +0.059 A 
ATOM      9  C   UNL     1      10.626   0.977   5.247  0.00  0.00    +0.163 A 
ATOM     10  C   UNL     1       9.815   1.399   6.299  0.00  0.00    +0.173 A 
ATOM     11  C   UNL     1       8.438   1.448   6.142  0.00  0.00    +0.063 A 
ATOM     12  C   UNL     1       7.864   1.083   4.941  0.00  0.00    +0.028 A 
ATOM     13 BR   UNL     1       7.344   2.021   7.574  0.00  0.00    -0.046 Br
BRANCH  10  14
ATOM     14  O   UNL     1      10.376   1.764   7.483  0.00  0.00    -0.503 OA
ATOM     15  H   UNL     1      10.600   2.703   7.539  0.00  0.00    +0.292 HD
ENDBRANCH  10  14
BRANCH   9  16
ATOM     16  O   UNL     1      11.976   0.931   5.406  0.00  0.00    -0.489 OA
BRANCH  16  17
ATOM     17  C   UNL     1      12.745   0.488   4.286  0.00  0.00    +0.226 C 
ATOM     18  C   UNL     1      14.231   0.503   4.651  0.00  0.00    +0.048 C 
ENDBRANCH  16  17
ENDBRANCH   9  16
ENDBRANCH   6   7
ENDBRANCH   3   5
BRANCH   1  19
ATOM     19  C   UNL     1       4.229  -0.420  -0.229  0.00  0.00    +0.326 C 
BRANCH  19  20
ATOM     20  O   UNL     1       2.809  -0.278  -0.144  0.00  0.00    -0.482 OA
BRANCH  20  26
ATOM     21  C   UNL     1       0.707  -0.490  -1.238  0.00  0.00    -0.005 A 
ATOM     22  C   UNL     1      -0.022  -0.817  -2.365  0.00  0.00    +0.022 A 
ATOM     23  C   UNL     1       0.625  -1.263  -3.503  0.00  0.00    +0.018 A 
ATOM     24  C   UNL     1       2.003  -1.383  -3.516  0.00  0.00    +0.019 A 
ATOM     25  C   UNL     1       2.736  -1.057  -2.392  0.00  0.00    +0.047 A 
ATOM     26  C   UNL     1       2.090  -0.604  -1.250  0.00  0.00    +0.124 A 
ATOM     27 BR   UNL     1      -0.376  -1.711  -5.044  0.00  0.00    -0.050 Br
BRANCH  21  29
ATOM     28  C   UNL     1      -0.019   1.526   0.010  0.00  0.00    +0.009 C 
ATOM     29  C   UNL     1       0.002  -0.004   0.002  0.00  0.00    +0.035 C 
ENDBRANCH  21  29
ENDBRANCH  20  26
ENDBRANCH  19  20
ENDBRANCH   1  19
TORSDOF 9
