REMARK  Name = ZINC19881240
REMARK  7 active torsions:
REMARK  status: ('A' for Active; 'I' for Inactive)
REMARK    1  A    between atoms: C_4  and  C_7
REMARK    2  A    between atoms: C_10  and  C_12
REMARK    3  A    between atoms: C_12  and  C_14
REMARK    4  A    between atoms: C_12  and  N_27
REMARK    5  A    between atoms: C_14  and  C_16
REMARK    6  A    between atoms: C_14  and  C_18
REMARK    7  A    between atoms: C_28  and  N_29
REMARK                            x       y       z     vdW  Elec       q    Type
REMARK                         _______ _______ _______ _____ _____    ______ ____
ROOT
ATOM      1  C   UNL     1       0.136   3.942   0.022  0.00  0.00    +0.196 C 
ENDROOT
BRANCH   1   2
ATOM      2  N   UNL     1       1.248   2.989   0.006  0.00  0.00    -0.258 N 
ATOM      3  C   UNL     1       1.100   1.628   0.000  0.00  0.00    +0.117 A 
ATOM      4  C   UNL     1       2.502   1.054  -0.009  0.00  0.00    +0.114 A 
ATOM      5  C   UNL     1       3.400   2.273  -0.017  0.00  0.00    +0.266 A 
ATOM      6  O   UNL     1       4.613   2.279  -0.028  0.00  0.00    -0.266 OA
ATOM      7  N   UNL     1       2.593   3.350  -0.004  0.00  0.00    -0.261 N 
ATOM      8  H   UNL     1       2.877   4.412  -0.001  0.00  0.00    +0.190 HD
BRANCH   3   9
ATOM      9  N   UNL     1      -0.011   0.966   0.003  0.00  0.00    -0.343 N 
ATOM     10  H   UNL     1      -0.971   1.503   0.010  0.00  0.00    +0.144 HD
ATOM     11  H   UNL     1       0.004  -0.134  -0.003  0.00  0.00    +0.144 HD
ENDBRANCH   3   9
ENDBRANCH   1   2
BRANCH   1  15
ATOM     12  C   UNL     1       1.065   6.023   2.878  0.00  0.00    +0.135 A 
ATOM     13  C   UNL     1      -0.281   5.981   3.063  0.00  0.00    +0.050 A 
ATOM     14  C   UNL     1      -0.811   5.200   2.016  0.00  0.00    +0.047 A 
ATOM     15  C   UNL     1       0.228   4.802   1.256  0.00  0.00    +0.132 A 
ATOM     16  O   UNL     1       1.360   5.304   1.778  0.00  0.00    -0.457 OA
BRANCH  12  20
ATOM     17  C   UNL     1       3.857   8.069   5.340  0.00  0.00    +0.000 A 
ATOM     18  C   UNL     1       4.300   7.364   4.234  0.00  0.00    +0.001 A 
ATOM     19  C   UNL     1       3.398   6.698   3.430  0.00  0.00    +0.011 A 
ATOM     20  C   UNL     1       2.036   6.735   3.735  0.00  0.00    +0.017 A 
ATOM     21  C   UNL     1       1.595   7.452   4.848  0.00  0.00    +0.011 A 
ATOM     22  C   UNL     1       2.508   8.109   5.647  0.00  0.00    +0.001 A 
ENDBRANCH  12  20
ENDBRANCH   1  15
BRANCH   1  23
ATOM     23  C   UNL     1       0.206   4.829  -1.223  0.00  0.00    +0.179 C 
BRANCH  23  24
ATOM     24  C   UNL     1      -0.010   3.985  -2.453  0.00  0.00    +0.099 A 
ATOM     25  N   UNL     1      -0.946   4.092  -3.353  0.00  0.00    -0.243 NA
ATOM     26  C   UNL     1      -1.028   3.265  -4.416  0.00  0.00    +0.079 A 
ATOM     27  C   UNL     1      -1.974   3.254  -5.465  0.00  0.00    +0.029 A 
ATOM     28  C   UNL     1      -1.894   2.333  -6.463  0.00  0.00    +0.002 A 
ATOM     29  C   UNL     1      -0.889   1.375  -6.491  0.00  0.00    +0.001 A 
ATOM     30  C   UNL     1       0.056   1.352  -5.482  0.00  0.00    +0.017 A 
ATOM     31  C   UNL     1      -0.017   2.279  -4.471  0.00  0.00    +0.039 A 
ATOM     32  S   UNL     1       0.935   2.641  -3.016  0.00  0.00    -0.071 S 
ENDBRANCH  23  24
BRANCH  23  33
ATOM     33  C   UNL     1       1.528   5.471  -1.294  0.00  0.00    +0.075 C 
ATOM     34  N   UNL     1       2.549   5.967  -1.349  0.00  0.00    -0.196 NA
ENDBRANCH  23  33
ENDBRANCH   1  23
TORSDOF 7
