REMARK  Name = ZINC00867203
REMARK  7 active torsions:
REMARK  status: ('A' for Active; 'I' for Inactive)
REMARK    1  A    between atoms: C_1  and  C_2
REMARK    2  A    between atoms: C_3  and  C_19
REMARK    3  A    between atoms: C_4  and  C_10
REMARK    4  A    between atoms: C_13  and  N_16
REMARK    5  A    between atoms: N_21  and  C_22
REMARK    6  A    between atoms: C_27  and  O_28
REMARK    7  A    between atoms: O_28  and  C_29
REMARK                            x       y       z     vdW  Elec       q    Type
REMARK                         _______ _______ _______ _____ _____    ______ ____
ROOT
ATOM      1  C   UNL     1      -4.604   1.914   3.497  0.00  0.00    +0.061 C 
ATOM      2  C   UNL     1      -4.295   1.694   2.038  0.00  0.00    +0.017 C 
ATOM      3  C   UNL     1      -3.219   0.957   1.691  0.00  0.00    +0.056 C 
ATOM      4  C   UNL     1      -2.945   0.761   0.213  0.00  0.00    +0.139 C 
ATOM      5  N   UNL     1      -3.883   1.394  -0.729  0.00  0.00    -0.315 N 
ATOM      6  C   UNL     1      -4.916   2.101  -0.228  0.00  0.00    +0.135 C 
ATOM      7  S   UNL     1      -6.015   2.842  -1.312  0.00  0.00    -0.019 S 
ATOM      8  N   UNL     1      -5.110   2.242   1.089  0.00  0.00    -0.300 N 
ATOM      9  H   UNL     1      -3.760   1.305  -1.687  0.00  0.00    +0.149 HD
ATOM     10  H   UNL     1      -5.872   2.763   1.386  0.00  0.00    +0.154 HD
ENDROOT
BRANCH   4  11
ATOM     11  C   UNL     1      -1.565   1.291  -0.078  0.00  0.00    -0.023 A 
ATOM     12  C   UNL     1      -0.509   0.415  -0.246  0.00  0.00    +0.008 A 
ATOM     13  C   UNL     1       0.756   0.901  -0.518  0.00  0.00    +0.033 A 
ATOM     14  C   UNL     1       0.966   2.264  -0.618  0.00  0.00    +0.126 A 
ATOM     15  C   UNL     1      -0.089   3.140  -0.445  0.00  0.00    +0.033 A 
ATOM     16  C   UNL     1      -1.354   2.654  -0.173  0.00  0.00    +0.008 A 
BRANCH  14  17
ATOM     17  N   UNL     1       2.321   2.785  -0.909  0.00  0.00    +0.056 N 
ATOM     18  O   UNL     1       3.250   2.013  -1.062  0.00  0.00    -0.126 OA
ATOM     19  O   UNL     1       2.506   3.986  -0.997  0.00  0.00    -0.126 OA
ENDBRANCH  14  17
ENDBRANCH   4  11
BRANCH   3  20
ATOM     20  C   UNL     1      -2.374   0.387   2.674  0.00  0.00    +0.248 C 
ATOM     21  O   UNL     1      -2.429  -0.807   2.906  0.00  0.00    -0.270 OA
ATOM     22  N   UNL     1      -1.509   1.166   3.353  0.00  0.00    -0.279 N 
ATOM     23  H   UNL     1      -1.438   2.111   3.143  0.00  0.00    +0.155 HD
BRANCH  22  24
ATOM     24  C   UNL     1      -0.712   0.613   4.363  0.00  0.00    +0.077 A 
ATOM     25  C   UNL     1      -0.374  -0.732   4.324  0.00  0.00    +0.047 A 
ATOM     26  C   UNL     1       0.417  -1.275   5.320  0.00  0.00    +0.043 A 
ATOM     27  C   UNL     1       0.865  -0.482   6.362  0.00  0.00    +0.024 A 
ATOM     28  C   UNL     1       0.527   0.858   6.409  0.00  0.00    +0.049 A 
ATOM     29  C   UNL     1      -0.261   1.410   5.413  0.00  0.00    +0.141 A 
ATOM     30 CL   UNL     1       0.845  -2.957   5.266  0.00  0.00    -0.083 Cl
BRANCH  29  31
ATOM     31  O   UNL     1      -0.593   2.728   5.459  0.00  0.00    -0.493 OA
ATOM     32  C   UNL     1      -0.095   3.484   6.564  0.00  0.00    +0.277 C 
ENDBRANCH  29  31
ENDBRANCH  22  24
ENDBRANCH   3  20
TORSDOF 5
