REMARK  Name = ZINC08451712
REMARK  8 active torsions:
REMARK  status: ('A' for Active; 'I' for Inactive)
REMARK    1  A    between atoms: C_1  and  O_2
REMARK    2  A    between atoms: O_2  and  C_3
REMARK    3  A    between atoms: C_5  and  C_11
REMARK    4  A    between atoms: C_8  and  O_9
REMARK    5  A    between atoms: N_12  and  N_13
REMARK    6  A    between atoms: C_14  and  C_16
REMARK    7  A    between atoms: N_21  and  S_22
REMARK    8  A    between atoms: S_22  and  C_25
REMARK                            x       y       z     vdW  Elec       q    Type
REMARK                         _______ _______ _______ _____ _____    ______ ____
ROOT
ATOM      1  N   UNL     1      -4.170   2.208   2.144  0.00  0.00    -0.206 N 
ATOM      2  C   UNL     1      -3.111   2.607   1.412  0.00  0.00    +0.251 C 
ATOM      3  O   UNL     1      -2.848   3.787   1.319  0.00  0.00    -0.272 OA
ATOM      4  H   UNL     1      -4.380   1.264   2.219  0.00  0.00    +0.177 HD
ENDROOT
BRANCH   2   5
ATOM      5  C   UNL     1      -2.254   1.586   0.708  0.00  0.00    +0.167 C 
ATOM      6  C   UNL     1      -0.930   1.358   1.489  0.00  0.00    +0.031 C 
ATOM      7  C   UNL     1       0.003   0.839   0.364  0.00  0.00    +0.019 C 
ATOM      8  C   UNL     1      -0.458   1.642  -0.871  0.00  0.00    +0.110 C 
ATOM      9  N   UNL     1      -1.833   2.091  -0.611  0.00  0.00    -0.165 NA
BRANCH   9  10
ATOM     10  S   UNL     1      -2.756   3.013  -1.631  0.00  0.00    +0.062 S 
ATOM     11  O   UNL     1      -3.823   3.536  -0.852  0.00  0.00    -0.153 OA
ATOM     12  O   UNL     1      -1.858   3.847  -2.350  0.00  0.00    -0.153 OA
BRANCH  10  13
ATOM     13  C   UNL     1      -3.481   1.920  -2.808  0.00  0.00    +0.106 A 
ATOM     14  C   UNL     1      -2.823   1.645  -3.993  0.00  0.00    +0.030 A 
ATOM     15  C   UNL     1      -3.389   0.784  -4.914  0.00  0.00    +0.022 A 
ATOM     16  C   UNL     1      -4.619   0.206  -4.655  0.00  0.00    +0.041 A 
ATOM     17  C   UNL     1      -5.279   0.485  -3.473  0.00  0.00    +0.022 A 
ATOM     18  C   UNL     1      -4.710   1.343  -2.550  0.00  0.00    +0.030 A 
ATOM     19 CL   UNL     1      -5.332  -0.871  -5.815  0.00  0.00    -0.084 Cl
ENDBRANCH  10  13
ENDBRANCH   9  10
ENDBRANCH   2   5
BRANCH   1  21
ATOM     20  C   UNL     1      -5.986   2.773   3.504  0.00  0.00    +0.138 C 
ATOM     21  N   UNL     1      -4.967   3.157   2.798  0.00  0.00    -0.188 NA
BRANCH  20  24
ATOM     22  C   UNL     1      -8.705   4.300   5.595  0.00  0.00    +0.163 A 
ATOM     23  C   UNL     1      -7.923   3.360   4.952  0.00  0.00    +0.059 A 
ATOM     24  C   UNL     1      -6.825   3.771   4.192  0.00  0.00    -0.001 A 
ATOM     25  C   UNL     1      -6.520   5.131   4.090  0.00  0.00    +0.028 A 
ATOM     26  C   UNL     1      -7.308   6.064   4.732  0.00  0.00    +0.063 A 
ATOM     27  C   UNL     1      -8.399   5.654   5.486  0.00  0.00    +0.173 A 
ATOM     28 BR   UNL     1      -6.899   7.904   4.588  0.00  0.00    -0.046 Br
BRANCH  22  30
ATOM     29  C   UNL     1     -10.030   2.498   6.404  0.00  0.00    +0.277 C 
ATOM     30  O   UNL     1      -9.775   3.902   6.336  0.00  0.00    -0.491 OA
ENDBRANCH  22  30
BRANCH  27  31
ATOM     31  O   UNL     1      -9.170   6.577   6.120  0.00  0.00    -0.503 OA
ATOM     32  H   UNL     1      -8.877   6.785   7.018  0.00  0.00    +0.292 HD
ENDBRANCH  27  31
ENDBRANCH  20  24
ENDBRANCH   1  21
TORSDOF 7
