REMARK  Name = ZINC13498806
REMARK  13 active torsions:
REMARK  status: ('A' for Active; 'I' for Inactive)
REMARK    1  A    between atoms: C_1  and  C_2
REMARK    2  A    between atoms: C_2  and  C_3
REMARK    3  A    between atoms: C_2  and  C_4
REMARK    4  A    between atoms: C_4  and  C_6
REMARK    5  A    between atoms: C_4  and  N_70
REMARK    6  A    between atoms: N_10  and  C_11
REMARK    7  A    between atoms: C_11  and  C_12
REMARK    8  A    between atoms: C_18  and  C_19
REMARK    9  A    between atoms: C_18  and  N_70
REMARK   10  A    between atoms: C_19  and  C_20
REMARK   11  A    between atoms: C_20  and  O_21
REMARK   12  A    between atoms: C_22  and  C_23
REMARK   13  A    between atoms: C_22  and  N_70
REMARK                            x       y       z     vdW  Elec       q    Type
REMARK                         _______ _______ _______ _____ _____    ______ ____
ROOT
ATOM      1  N   UNL     1       1.681   4.903  -0.526  0.00  0.00    +0.389 N 
ATOM      2  H   UNL     1       0.872   4.895   0.106  0.00  0.00    -0.080 HD
ENDROOT
BRANCH   1   3
ATOM      3  C   UNL     1       1.418   5.849  -1.631  0.00  0.00    +0.006 C 
BRANCH   3   4
ATOM      4  C   UNL     1       0.622   7.009  -1.091  0.00  0.00    +0.138 A 
ATOM      5  N   UNL     1       0.884   7.702  -0.009  0.00  0.00    -0.115 NA
ATOM      6  N   UNL     1      -0.025   8.607   0.114  0.00  0.00    -0.023 NA
ATOM      7  N   UNL     1      -0.860   8.509  -0.861  0.00  0.00    -0.044 NA
ATOM      8  N   UNL     1      -0.492   7.539  -1.628  0.00  0.00    -0.228 N 
BRANCH   8   9
ATOM      9  C   UNL     1      -1.164   7.095  -2.853  0.00  0.00    +0.178 C 
BRANCH   9  10
ATOM     10  C   UNL     1      -2.204   6.028  -2.506  0.00  0.00    +0.140 C 
ATOM     11  C   UNL     1      -2.836   5.472  -3.800  0.00  0.00    +0.035 C 
ATOM     12  C   UNL     1      -4.326   5.308  -3.396  0.00  0.00    +0.031 C 
ATOM     13  C   UNL     1      -4.503   6.509  -2.432  0.00  0.00    +0.160 C 
ATOM     14  O   UNL     1      -3.256   6.610  -1.726  0.00  0.00    -0.375 OA
ENDBRANCH   9  10
ENDBRANCH   8   9
ENDBRANCH   3   4
BRANCH   3  16
ATOM     15  C   UNL     1       3.516   5.192  -2.818  0.00  0.00    +0.006 C 
ATOM     16  C   UNL     1       2.733   6.363  -2.219  0.00  0.00    -0.024 C 
ATOM     17  C   UNL     1       2.436   7.390  -3.313  0.00  0.00    +0.006 C 
ENDBRANCH   3  16
ENDBRANCH   1   3
BRANCH   1  18
ATOM     18  C   UNL     1       1.882   3.541  -1.065  0.00  0.00    -0.075 C 
BRANCH  18  19
ATOM     19  C   UNL     1       0.527   2.981  -1.504  0.00  0.00    +0.009 C 
BRANCH  19  20
ATOM     20  C   UNL     1       0.722   1.588  -2.105  0.00  0.00    +0.154 C 
BRANCH  20  21
ATOM     21  O   UNL     1      -0.543   1.065  -2.515  0.00  0.00    -0.395 OA
ATOM     22  H   UNL     1      -0.496   0.182  -2.906  0.00  0.00    +0.209 HD
ENDBRANCH  20  21
ENDBRANCH  19  20
ENDBRANCH  18  19
ENDBRANCH   1  18
BRANCH   1  23
ATOM     23  C   UNL     1       2.877   5.329   0.229  0.00  0.00    -0.037 C 
BRANCH  23  24
ATOM     24  C   UNL     1       2.901   4.600   1.548  0.00  0.00    +0.001 A 
ATOM     25  C   UNL     1       3.630   3.463   1.680  0.00  0.00    +0.017 A 
ATOM     26  C   UNL     1       3.633   2.779   2.972  0.00  0.00    +0.002 A 
ATOM     27  C   UNL     1       4.366   1.602   3.166  0.00  0.00    +0.059 A 
ATOM     28  C   UNL     1       4.348   0.978   4.396  0.00  0.00    +0.163 A 
ATOM     29  C   UNL     1       3.603   1.519   5.448  0.00  0.00    +0.164 A 
ATOM     30  C   UNL     1       2.876   2.682   5.266  0.00  0.00    +0.075 A 
ATOM     31  C   UNL     1       2.882   3.322   4.033  0.00  0.00    +0.053 A 
ATOM     32  N   UNL     1       2.163   4.483   3.834  0.00  0.00    -0.322 N 
ATOM     33  H   UNL     1       1.646   4.856   4.565  0.00  0.00    +0.169 HD
ATOM     34  C   UNL     1       2.171   5.106   2.643  0.00  0.00    +0.251 A 
ATOM     35  O   UNL     1       1.527   6.132   2.504  0.00  0.00    -0.268 OA
ATOM     36  O   UNL     1       3.584   0.912   6.665  0.00  0.00    -0.485 OA
ATOM     37  C   UNL     1       4.018  -0.452   6.713  0.00  0.00    +0.270 C 
ATOM     38  C   UNL     1       5.324  -0.569   5.916  0.00  0.00    +0.270 C 
ATOM     39  O   UNL     1       5.064  -0.168   4.566  0.00  0.00    -0.485 OA
ENDBRANCH  23  24
ENDBRANCH   1  23
TORSDOF 11
