REMARK  Name = ZINC39441314
REMARK  6 active torsions:
REMARK  status: ('A' for Active; 'I' for Inactive)
REMARK    1  A    between atoms: C_4  and  C_7
REMARK    2  A    between atoms: C_7  and  N_8
REMARK    3  A    between atoms: C_9  and  S_15
REMARK    4  A    between atoms: S_15  and  C_16
REMARK    5  A    between atoms: C_16  and  C_17
REMARK    6  A    between atoms: C_20  and  C_24
REMARK                            x       y       z     vdW  Elec       q    Type
REMARK                         _______ _______ _______ _____ _____    ______ ____
ROOT
ATOM      1  S   UNL     1       5.576   1.444   1.572  0.00  0.00    -0.082 S 
ENDROOT
BRANCH   1   3
ATOM      2  N   UNL     1       4.152  -0.952   1.338  0.00  0.00    -0.266 N 
ATOM      3  C   UNL     1       4.934  -0.111   2.095  0.00  0.00    +0.192 A 
ATOM      4  H   UNL     1       4.414  -2.510   4.023  0.00  0.00    +0.194 HD
ATOM      5  N   UNL     1       5.122  -0.655   3.263  0.00  0.00    -0.145 NA
ATOM      6  N   UNL     1       4.449  -1.885   3.281  0.00  0.00    -0.226 N 
ATOM      7  C   UNL     1       3.855  -2.038   2.080  0.00  0.00    +0.345 A 
ATOM      8  O   UNL     1       3.176  -2.986   1.728  0.00  0.00    -0.245 OA
BRANCH   2   9
ATOM      9  C   UNL     1       3.711  -0.707  -0.038  0.00  0.00    +0.164 C 
BRANCH   9  13
ATOM     10  C   UNL     1      -0.017   1.378   0.010  0.00  0.00    +0.000 A 
ATOM     11  C   UNL     1       1.171   2.086   0.002  0.00  0.00    +0.000 A 
ATOM     12  C   UNL     1       2.377   1.411  -0.013  0.00  0.00    +0.005 A 
ATOM     13  C   UNL     1       2.396   0.029  -0.020  0.00  0.00    -0.028 A 
ATOM     14  C   UNL     1       1.208  -0.679  -0.012  0.00  0.00    +0.005 A 
ATOM     15  C   UNL     1       0.002  -0.004   0.002  0.00  0.00    +0.000 A 
ENDBRANCH   9  13
ENDBRANCH   2   9
ENDBRANCH   1   3
BRANCH   1  16
ATOM     16  C   UNL     1       6.508   2.041   3.010  0.00  0.00    +0.127 C 
BRANCH  16  17
ATOM     17  C   UNL     1       7.126   3.403   2.687  0.00  0.00    +0.221 C 
ATOM     18  N   UNL     1       6.060   4.373   2.351  0.00  0.00    -0.269 NA
ATOM     19  C   UNL     1       6.650   5.194   1.259  0.00  0.00    +0.180 C 
ATOM     20  N   UNL     1       7.439   4.187   0.500  0.00  0.00    -0.178 NA
ATOM     21  O   UNL     1       7.982   3.291   1.540  0.00  0.00    -0.278 OA
ATOM     22  H   UNL     1       5.226   3.900   2.038  0.00  0.00    +0.126 HD
ATOM     23  H   UNL     1       6.853   3.680  -0.146  0.00  0.00    +0.156 HD
BRANCH  19  24
ATOM     24  C   UNL     1       5.570   5.796   0.398  0.00  0.00    -0.013 A 
ATOM     25  C   UNL     1       4.340   6.105   0.948  0.00  0.00    +0.006 A 
ATOM     26  C   UNL     1       3.348   6.657   0.158  0.00  0.00    +0.002 A 
ATOM     27  C   UNL     1       3.587   6.900  -1.182  0.00  0.00    +0.020 A 
ATOM     28  C   UNL     1       4.817   6.591  -1.732  0.00  0.00    +0.041 A 
ATOM     29  C   UNL     1       5.811   6.044  -0.940  0.00  0.00    +0.026 A 
ATOM     30 CL   UNL     1       5.117   6.896  -3.415  0.00  0.00    -0.084 Cl
ENDBRANCH  19  24
ENDBRANCH  16  17
ENDBRANCH   1  16
TORSDOF 6
