REMARK  Name = ZINC59155676
REMARK  6 active torsions:
REMARK  status: ('A' for Active; 'I' for Inactive)
REMARK    1  A    between atoms: C_4  and  C_7
REMARK    2  A    between atoms: C_7  and  C_8
REMARK    3  A    between atoms: C_7  and  N_14
REMARK    4  A    between atoms: N_22  and  N_23
REMARK    5  A    between atoms: C_24  and  C_26
REMARK    6  A    between atoms: C_31  and  N_32
REMARK                            x       y       z     vdW  Elec       q    Type
REMARK                         _______ _______ _______ _____ _____    ______ ____
ROOT
ATOM      1  N   UNL     1       2.577  -1.578  -0.397  0.00  0.00    -0.254 N 
ATOM      2  C   UNL     1       3.596  -2.013  -1.236  0.00  0.00    +0.047 A 
ATOM      3  C   UNL     1       4.875  -1.520  -1.469  0.00  0.00    +0.024 A 
ATOM      4  C   UNL     1       5.708  -2.150  -2.372  0.00  0.00    +0.002 A 
ATOM      5  C   UNL     1       5.282  -3.277  -3.055  0.00  0.00    +0.001 A 
ATOM      6  C   UNL     1       4.016  -3.781  -2.837  0.00  0.00    +0.012 A 
ATOM      7  C   UNL     1       3.170  -3.154  -1.929  0.00  0.00    +0.028 A 
ATOM      8  C   UNL     1       1.788  -3.428  -1.474  0.00  0.00    +0.153 C 
ATOM      9  N   UNL     1       0.999  -4.402  -1.859  0.00  0.00    -0.174 NA
ATOM     10  C   UNL     1       1.494  -2.370  -0.487  0.00  0.00    +0.272 C 
ATOM     11  O   UNL     1       0.456  -2.236   0.133  0.00  0.00    -0.268 OA
ENDROOT
BRANCH   9  12
ATOM     12  N   UNL     1       1.356  -5.202  -2.952  0.00  0.00    -0.202 N 
ATOM     13  C   UNL     1       0.542  -6.200  -3.351  0.00  0.00    +0.265 C 
ATOM     14  O   UNL     1      -0.501  -6.406  -2.762  0.00  0.00    -0.268 OA
ATOM     15  H   UNL     1       2.188  -5.038  -3.422  0.00  0.00    +0.178 HD
BRANCH  13  16
ATOM     16  C   UNL     1       0.919  -7.044  -4.503  0.00  0.00    +0.068 A 
ATOM     17  C   UNL     1       1.073  -6.474  -5.769  0.00  0.00    +0.015 A 
ATOM     18  C   UNL     1       1.425  -7.268  -6.841  0.00  0.00    +0.001 A 
ATOM     19  C   UNL     1       1.625  -8.626  -6.664  0.00  0.00    +0.002 A 
ATOM     20  C   UNL     1       1.474  -9.197  -5.413  0.00  0.00    +0.033 A 
ATOM     21  C   UNL     1       1.128  -8.414  -4.331  0.00  0.00    +0.138 A 
BRANCH  21  22
ATOM     22  N   UNL     1       0.973  -9.025  -2.992  0.00  0.00    +0.057 N 
ATOM     23  O   UNL     1       1.062 -10.224  -2.861  0.00  0.00    -0.126 OA
ATOM     24  O   UNL     1       0.757  -8.326  -2.030  0.00  0.00    -0.126 OA
ENDBRANCH  21  22
ENDBRANCH  13  16
ENDBRANCH   9  12
BRANCH   1  25
ATOM     25  C   UNL     1       2.673  -0.409   0.480  0.00  0.00    +0.142 C 
BRANCH  25  29
ATOM     26  C   UNL     1      -0.743   2.090  -0.098  0.00  0.00    +0.000 A 
ATOM     27  C   UNL     1       0.034   2.233   1.036  0.00  0.00    +0.000 A 
ATOM     28  C   UNL     1       1.139   1.425   1.224  0.00  0.00    +0.006 A 
ATOM     29  C   UNL     1       1.467   0.472   0.277  0.00  0.00    -0.022 A 
ATOM     30  C   UNL     1       0.690   0.329  -0.857  0.00  0.00    +0.006 A 
ATOM     31  C   UNL     1      -0.414   1.138  -1.046  0.00  0.00    +0.000 A 
ENDBRANCH  25  29
BRANCH  25  32
ATOM     32  C   UNL     1       2.727  -0.861   1.917  0.00  0.00    -0.022 A 
ATOM     33  C   UNL     1       2.154  -2.064   2.285  0.00  0.00    +0.006 A 
ATOM     34  C   UNL     1       2.204  -2.479   3.603  0.00  0.00    +0.000 A 
ATOM     35  C   UNL     1       2.828  -1.691   4.552  0.00  0.00    +0.000 A 
ATOM     36  C   UNL     1       3.402  -0.489   4.184  0.00  0.00    +0.000 A 
ATOM     37  C   UNL     1       3.355  -0.076   2.865  0.00  0.00    +0.006 A 
ENDBRANCH  25  32
ENDBRANCH   1  25
TORSDOF 6
