REMARK  Name = ZINC50306877
REMARK  6 active torsions:
REMARK  status: ('A' for Active; 'I' for Inactive)
REMARK    1  A    between atoms: C_1  and  C_2
REMARK    2  A    between atoms: C_2  and  C_3
REMARK    3  A    between atoms: C_4  and  N_20
REMARK    4  A    between atoms: C_5  and  C_9
REMARK    5  A    between atoms: N_11  and  C_12
REMARK    6  A    between atoms: C_15  and  C_19
REMARK                            x       y       z     vdW  Elec       q    Type
REMARK                         _______ _______ _______ _____ _____    ______ ____
ROOT
ATOM      1  C   UNL     1       3.498  -1.465  -3.371  0.00  0.00    +0.270 C 
ATOM      2  O   UNL     1       4.544  -1.338  -2.763  0.00  0.00    -0.268 OA
ATOM      3  N   UNL     1       3.510  -1.900  -4.647  0.00  0.00    -0.279 N 
ATOM      4  H   UNL     1       2.674  -2.063  -5.111  0.00  0.00    +0.155 HD
ENDROOT
BRANCH   3   5
ATOM      5  C   UNL     1       4.727  -2.115  -5.302  0.00  0.00    +0.048 A 
ATOM      6  C   UNL     1       5.824  -2.590  -4.594  0.00  0.00    +0.025 A 
ATOM      7  C   UNL     1       7.024  -2.802  -5.243  0.00  0.00    +0.005 A 
ATOM      8  C   UNL     1       7.135  -2.542  -6.597  0.00  0.00    -0.049 A 
ATOM      9  C   UNL     1       6.046  -2.068  -7.305  0.00  0.00    +0.020 A 
ATOM     10  C   UNL     1       4.841  -1.860  -6.663  0.00  0.00    +0.039 A 
ATOM     11 BR   UNL     1       3.349  -1.220  -7.634  0.00  0.00    -0.048 Br
ATOM     12  C   UNL     1       8.447  -2.774  -7.302  0.00  0.00    +0.044 C 
ENDBRANCH   3   5
BRANCH   1  15
ATOM     13  C   UNL     1       0.706  -0.521  -1.226  0.00  0.00    +0.057 A 
ATOM     14  C   UNL     1       2.047  -0.678  -1.384  0.00  0.00    +0.078 A 
ATOM     15  C   UNL     1       2.219  -1.143  -2.714  0.00  0.00    +0.168 A 
ATOM     16  N   UNL     1       1.016  -1.233  -3.251  0.00  0.00    -0.167 NA
ATOM     17  N   UNL     1       0.122  -0.880  -2.399  0.00  0.00    -0.279 N 
ATOM     18  H   UNL     1      -0.833  -0.870  -2.570  0.00  0.00    +0.189 HD
BRANCH  14  19
ATOM     19  N   UNL     1       3.049  -0.432  -0.434  0.00  0.00    -0.355 N 
ATOM     20  H   UNL     1       2.811  -0.112   0.450  0.00  0.00    +0.142 HD
ATOM     21  H   UNL     1       3.981  -0.581  -0.662  0.00  0.00    +0.142 HD
ENDBRANCH  14  19
BRANCH  13  23
ATOM     22  C   UNL     1      -0.029   1.486   0.032  0.00  0.00    +0.010 C 
ATOM     23  C   UNL     1       0.001  -0.044   0.017  0.00  0.00    +0.053 C 
ENDBRANCH  13  23
ENDBRANCH   1  15
TORSDOF 4
