REMARK  Name = ZINC09120419
REMARK  8 active torsions:
REMARK  status: ('A' for Active; 'I' for Inactive)
REMARK    1  A    between atoms: C_1  and  C_2
REMARK    2  A    between atoms: C_2  and  C_3
REMARK    3  A    between atoms: C_6  and  C_15
REMARK    4  A    between atoms: C_13  and  O_14
REMARK    5  A    between atoms: C_15  and  O_16
REMARK    6  A    between atoms: O_16  and  C_17
REMARK    7  A    between atoms: C_17  and  C_19
REMARK    8  A    between atoms: N_28  and  C_30
REMARK                            x       y       z     vdW  Elec       q    Type
REMARK                         _______ _______ _______ _____ _____    ______ ____
ROOT
ATOM      1  C   UNL     1      -0.049  -0.091   0.721  0.00  0.00    +0.360 C 
ATOM      2  O   UNL     1       1.009  -0.688   0.741  0.00  0.00    -0.243 OA
ENDROOT
BRANCH   1   3
ATOM      3  C   UNL     1      -1.290  -0.801   0.359  0.00  0.00    +0.176 A 
ATOM      4  C   UNL     1      -1.257  -2.233   0.019  0.00  0.00    +0.021 A 
ATOM      5  C   UNL     1      -0.084  -2.980   0.020  0.00  0.00    +0.011 A 
ATOM      6  C   UNL     1      -0.135  -4.318  -0.309  0.00  0.00    +0.001 A 
ATOM      7  C   UNL     1      -1.339  -4.924  -0.641  0.00  0.00    +0.001 A 
ATOM      8  C   UNL     1      -2.513  -4.201  -0.649  0.00  0.00    +0.014 A 
ATOM      9  C   UNL     1      -2.484  -2.850  -0.319  0.00  0.00    +0.051 A 
ATOM     10  C   UNL     1      -3.686  -2.006  -0.301  0.00  0.00    +0.280 A 
ATOM     11  O   UNL     1      -4.776  -2.470  -0.581  0.00  0.00    -0.265 OA
ATOM     12  N   UNL     1      -3.555  -0.706   0.032  0.00  0.00    -0.196 N 
ATOM     13  N   UNL     1      -2.437  -0.165   0.341  0.00  0.00    -0.156 NA
BRANCH  12  14
ATOM     14  C   UNL     1      -4.703   0.093   0.047  0.00  0.00    +0.069 A 
ATOM     15  C   UNL     1      -5.572   0.083  -1.036  0.00  0.00    +0.028 A 
ATOM     16  C   UNL     1      -6.708   0.868  -1.016  0.00  0.00    +0.002 A 
ATOM     17  C   UNL     1      -6.975   1.672   0.078  0.00  0.00    +0.000 A 
ATOM     18  C   UNL     1      -6.109   1.688   1.156  0.00  0.00    +0.002 A 
ATOM     19  C   UNL     1      -4.974   0.901   1.144  0.00  0.00    +0.028 A 
ENDBRANCH  12  14
ENDBRANCH   1   3
BRANCH   1  20
ATOM     20  O   UNL     1      -0.088   1.220   1.031  0.00  0.00    -0.455 OA
BRANCH  20  21
ATOM     21  C   UNL     1       1.171   1.854   1.378  0.00  0.00    +0.269 C 
BRANCH  21  25
ATOM     22  C   UNL     1       4.359   4.538   2.536  0.00  0.00    -0.005 A 
ATOM     23  C   UNL     1       3.346   3.698   2.171  0.00  0.00    +0.019 A 
ATOM     24  C   UNL     1       2.038   4.186   2.080  0.00  0.00    +0.024 A 
ATOM     25  C   UNL     1       0.932   3.308   1.692  0.00  0.00    +0.007 A 
ATOM     26  C   UNL     1      -0.317   3.840   1.627  0.00  0.00    +0.099 A 
ATOM     27  C   UNL     1      -0.515   5.204   1.925  0.00  0.00    +0.338 A 
ATOM     28  O   UNL     1      -1.639   5.667   1.863  0.00  0.00    -0.245 OA
ATOM     29  O   UNL     1       0.504   6.004   2.276  0.00  0.00    -0.422 OA
ATOM     30  C   UNL     1       1.769   5.539   2.359  0.00  0.00    +0.143 A 
ATOM     31  C   UNL     1       2.810   6.379   2.723  0.00  0.00    +0.092 A 
ATOM     32  C   UNL     1       4.098   5.877   2.818  0.00  0.00    +0.124 A 
BRANCH  22  34
ATOM     33  C   UNL     1       6.543   4.393   1.369  0.00  0.00    +0.009 C 
ATOM     34  C   UNL     1       5.768   4.013   2.633  0.00  0.00    +0.035 C 
ENDBRANCH  22  34
BRANCH  32  35
ATOM     35  O   UNL     1       5.116   6.699   3.179  0.00  0.00    -0.506 OA
ATOM     36  H   UNL     1       5.546   7.143   2.436  0.00  0.00    +0.292 HD
ENDBRANCH  32  35
ENDBRANCH  21  25
ENDBRANCH  20  21
ENDBRANCH   1  20
TORSDOF 7
