REMARK  Name = ZINC04275964
REMARK  2 active torsions:
REMARK  status: ('A' for Active; 'I' for Inactive)
REMARK    1  A    between atoms: C_6  and  C_7
REMARK    2  A    between atoms: C_13  and  C_15
REMARK                            x       y       z     vdW  Elec       q    Type
REMARK                         _______ _______ _______ _____ _____    ______ ____
ROOT
ATOM      1  C   UNL     1       5.032   7.601  -0.003  0.00  0.00    +0.250 A 
ATOM      2  N   UNL     1       5.656   6.448  -0.015  0.00  0.00    -0.106 NA
ATOM      3  N   UNL     1       4.793   5.494  -0.007  0.00  0.00    -0.092 NA
ATOM      4  C   UNL     1       3.583   6.001   0.001  0.00  0.00    +0.315 A 
ATOM      5  O   UNL     1       3.706   7.341   0.007  0.00  0.00    -0.405 OA
ATOM      6  N   UNL     1       2.396   5.287   0.008  0.00  0.00    -0.234 N 
ATOM      7  C   UNL     1       2.420   3.939   0.001  0.00  0.00    +0.253 C 
ATOM      8  O   UNL     1       3.483   3.350  -0.012  0.00  0.00    -0.270 OA
ATOM      9  H   UNL     1       1.548   5.757   0.018  0.00  0.00    +0.160 HD
ENDROOT
BRANCH   7  10
ATOM     10  C   UNL     1       1.154   3.178   0.008  0.00  0.00    +0.057 A 
ATOM     11  C   UNL     1      -0.069   3.852   0.023  0.00  0.00    +0.034 A 
ATOM     12  C   UNL     1      -1.248   3.134   0.031  0.00  0.00    +0.042 A 
ATOM     13  C   UNL     1      -1.220   1.749   0.017  0.00  0.00    +0.021 A 
ATOM     14  C   UNL     1      -0.013   1.076   0.008  0.00  0.00    +0.022 A 
ATOM     15  C   UNL     1       1.175   1.781   0.000  0.00  0.00    +0.053 A 
ATOM     16 CL   UNL     1       2.690   0.934  -0.018  0.00  0.00    -0.083 Cl
ATOM     17 CL   UNL     1      -2.770   3.969   0.049  0.00  0.00    -0.084 Cl
ENDBRANCH   7  10
BRANCH   1  23
ATOM     18  C   UNL     1       4.868  10.086   0.005  0.00  0.00    +0.016 A 
ATOM     19  C   UNL     1       5.461  11.331   0.011  0.00  0.00    +0.039 A 
ATOM     20  C   UNL     1       6.843  11.443  -0.001  0.00  0.00    +0.123 A 
ATOM     21  C   UNL     1       7.635  10.306  -0.013  0.00  0.00    +0.039 A 
ATOM     22  C   UNL     1       7.053   9.056  -0.013  0.00  0.00    +0.016 A 
ATOM     23  C   UNL     1       5.662   8.937  -0.002  0.00  0.00    +0.039 A 
ATOM     24  F   UNL     1       7.419  12.665   0.000  0.00  0.00    -0.205 F 
ENDBRANCH   1  23
TORSDOF 2
