REMARK  Name = ZINC39654504
REMARK  12 active torsions:
REMARK  status: ('A' for Active; 'I' for Inactive)
REMARK    1  A    between atoms: C_1  and  C_2
REMARK    2  A    between atoms: C_2  and  C_3
REMARK    3  A    between atoms: C_6  and  C_9
REMARK    4  A    between atoms: C_9  and  C_10
REMARK    5  A    between atoms: C_10  and  N_11
REMARK    6  A    between atoms: C_12  and  C_14
REMARK    7  A    between atoms: C_25  and  C_27
REMARK    8  A    between atoms: C_29  and  C_36
REMARK    9  A    between atoms: N_31  and  C_32
REMARK   10  A    between atoms: C_32  and  C_33
REMARK   11  A    between atoms: C_32  and  C_34
REMARK   12  A    between atoms: C_32  and  C_35
REMARK                            x       y       z     vdW  Elec       q    Type
REMARK                         _______ _______ _______ _____ _____    ______ ____
ROOT
ATOM      1  C   UNL     1       4.956  -0.798  -9.302  0.00  0.00    +0.100 C 
ATOM      2  C   UNL     1       6.051  -1.724  -8.726  0.00  0.00    +0.121 C 
ATOM      3  N   UNL     1       7.247  -1.450  -9.556  0.00  0.00    -0.295 N 
ATOM      4  C   UNL     1       7.216   0.015  -9.777  0.00  0.00    +0.115 C 
ATOM      5  C   UNL     1       5.724   0.342  -9.990  0.00  0.00    -0.004 C 
ATOM      6  C   UNL     1       5.380   1.679  -9.340  0.00  0.00    -0.010 C 
ATOM      7  C   UNL     1       6.111   2.804 -10.079  0.00  0.00    -0.082 C 
ATOM      8  N   UNL     1       5.710   2.805 -11.491  0.00  0.00    +0.379 N 
ATOM      9  C   UNL     1       6.129   1.553 -12.132  0.00  0.00    -0.082 C 
ATOM     10  C   UNL     1       5.399   0.375 -11.480  0.00  0.00    -0.010 C 
ATOM     11  C   UNL     1       8.158  -2.335 -10.010  0.00  0.00    +0.265 C 
ATOM     12  O   UNL     1       9.088  -1.953 -10.695  0.00  0.00    -0.268 OA
ATOM     13  H   UNL     1       4.707   2.896 -11.555  0.00  0.00    -0.086 HD
ATOM     14  H   UNL     1       6.146   3.584 -11.962  0.00  0.00    -0.086 HD
ENDROOT
BRANCH  11  15
ATOM     15  C   UNL     1       8.027  -3.762  -9.676  0.00  0.00    +0.124 A 
ATOM     16  C   UNL     1       7.166  -4.323  -8.749  0.00  0.00    +0.057 A 
ATOM     17  C   UNL     1       7.415  -5.696  -8.796  0.00  0.00    +0.061 A 
ATOM     18  N   UNL     1       8.352  -5.904  -9.686  0.00  0.00    -0.175 NA
ATOM     19  N   UNL     1       8.728  -4.799 -10.223  0.00  0.00    -0.254 N 
ATOM     20  C   UNL     1       6.728  -6.752  -7.969  0.00  0.00    +0.067 C 
BRANCH  19  21
ATOM     21  C   UNL     1       9.754  -4.671 -11.260  0.00  0.00    +0.056 C 
ATOM     22  C   UNL     1      10.936  -3.868 -10.712  0.00  0.00    +0.036 C 
ATOM     23  C   UNL     1      10.233  -6.062 -11.679  0.00  0.00    +0.036 C 
ATOM     24  C   UNL     1       9.165  -3.948 -12.473  0.00  0.00    +0.036 C 
ENDBRANCH  19  21
ENDBRANCH  11  15
BRANCH   1  26
ATOM     25  N   UNL     1       2.796   0.033  -8.428  0.00  0.00    -0.315 N 
ATOM     26  C   UNL     1       4.092  -0.255  -8.193  0.00  0.00    +0.218 C 
ATOM     27  O   UNL     1       4.562  -0.076  -7.089  0.00  0.00    -0.275 OA
ATOM     28  H   UNL     1       2.438  -0.040  -9.326  0.00  0.00    +0.149 HD
BRANCH  25  29
ATOM     29  C   UNL     1       1.929   0.457  -7.326  0.00  0.00    +0.109 C 
BRANCH  29  30
ATOM     30  C   UNL     1       0.519   0.720  -7.859  0.00  0.00    +0.054 C 
BRANCH  30  34
ATOM     31  C   UNL     1      -2.012   1.955  -4.648  0.00  0.00    -0.048 A 
ATOM     32  C   UNL     1      -1.310   2.897  -5.376  0.00  0.00    +0.004 A 
ATOM     33  C   UNL     1      -0.491   2.497  -6.415  0.00  0.00    +0.004 A 
ATOM     34  C   UNL     1      -0.373   1.155  -6.725  0.00  0.00    -0.046 A 
ATOM     35  C   UNL     1      -1.075   0.213  -5.996  0.00  0.00    +0.004 A 
ATOM     36  C   UNL     1      -1.891   0.613  -4.955  0.00  0.00    +0.004 A 
BRANCH  31  38
ATOM     37  C   UNL     1      -2.099   2.430  -2.215  0.00  0.00    +0.009 C 
ATOM     38  C   UNL     1      -2.905   2.392  -3.515  0.00  0.00    +0.032 C 
ENDBRANCH  31  38
ENDBRANCH  30  34
ENDBRANCH  29  30
ENDBRANCH  25  29
ENDBRANCH   1  26
TORSDOF 7
