REMARK  Name = ZINC00703580
REMARK  4 active torsions:
REMARK  status: ('A' for Active; 'I' for Inactive)
REMARK    1  A    between atoms: C_1  and  C_2
REMARK    2  A    between atoms: C_3  and  C_19
REMARK    3  A    between atoms: C_4  and  C_12
REMARK    4  A    between atoms: N_21  and  C_22
REMARK                            x       y       z     vdW  Elec       q    Type
REMARK                         _______ _______ _______ _____ _____    ______ ____
ROOT
ATOM      1  C   UNL     1      -0.060   1.509  -0.514  0.00  0.00    +0.061 C 
ATOM      2  C   UNL     1      -0.017   0.014  -0.332  0.00  0.00    +0.018 C 
ATOM      3  C   UNL     1      -1.168  -0.651  -0.159  0.00  0.00    +0.060 C 
ATOM      4  C   UNL     1      -1.235  -2.142   0.042  0.00  0.00    +0.179 C 
ATOM      5  N   UNL     1       0.063  -2.731  -0.265  0.00  0.00    -0.201 N 
ATOM      6  C   UNL     1       1.198  -2.005  -0.440  0.00  0.00    +0.240 A 
ATOM      7  N   UNL     1       2.160  -2.847  -0.691  0.00  0.00    -0.092 NA
ATOM      8  N   UNL     1       1.708  -4.054  -0.690  0.00  0.00    -0.021 NA
ATOM      9  N   UNL     1       0.439  -4.061  -0.440  0.00  0.00    -0.042 NA
ATOM     10  N   UNL     1       1.201  -0.622  -0.355  0.00  0.00    -0.286 N 
ATOM     11  H   UNL     1       2.031  -0.122  -0.309  0.00  0.00    +0.155 HD
ENDROOT
BRANCH   4  12
ATOM     12  C   UNL     1      -1.597  -2.440   1.474  0.00  0.00    -0.018 A 
ATOM     13  C   UNL     1      -0.782  -1.997   2.499  0.00  0.00    +0.007 A 
ATOM     14  C   UNL     1      -1.112  -2.270   3.813  0.00  0.00    +0.020 A 
ATOM     15  C   UNL     1      -2.259  -2.988   4.102  0.00  0.00    +0.041 A 
ATOM     16  C   UNL     1      -3.075  -3.431   3.076  0.00  0.00    +0.020 A 
ATOM     17  C   UNL     1      -2.746  -3.153   1.763  0.00  0.00    +0.007 A 
ATOM     18 CL   UNL     1      -2.675  -3.332   5.752  0.00  0.00    -0.084 Cl
ENDBRANCH   4  12
BRANCH   3  19
ATOM     19  C   UNL     1      -2.378   0.083  -0.166  0.00  0.00    +0.248 C 
ATOM     20  O   UNL     1      -2.357   1.290  -0.327  0.00  0.00    -0.270 OA
ATOM     21  N   UNL     1      -3.554  -0.553   0.005  0.00  0.00    -0.282 N 
ATOM     22  H   UNL     1      -3.578  -1.522   0.055  0.00  0.00    +0.155 HD
BRANCH  21  23
ATOM     23  C   UNL     1      -4.738   0.182   0.109  0.00  0.00    +0.034 A 
ATOM     24  C   UNL     1      -5.927  -0.339  -0.385  0.00  0.00    +0.023 A 
ATOM     25  C   UNL     1      -7.095   0.390  -0.281  0.00  0.00    +0.002 A 
ATOM     26  C   UNL     1      -7.082   1.637   0.315  0.00  0.00    +0.000 A 
ATOM     27  C   UNL     1      -5.901   2.160   0.808  0.00  0.00    +0.002 A 
ATOM     28  C   UNL     1      -4.730   1.433   0.712  0.00  0.00    +0.023 A 
ENDBRANCH  21  23
ENDBRANCH   3  19
TORSDOF 3
