REMARK  Name = ZINC39937702
REMARK  10 active torsions:
REMARK  status: ('A' for Active; 'I' for Inactive)
REMARK    1  A    between atoms: C_1  and  C_2
REMARK    2  A    between atoms: C_2  and  N_3
REMARK    3  A    between atoms: C_4  and  S_8
REMARK    4  A    between atoms: S_8  and  C_9
REMARK    5  A    between atoms: C_9  and  C_10
REMARK    6  A    between atoms: C_15  and  C_32
REMARK    7  A    between atoms: C_16  and  C_21
REMARK    8  A    between atoms: N_23  and  C_24
REMARK    9  A    between atoms: C_27  and  C_31
REMARK   10  A    between atoms: C_29  and  C_30
REMARK                            x       y       z     vdW  Elec       q    Type
REMARK                         _______ _______ _______ _____ _____    ______ ____
ROOT
ATOM      1  C   UNL     1       5.930  -0.912   0.155  0.00  0.00    +0.134 C 
ATOM      2  N   UNL     1       5.633  -0.516   1.369  0.00  0.00    -0.160 NA
ATOM      3  C   UNL     1       6.550  -0.388   2.333  0.00  0.00    +0.271 C 
ATOM      4  O   UNL     1       6.239  -0.017   3.453  0.00  0.00    -0.268 OA
ATOM      5  C   UNL     1       7.972  -0.713   1.994  0.00  0.00    +0.071 C 
ATOM      6  C   UNL     1       9.050  -0.659   2.790  0.00  0.00    -0.036 C 
ATOM      7  C   UNL     1      10.385  -1.045   2.194  0.00  0.00    +0.165 C 
ATOM      8  S   UNL     1       9.915  -1.464   0.466  0.00  0.00    -0.088 S 
ATOM      9  C   UNL     1       8.173  -1.146   0.595  0.00  0.00    +0.112 C 
ATOM     10  N   UNL     1       7.157  -1.225  -0.231  0.00  0.00    -0.227 NA
ATOM     11  C   UNL     1       8.935  -0.228   4.229  0.00  0.00    +0.041 C 
ENDROOT
BRANCH   7  12
ATOM     12  C   UNL     1      11.346   0.116   2.226  0.00  0.00    +0.235 C 
ATOM     13  O   UNL     1      10.928   1.252   2.157  0.00  0.00    -0.274 OA
ATOM     14  N   UNL     1      12.671  -0.110   2.332  0.00  0.00    -0.284 N 
ATOM     15  H   UNL     1      13.000  -1.012   2.468  0.00  0.00    +0.155 HD
BRANCH  14  16
ATOM     16  C   UNL     1      13.571   0.958   2.246  0.00  0.00    +0.036 A 
ATOM     17  C   UNL     1      13.215   2.116   1.566  0.00  0.00    +0.024 A 
ATOM     18  C   UNL     1      14.105   3.168   1.482  0.00  0.00    +0.005 A 
ATOM     19  C   UNL     1      15.351   3.070   2.075  0.00  0.00    -0.050 A 
ATOM     20  C   UNL     1      15.709   1.919   2.753  0.00  0.00    +0.008 A 
ATOM     21  C   UNL     1      14.820   0.866   2.845  0.00  0.00    -0.029 A 
ATOM     22  C   UNL     1      15.208  -0.386   3.590  0.00  0.00    +0.045 C 
ATOM     23  C   UNL     1      16.320   4.220   1.982  0.00  0.00    +0.044 C 
ENDBRANCH  14  16
ENDBRANCH   7  12
BRANCH   1  24
ATOM     24  C   UNL     1       4.815  -1.021  -0.853  0.00  0.00    +0.150 C 
BRANCH  24  25
ATOM     25  S   UNL     1       3.248  -0.539  -0.076  0.00  0.00    -0.080 S 
BRANCH  25  27
ATOM     26  N   UNL     1       0.701  -0.462  -1.250  0.00  0.00    -0.227 N 
ATOM     27  C   UNL     1       2.060  -0.718  -1.365  0.00  0.00    +0.190 C 
ATOM     28  N   UNL     1       2.315  -1.111  -2.575  0.00  0.00    -0.147 NA
ATOM     29  N   UNL     1       1.118  -1.126  -3.303  0.00  0.00    -0.184 N 
ATOM     30  N   UNL     1       0.120  -0.724  -2.459  0.00  0.00    -0.143 NA
ATOM     31  H   UNL     1       1.016  -1.379  -4.234  0.00  0.00    +0.191 HD
ATOM     32  H   UNL     1      -0.348   0.094  -2.820  0.00  0.00    +0.169 HD
BRANCH  26  34
ATOM     33  C   UNL     1      -0.011   1.531  -0.024  0.00  0.00    +0.026 C 
ATOM     34  C   UNL     1       0.011   0.002  -0.044  0.00  0.00    +0.124 C 
ENDBRANCH  26  34
ENDBRANCH  25  27
ENDBRANCH  24  25
ENDBRANCH   1  24
TORSDOF 6
