REMARK  Name = ZINC39639504
REMARK  4 active torsions:
REMARK  status: ('A' for Active; 'I' for Inactive)
REMARK    1  A    between atoms: C_3  and  C_8
REMARK    2  A    between atoms: C_12  and  C_21
REMARK    3  A    between atoms: N_23  and  C_24
REMARK    4  A    between atoms: C_24  and  C_25
REMARK                            x       y       z     vdW  Elec       q    Type
REMARK                         _______ _______ _______ _____ _____    ______ ____
ROOT
ATOM      1  C   UNL     1       3.661   2.168  -0.024  0.00  0.00    +0.247 C 
ATOM      2  O   UNL     1       3.651   3.379  -0.128  0.00  0.00    -0.270 OA
ATOM      3  N   UNL     1       4.833   1.509   0.064  0.00  0.00    -0.296 N 
ATOM      4  C   UNL     1       5.054   0.044   0.066  0.00  0.00    +0.121 C 
ATOM      5  C   UNL     1       6.328  -0.161  -0.783  0.00  0.00    +0.100 C 
ATOM      6  C   UNL     1       7.073   1.182  -0.703  0.00  0.00    -0.004 C 
ATOM      7  C   UNL     1       6.194   2.087   0.173  0.00  0.00    +0.115 C 
ATOM      8  C   UNL     1       7.220   1.789  -2.096  0.00  0.00    -0.010 C 
ATOM      9  C   UNL     1       8.013   3.095  -1.997  0.00  0.00    -0.082 C 
ATOM     10  N   UNL     1       9.334   2.825  -1.417  0.00  0.00    +0.379 N 
ATOM     11  C   UNL     1       9.186   2.329  -0.044  0.00  0.00    -0.082 C 
ATOM     12  C   UNL     1       8.443   0.990  -0.060  0.00  0.00    -0.010 C 
ATOM     13  H   UNL     1       9.809   2.131  -1.975  0.00  0.00    -0.086 HD
ATOM     14  H   UNL     1       9.877   3.675  -1.410  0.00  0.00    -0.086 HD
ENDROOT
BRANCH   1  17
ATOM     15  C   UNL     1       1.135  -0.531   0.639  0.00  0.00    +0.002 A 
ATOM     16  C   UNL     1       2.327   0.164   0.614  0.00  0.00    +0.013 A 
ATOM     17  C   UNL     1       2.387   1.418   0.005  0.00  0.00    +0.038 A 
ATOM     18  C   UNL     1       1.240   1.961  -0.575  0.00  0.00    +0.033 A 
ATOM     19  C   UNL     1       0.054   1.256  -0.544  0.00  0.00    +0.042 A 
ATOM     20  C   UNL     1       0.002   0.012   0.062  0.00  0.00    +0.020 A 
ATOM     21 CL   UNL     1      -1.374   1.929  -1.265  0.00  0.00    -0.084 Cl
ENDBRANCH   1  17
BRANCH   5  22
ATOM     22  C   UNL     1       5.962  -0.477  -2.211  0.00  0.00    +0.218 C 
ATOM     23  O   UNL     1       4.986   0.037  -2.714  0.00  0.00    -0.275 OA
ATOM     24  N   UNL     1       6.720  -1.330  -2.928  0.00  0.00    -0.311 N 
ATOM     25  H   UNL     1       7.501  -1.741  -2.525  0.00  0.00    +0.149 HD
BRANCH  24  26
ATOM     26  C   UNL     1       6.364  -1.637  -4.315  0.00  0.00    +0.142 C 
BRANCH  26  27
ATOM     27  C   UNL     1       7.364  -2.609  -4.887  0.00  0.00    +0.005 A 
ATOM     28  C   UNL     1       8.388  -2.152  -5.695  0.00  0.00    +0.009 A 
ATOM     29  C   UNL     1       9.306  -3.042  -6.219  0.00  0.00    +0.016 A 
ATOM     30  C   UNL     1       9.200  -4.393  -5.936  0.00  0.00    +0.021 A 
ATOM     31  C   UNL     1       8.176  -4.852  -5.128  0.00  0.00    +0.054 A 
ATOM     32  C   UNL     1       7.260  -3.959  -4.598  0.00  0.00    +0.129 A 
ATOM     33  F   UNL     1       6.263  -4.405  -3.804  0.00  0.00    -0.205 F 
ATOM     34 BR   UNL     1      10.456  -5.610  -6.655  0.00  0.00    -0.050 Br
ENDBRANCH  26  27
ENDBRANCH  24  26
ENDBRANCH   5  22
TORSDOF 4
