REMARK  Name = ZINC33279190
REMARK  5 active torsions:
REMARK  status: ('A' for Active; 'I' for Inactive)
REMARK    1  A    between atoms: C_1  and  C_2
REMARK    2  A    between atoms: C_4  and  C_7
REMARK    3  A    between atoms: C_9  and  S_12
REMARK    4  A    between atoms: S_12  and  N_15
REMARK    5  A    between atoms: C_19  and  C_22
REMARK                            x       y       z     vdW  Elec       q    Type
REMARK                         _______ _______ _______ _____ _____    ______ ____
ROOT
ATOM      1  S   UNL     1       0.112  -7.332   1.043  0.00  0.00    +0.067 S 
ATOM      2  O   UNL     1      -0.420  -8.062   2.140  0.00  0.00    -0.152 OA
ATOM      3  O   UNL     1      -0.452  -7.395  -0.260  0.00  0.00    -0.152 OA
ENDROOT
BRANCH   1   4
ATOM      4  N   UNL     1       1.698  -7.786   0.895  0.00  0.00    -0.175 NA
ATOM      5  C   UNL     1       2.396  -7.659  -0.391  0.00  0.00    +0.109 C 
ATOM      6  C   UNL     1       3.684  -6.852  -0.169  0.00  0.00    +0.018 C 
ATOM      7  C   UNL     1       4.513  -7.517   0.932  0.00  0.00    +0.015 C 
ATOM      8  C   UNL     1       3.717  -7.522   2.239  0.00  0.00    +0.091 C 
ATOM      9  C   UNL     1       2.430  -8.331   2.046  0.00  0.00    +0.122 C 
BRANCH   8  10
ATOM     10  C   UNL     1       4.546  -8.148   3.331  0.00  0.00    +0.220 C 
ATOM     11  O   UNL     1       5.300  -9.061   3.072  0.00  0.00    -0.275 OA
ATOM     12  N   UNL     1       4.449  -7.692   4.596  0.00  0.00    -0.301 N 
ATOM     13  C   UNL     1       3.509  -6.665   5.067  0.00  0.00    +0.108 C 
ATOM     14  C   UNL     1       3.778  -6.452   6.572  0.00  0.00    +0.020 C 
ATOM     15  C   UNL     1       5.237  -6.956   6.736  0.00  0.00    +0.020 C 
ATOM     16  C   UNL     1       5.272  -8.138   5.735  0.00  0.00    +0.108 C 
ENDBRANCH   8  10
ENDBRANCH   1   4
BRANCH   1  19
ATOM     17  C   UNL     1       0.072  -3.290   1.355  0.00  0.00    +0.031 A 
ATOM     18  C   UNL     1       0.079  -4.535   0.728  0.00  0.00    +0.048 A 
ATOM     19  C   UNL     1       0.099  -5.634   1.515  0.00  0.00    +0.143 A 
ATOM     20  S   UNL     1       0.107  -4.929   3.153  0.00  0.00    -0.076 S 
ATOM     21  C   UNL     1       0.091  -3.251   2.719  0.00  0.00    +0.058 A 
BRANCH  17  25
ATOM     22  C   UNL     1       0.006   1.511   0.002  0.00  0.00    +0.112 C 
ATOM     23  C   UNL     1       0.022   0.004  -0.005  0.00  0.00    +0.225 A 
ATOM     24  N   UNL     1       0.041  -0.778   1.046  0.00  0.00    -0.192 NA
ATOM     25  C   UNL     1       0.050  -2.040   0.559  0.00  0.00    +0.203 A 
ATOM     26  N   UNL     1       0.036  -1.950  -0.747  0.00  0.00    -0.056 NA
ATOM     27  O   UNL     1       0.014  -0.785  -1.083  0.00  0.00    -0.338 OA
ENDBRANCH  17  25
ENDBRANCH   1  19
TORSDOF 4
