REMARK  Name = ZINC38673156
REMARK  9 active torsions:
REMARK  status: ('A' for Active; 'I' for Inactive)
REMARK    1  A    between atoms: C_1  and  C_2
REMARK    2  A    between atoms: C_4  and  S_10
REMARK    3  A    between atoms: S_10  and  N_13
REMARK    4  A    between atoms: N_13  and  C_14
REMARK    5  A    between atoms: C_14  and  C_15
REMARK    6  A    between atoms: C_15  and  C_17
REMARK    7  A    between atoms: C_15  and  N_28
REMARK    8  A    between atoms: N_26  and  C_27
REMARK    9  A    between atoms: N_31  and  C_34
REMARK                            x       y       z     vdW  Elec       q    Type
REMARK                         _______ _______ _______ _____ _____    ______ ____
ROOT
ATOM      1  C   UNL     1       2.950  -5.593  -2.380  0.00  0.00    +0.102 C 
ENDROOT
BRANCH   1   2
ATOM      2  C   UNL     1       2.941  -6.643  -1.298  0.00  0.00    -0.029 A 
ATOM      3  C   UNL     1       1.812  -6.822  -0.520  0.00  0.00    +0.007 A 
ATOM      4  C   UNL     1       1.804  -7.783   0.471  0.00  0.00    +0.024 A 
ATOM      5  C   UNL     1       2.931  -8.570   0.685  0.00  0.00    +0.033 A 
ATOM      6  C   UNL     1       4.061  -8.392  -0.097  0.00  0.00    -0.026 A 
ATOM      7  C   UNL     1       4.058  -7.427  -1.091  0.00  0.00    +0.010 A 
ATOM      8  C   UNL     1       5.295  -9.232   0.100  0.00  0.00    +0.038 C 
ATOM      9  C   UNL     1       5.302  -9.854   1.496  0.00  0.00    +0.024 C 
ATOM     10  C   UNL     1       3.959 -10.557   1.733  0.00  0.00    +0.105 C 
ATOM     11  N   UNL     1       2.904  -9.534   1.698  0.00  0.00    -0.333 N 
ATOM     12  C   UNL     1       1.843  -9.525   2.708  0.00  0.00    +0.129 C 
ENDBRANCH   1   2
BRANCH   1  13
ATOM     13  N   UNL     1       2.149  -6.057  -3.520  0.00  0.00    -0.298 NA
ATOM     14  C   UNL     1       0.829  -6.531  -3.079  0.00  0.00    +0.066 C 
ATOM     15  C   UNL     1       0.007  -6.949  -4.300  0.00  0.00    -0.064 C 
ATOM     16  N   UNL     1       0.712  -8.015  -5.024  0.00  0.00    +0.379 N 
ATOM     17  C   UNL     1       2.018  -7.520  -5.479  0.00  0.00    -0.064 C 
ATOM     18  C   UNL     1       2.857  -7.106  -4.268  0.00  0.00    +0.066 C 
ATOM     19  C   UNL     1      -0.087  -8.429  -6.185  0.00  0.00    -0.096 C 
ATOM     20  H   UNL     1       0.847  -8.805  -4.410  0.00  0.00    -0.082 HD
ENDBRANCH   1  13
BRANCH   1  21
ATOM     21  C   UNL     1       2.353  -4.293  -1.834  0.00  0.00    +0.129 C 
BRANCH  21  22
ATOM     22  N   UNL     1       2.252  -3.311  -2.915  0.00  0.00    -0.188 NA
ATOM     23  H   UNL     1       2.733  -3.451  -3.745  0.00  0.00    +0.148 HD
BRANCH  22  24
ATOM     24  S   UNL     1       1.315  -1.959  -2.720  0.00  0.00    +0.060 S 
ATOM     25  O   UNL     1       0.057  -2.404  -2.231  0.00  0.00    -0.153 OA
ATOM     26  O   UNL     1       1.442  -1.201  -3.916  0.00  0.00    -0.153 OA
BRANCH  24  30
ATOM     27  C   UNL     1       3.714   2.361  -1.018  0.00  0.00    +0.045 C 
ATOM     28  C   UNL     1       3.142   1.001  -0.710  0.00  0.00    -0.030 A 
ATOM     29  C   UNL     1       2.570   0.247  -1.717  0.00  0.00    +0.034 A 
ATOM     30  C   UNL     1       2.045  -1.000  -1.435  0.00  0.00    +0.124 A 
ATOM     31  C   UNL     1       2.092  -1.495  -0.144  0.00  0.00    +0.069 A 
ATOM     32  C   UNL     1       2.665  -0.741   0.864  0.00  0.00    +0.042 A 
ATOM     33  C   UNL     1       3.194   0.505   0.581  0.00  0.00    +0.045 A 
ATOM     34 CL   UNL     1       3.919   1.449   1.845  0.00  0.00    -0.083 Cl
ATOM     35 CL   UNL     1       1.432  -3.061   0.210  0.00  0.00    -0.081 Cl
ENDBRANCH  24  30
ENDBRANCH  22  24
ENDBRANCH  21  22
ENDBRANCH   1  21
TORSDOF 6
