REMARK  Name = ZINC08708191
REMARK  6 active torsions:
REMARK  status: ('A' for Active; 'I' for Inactive)
REMARK    1  A    between atoms: N_7  and  C_15
REMARK    2  A    between atoms: C_9  and  C_12
REMARK    3  A    between atoms: C_15  and  C_16
REMARK    4  A    between atoms: N_18  and  C_19
REMARK    5  A    between atoms: C_21  and  S_26
REMARK    6  A    between atoms: S_26  and  N_29
REMARK                            x       y       z     vdW  Elec       q    Type
REMARK                         _______ _______ _______ _____ _____    ______ ____
ROOT
ATOM      1  C   UNL     1      -0.090   1.389  -0.148  0.00  0.00    +0.235 C 
ATOM      2  O   UNL     1      -1.205   1.852  -0.258  0.00  0.00    -0.274 OA
ATOM      3  N   UNL     1       0.980   2.208  -0.111  0.00  0.00    -0.283 N 
ATOM      4  H   UNL     1       1.875   1.836  -0.096  0.00  0.00    +0.155 HD
ENDROOT
BRANCH   3   5
ATOM      5  C   UNL     1       0.798   3.596  -0.094  0.00  0.00    +0.054 A 
ATOM      6  C   UNL     1      -0.268   4.167  -0.777  0.00  0.00    +0.053 A 
ATOM      7  C   UNL     1      -0.447   5.536  -0.755  0.00  0.00    +0.107 A 
ATOM      8  C   UNL     1       0.439   6.340  -0.062  0.00  0.00    +0.030 A 
ATOM      9  C   UNL     1       1.504   5.777   0.616  0.00  0.00    +0.024 A 
ATOM     10  C   UNL     1       1.687   4.406   0.602  0.00  0.00    +0.062 A 
ATOM     11 CL   UNL     1       3.024   3.699   1.452  0.00  0.00    -0.082 Cl
BRANCH   7  12
ATOM     12  S   UNL     1      -1.804   6.260  -1.616  0.00  0.00    +0.061 S 
ATOM     13  O   UNL     1      -2.797   5.250  -1.732  0.00  0.00    -0.153 OA
ATOM     14  O   UNL     1      -2.059   7.511  -0.993  0.00  0.00    -0.153 OA
BRANCH  12  15
ATOM     15  N   UNL     1      -1.286   6.593  -3.153  0.00  0.00    -0.177 NA
ATOM     16  C   UNL     1      -0.670   7.852  -3.596  0.00  0.00    +0.109 C 
ATOM     17  C   UNL     1      -0.376   7.713  -5.104  0.00  0.00    +0.018 C 
ATOM     18  C   UNL     1      -1.365   6.603  -5.548  0.00  0.00    +0.018 C 
ATOM     19  C   UNL     1      -1.372   5.678  -4.306  0.00  0.00    +0.109 C 
ENDBRANCH  12  15
ENDBRANCH   7  12
ENDBRANCH   3   5
BRANCH   1  20
ATOM     20  C   UNL     1       0.101  -0.103  -0.059  0.00  0.00    +0.201 C 
BRANCH  20  27
ATOM     21  C   UNL     1      -1.992   0.610   3.337  0.00  0.00    +0.002 A 
ATOM     22  C   UNL     1      -3.365   0.750   3.265  0.00  0.00    +0.004 A 
ATOM     23  C   UNL     1      -4.037   0.392   2.111  0.00  0.00    +0.047 A 
ATOM     24  C   UNL     1      -3.337  -0.109   1.023  0.00  0.00    +0.143 A 
ATOM     25  C   UNL     1      -1.957  -0.254   1.095  0.00  0.00    +0.073 A 
ATOM     26  C   UNL     1      -1.288   0.110   2.260  0.00  0.00    +0.027 A 
ATOM     27  N   UNL     1      -1.211  -0.760   0.026  0.00  0.00    -0.314 N 
ATOM     28  C   UNL     1      -1.932  -0.659  -1.248  0.00  0.00    +0.160 C 
ATOM     29  C   UNL     1      -3.336  -1.250  -1.063  0.00  0.00    +0.275 C 
ATOM     30  O   UNL     1      -4.028  -0.448  -0.100  0.00  0.00    -0.476 OA
BRANCH  29  31
ATOM     31  C   UNL     1      -4.077  -1.225  -2.375  0.00  0.00    +0.253 C 
ATOM     32  O   UNL     1      -5.066  -0.533  -2.499  0.00  0.00    -0.272 OA
ATOM     33  N   UNL     1      -3.642  -1.971  -3.409  0.00  0.00    -0.326 N 
ATOM     34  H   UNL     1      -2.851  -2.524  -3.310  0.00  0.00    +0.145 HD
ATOM     35  H   UNL     1      -4.119  -1.954  -4.254  0.00  0.00    +0.145 HD
ENDBRANCH  29  31
ENDBRANCH  20  27
ENDBRANCH   1  20
TORSDOF 6
