REMARK  Name = ZINC60060987
REMARK  12 active torsions:
REMARK  status: ('A' for Active; 'I' for Inactive)
REMARK    1  A    between atoms: C_1  and  C_2
REMARK    2  A    between atoms: C_2  and  N_3
REMARK    3  A    between atoms: N_3  and  C_4
REMARK    4  A    between atoms: N_3  and  C_6
REMARK    5  A    between atoms: C_4  and  C_5
REMARK    6  A    between atoms: C_6  and  C_7
REMARK    7  A    between atoms: C_10  and  C_12
REMARK    8  A    between atoms: N_14  and  N_15
REMARK    9  A    between atoms: C_16  and  C_18
REMARK   10  A    between atoms: C_18  and  C_19
REMARK   11  A    between atoms: C_19  and  C_20
REMARK   12  A    between atoms: C_20  and  C_22
REMARK                            x       y       z     vdW  Elec       q    Type
REMARK                         _______ _______ _______ _____ _____    ______ ____
ROOT
ATOM      1  C   UNL     1      -6.492  -2.188   1.670  0.00  0.00    +0.295 C 
ATOM      2  O   UNL     1      -7.590  -2.389   1.186  0.00  0.00    -0.265 OA
ATOM      3  N   UNL     1      -6.360  -2.040   3.003  0.00  0.00    -0.228 N 
ATOM      4  H   UNL     1      -5.484  -1.879   3.388  0.00  0.00    +0.173 HD
ENDROOT
BRANCH   1   8
ATOM      5  C   UNL     1      -3.233  -1.881   0.141  0.00  0.00    +0.090 A 
ATOM      6  C   UNL     1      -3.972  -2.093  -0.970  0.00  0.00    +0.043 A 
ATOM      7  C   UNL     1      -5.305  -2.240  -0.557  0.00  0.00    +0.055 A 
ATOM      8  C   UNL     1      -5.312  -2.108   0.802  0.00  0.00    +0.191 A 
ATOM      9  O   UNL     1      -4.043  -1.896   1.208  0.00  0.00    -0.457 OA
BRANCH   5  10
ATOM     10  C   UNL     1      -1.741  -1.668   0.176  0.00  0.00    -0.003 C 
BRANCH  10  11
ATOM     11  N   UNL     1      -1.443  -0.252  -0.073  0.00  0.00    +0.384 N 
ATOM     12  H   UNL     1      -1.876   0.036  -0.938  0.00  0.00    -0.081 HD
BRANCH  11  14
ATOM     13  C   UNL     1      -1.768   2.044   0.715  0.00  0.00    -0.017 C 
ATOM     14  C   UNL     1      -1.967   0.561   1.032  0.00  0.00    -0.082 C 
ENDBRANCH  11  14
BRANCH  11  15
ATOM     15  C   UNL     1       0.012  -0.067  -0.169  0.00  0.00    -0.082 C 
ATOM     16  C   UNL     1       0.538  -0.799  -1.406  0.00  0.00    -0.017 C 
ENDBRANCH  11  15
ENDBRANCH  10  11
ENDBRANCH   5  10
ENDBRANCH   1   8
BRANCH   3  17
ATOM     17  N   UNL     1      -7.487  -2.116   3.832  0.00  0.00    -0.234 N 
ATOM     18  C   UNL     1      -7.354  -1.968   5.165  0.00  0.00    +0.229 C 
ATOM     19  O   UNL     1      -6.259  -1.767   5.647  0.00  0.00    -0.274 OA
ATOM     20  H   UNL     1      -8.362  -2.277   3.446  0.00  0.00    +0.173 HD
BRANCH  18  21
ATOM     21  C   UNL     1      -8.566  -2.050   6.056  0.00  0.00    +0.105 C 
BRANCH  21  22
ATOM     22  C   UNL     1      -8.143  -1.849   7.513  0.00  0.00    +0.089 C 
BRANCH  22  23
ATOM     23  C   UNL     1      -9.355  -1.931   8.404  0.00  0.00    +0.164 C 
ATOM     24  O   UNL     1     -10.450  -2.131   7.922  0.00  0.00    -0.292 OA
BRANCH  23  25
ATOM     25  C   UNL     1      -9.211  -1.769   9.859  0.00  0.00    +0.017 A 
ATOM     26  C   UNL     1      -7.950  -1.532  10.418  0.00  0.00    +0.012 A 
ATOM     27  C   UNL     1      -7.823  -1.380  11.782  0.00  0.00    +0.016 A 
ATOM     28  C   UNL     1      -8.938  -1.462  12.599  0.00  0.00    +0.018 A 
ATOM     29  C   UNL     1     -10.190  -1.697  12.052  0.00  0.00    +0.016 A 
ATOM     30  C   UNL     1     -10.334  -1.845  10.690  0.00  0.00    +0.012 A 
ATOM     31 BR   UNL     1      -8.752  -1.254  14.469  0.00  0.00    -0.050 Br
ENDBRANCH  23  25
ENDBRANCH  22  23
ENDBRANCH  21  22
ENDBRANCH  18  21
ENDBRANCH   3  17
TORSDOF 10
