REMARK  Name = ZINC12880998
REMARK  6 active torsions:
REMARK  status: ('A' for Active; 'I' for Inactive)
REMARK    1  A    between atoms: C_1  and  C_2
REMARK    2  A    between atoms: C_3  and  C_17
REMARK    3  A    between atoms: C_4  and  C_10
REMARK    4  A    between atoms: N_19  and  C_20
REMARK    5  A    between atoms: C_23  and  O_26
REMARK    6  A    between atoms: O_26  and  C_27
REMARK                            x       y       z     vdW  Elec       q    Type
REMARK                         _______ _______ _______ _____ _____    ______ ____
ROOT
ATOM      1  C   UNL     1      -0.034   0.673  -0.383  0.00  0.00    +0.061 C 
ATOM      2  C   UNL     1      -0.761   1.300   0.779  0.00  0.00    +0.019 C 
ATOM      3  C   UNL     1      -0.079   1.603   1.903  0.00  0.00    +0.056 C 
ATOM      4  C   UNL     1      -0.849   2.232   3.047  0.00  0.00    +0.142 C 
ATOM      5  N   UNL     1      -2.288   2.461   2.837  0.00  0.00    -0.288 N 
ATOM      6  C   UNL     1      -2.829   2.104   1.655  0.00  0.00    +0.304 C 
ATOM      7  O   UNL     1      -4.016   2.289   1.472  0.00  0.00    -0.252 OA
ATOM      8  N   UNL     1      -2.099   1.556   0.675  0.00  0.00    -0.273 N 
ATOM      9  H   UNL     1      -2.834   2.860   3.532  0.00  0.00    +0.151 HD
ATOM     10  H   UNL     1      -2.547   1.324  -0.154  0.00  0.00    +0.156 HD
ENDROOT
BRANCH   4  11
ATOM     11  C   UNL     1      -0.692   1.345   4.255  0.00  0.00    -0.020 A 
ATOM     12  C   UNL     1      -1.381   0.149   4.329  0.00  0.00    +0.006 A 
ATOM     13  C   UNL     1      -1.234  -0.668   5.434  0.00  0.00    +0.003 A 
ATOM     14  C   UNL     1      -0.405  -0.284   6.473  0.00  0.00    +0.038 A 
ATOM     15  C   UNL     1       0.281   0.916   6.402  0.00  0.00    +0.124 A 
ATOM     16  C   UNL     1       0.137   1.731   5.292  0.00  0.00    +0.044 A 
ATOM     17  F   UNL     1       1.090   1.292   7.416  0.00  0.00    -0.205 F 
ENDBRANCH   4  11
BRANCH   3  18
ATOM     18  C   UNL     1       1.309   1.343   2.010  0.00  0.00    +0.248 C 
ATOM     19  O   UNL     1       2.112   2.243   1.843  0.00  0.00    -0.270 OA
ATOM     20  N   UNL     1       1.742   0.099   2.297  0.00  0.00    -0.282 N 
ATOM     21  H   UNL     1       1.107  -0.586   2.558  0.00  0.00    +0.155 HD
BRANCH  20  22
ATOM     22  C   UNL     1       3.107  -0.203   2.218  0.00  0.00    +0.034 A 
ATOM     23  C   UNL     1       4.051   0.807   2.346  0.00  0.00    +0.027 A 
ATOM     24  C   UNL     1       5.396   0.508   2.272  0.00  0.00    +0.048 A 
ATOM     25  C   UNL     1       5.805  -0.801   2.061  0.00  0.00    +0.130 A 
ATOM     26  C   UNL     1       4.863  -1.810   1.929  0.00  0.00    +0.048 A 
ATOM     27  C   UNL     1       3.517  -1.513   2.007  0.00  0.00    +0.027 A 
BRANCH  25  28
ATOM     28  O   UNL     1       7.131  -1.095   1.984  0.00  0.00    -0.406 OA
BRANCH  28  29
ATOM     29  C   UNL     1       8.046  -0.007   2.129  0.00  0.00    +0.575 C 
ATOM     30  F   UNL     1       7.866   0.590   3.381  0.00  0.00    -0.133 F 
ATOM     31  F   UNL     1       9.357  -0.483   2.024  0.00  0.00    -0.133 F 
ATOM     32  F   UNL     1       7.811   0.938   1.124  0.00  0.00    -0.133 F 
ENDBRANCH  28  29
ENDBRANCH  25  28
ENDBRANCH  20  22
ENDBRANCH   3  18
TORSDOF 5
