REMARK  Name = ZINC46866401
REMARK  7 active torsions:
REMARK  status: ('A' for Active; 'I' for Inactive)
REMARK    1  A    between atoms: C_1  and  C_2
REMARK    2  A    between atoms: C_2  and  N_3
REMARK    3  A    between atoms: N_3  and  C_4
REMARK    4  A    between atoms: N_3  and  C_19
REMARK    5  A    between atoms: C_4  and  C_5
REMARK    6  A    between atoms: C_5  and  N_6
REMARK    7  A    between atoms: C_24  and  C_25
REMARK                            x       y       z     vdW  Elec       q    Type
REMARK                         _______ _______ _______ _____ _____    ______ ____
ROOT
ATOM      1  N   UNL     1       2.812  -2.917   0.266  0.00  0.00    -0.298 N 
ATOM      2  C   UNL     1       2.792  -3.969   1.109  0.00  0.00    +0.302 C 
ATOM      3  O   UNL     1       1.737  -4.353   1.577  0.00  0.00    -0.253 OA
ATOM      4  N   UNL     1       3.940  -4.596   1.431  0.00  0.00    -0.285 N 
ATOM      5  C   UNL     1       3.922  -5.825   2.236  0.00  0.00    +0.114 C 
ATOM      6  C   UNL     1       4.844  -5.637   3.445  0.00  0.00    +0.084 C 
ATOM      7  C   UNL     1       6.234  -5.218   2.962  0.00  0.00    +0.173 C 
ATOM      8  C   UNL     1       6.144  -3.891   2.206  0.00  0.00    +0.084 C 
ATOM      9  C   UNL     1       5.234  -4.066   0.980  0.00  0.00    +0.114 C 
ATOM     10  O   UNL     1       7.109  -5.072   4.087  0.00  0.00    -0.346 OA
ATOM     11  C   UNL     1       8.201  -5.996   3.902  0.00  0.00    +0.191 C 
ATOM     12  C   UNL     1       8.181  -6.261   2.376  0.00  0.00    +0.191 C 
ATOM     13  O   UNL     1       6.762  -6.231   2.090  0.00  0.00    -0.346 OA
ATOM     14  H   UNL     1       3.658  -2.565  -0.050  0.00  0.00    +0.150 HD
ENDROOT
BRANCH   1  15
ATOM     15  C   UNL     1       1.554  -2.306  -0.172  0.00  0.00    +0.124 C 
BRANCH  15  16
ATOM     16  C   UNL     1       1.856  -1.140  -1.116  0.00  0.00    +0.124 C 
BRANCH  16  17
ATOM     17  N   UNL     1       0.609  -0.448  -1.451  0.00  0.00    -0.328 N 
BRANCH  17  18
ATOM     18  C   UNL     1      -0.082  -0.780  -2.618  0.00  0.00    +0.033 A 
ATOM     19  C   UNL     1       0.290  -0.217  -3.832  0.00  0.00    +0.023 A 
ATOM     20  C   UNL     1      -0.395  -0.547  -4.984  0.00  0.00    +0.002 A 
ATOM     21  C   UNL     1      -1.452  -1.438  -4.930  0.00  0.00    +0.000 A 
ATOM     22  C   UNL     1      -1.826  -1.999  -3.723  0.00  0.00    +0.005 A 
ATOM     23  C   UNL     1      -1.141  -1.678  -2.568  0.00  0.00    -0.029 A 
ATOM     24  C   UNL     1      -1.545  -2.295  -1.254  0.00  0.00    +0.045 C 
ENDBRANCH  17  18
BRANCH  17  26
ATOM     25  C   UNL     1       0.655   1.952  -0.979  0.00  0.00    +0.024 C 
ATOM     26  C   UNL     1       0.088   0.593  -0.561  0.00  0.00    +0.102 C 
ENDBRANCH  17  26
ENDBRANCH  16  17
ENDBRANCH  15  16
ENDBRANCH   1  15
TORSDOF 5
