REMARK  Name = ZINC07379687
REMARK  8 active torsions:
REMARK  status: ('A' for Active; 'I' for Inactive)
REMARK    1  A    between atoms: C_1  and  C_2
REMARK    2  A    between atoms: C_2  and  C_3
REMARK    3  A    between atoms: C_2  and  C_4
REMARK    4  A    between atoms: C_2  and  C_5
REMARK    5  A    between atoms: C_8  and  S_11
REMARK    6  A    between atoms: S_11  and  N_14
REMARK    7  A    between atoms: N_14  and  N_15
REMARK    8  A    between atoms: C_16  and  C_18
REMARK                            x       y       z     vdW  Elec       q    Type
REMARK                         _______ _______ _______ _____ _____    ______ ____
ROOT
ATOM      1  N   UNL     1       1.223  -2.923  -1.606  0.00  0.00    -0.108 NA
ATOM      2  H   UNL     1       0.500  -3.476  -1.940  0.00  0.00    +0.172 HD
ENDROOT
BRANCH   1   3
ATOM      3  N   UNL     1       2.260  -2.532  -2.463  0.00  0.00    -0.227 N 
ATOM      4  C   UNL     1       2.960  -3.463  -3.142  0.00  0.00    +0.265 C 
ATOM      5  O   UNL     1       2.691  -4.642  -3.011  0.00  0.00    -0.268 OA
ATOM      6  H   UNL     1       2.475  -1.592  -2.568  0.00  0.00    +0.171 HD
BRANCH   4   7
ATOM      7  C   UNL     1       4.045  -3.054  -4.039  0.00  0.00    +0.076 A 
ATOM      8  C   UNL     1       4.873  -3.837  -4.816  0.00  0.00    +0.024 A 
ATOM      9  C   UNL     1       5.841  -3.202  -5.594  0.00  0.00    -0.036 A 
ATOM     10  C   UNL     1       5.892  -1.845  -5.521  0.00  0.00    -0.006 A 
ATOM     11  S   UNL     1       4.634  -1.414  -4.417  0.00  0.00    -0.088 S 
ATOM     12  C   UNL     1       6.974  -1.276  -6.396  0.00  0.00    +0.043 C 
ATOM     13  C   UNL     1       7.895  -2.475  -6.709  0.00  0.00    +0.010 C 
ATOM     14  C   UNL     1       6.926  -3.665  -6.570  0.00  0.00    +0.036 C 
ENDBRANCH   4   7
ENDBRANCH   1   3
BRANCH   1  15
ATOM     15  S   UNL     1       1.232  -2.441  -0.022  0.00  0.00    +0.074 S 
ATOM     16  O   UNL     1       2.489  -2.832   0.515  0.00  0.00    -0.152 OA
ATOM     17  O   UNL     1      -0.002  -2.866   0.539  0.00  0.00    -0.152 OA
BRANCH  15  21
ATOM     18  C   UNL     1       1.171   2.086   0.002  0.00  0.00    -0.042 A 
ATOM     19  C   UNL     1      -0.017   1.378   0.010  0.00  0.00    +0.006 A 
ATOM     20  C   UNL     1       0.002  -0.004   0.002  0.00  0.00    +0.029 A 
ATOM     21  C   UNL     1       1.208  -0.679  -0.013  0.00  0.00    +0.107 A 
ATOM     22  C   UNL     1       2.396   0.029  -0.021  0.00  0.00    +0.029 A 
ATOM     23  C   UNL     1       2.377   1.411  -0.015  0.00  0.00    +0.006 A 
BRANCH  18  25
ATOM     24  C   UNL     1       0.434   4.086   1.268  0.00  0.00    +0.015 C 
ATOM     25  C   UNL     1       1.151   3.592   0.010  0.00  0.00    -0.013 C 
ATOM     26  C   UNL     1       2.586   4.122  -0.001  0.00  0.00    +0.015 C 
ATOM     27  C   UNL     1       0.411   4.099  -1.230  0.00  0.00    +0.015 C 
ENDBRANCH  18  25
ENDBRANCH  15  21
ENDBRANCH   1  15
TORSDOF 5
