REMARK  Name = ZINC46584887
REMARK  8 active torsions:
REMARK  status: ('A' for Active; 'I' for Inactive)
REMARK    1  A    between atoms: C_1  and  C_2
REMARK    2  A    between atoms: C_2  and  C_4
REMARK    3  A    between atoms: C_2  and  S_15
REMARK    4  A    between atoms: N_6  and  C_7
REMARK    5  A    between atoms: S_15  and  C_16
REMARK    6  A    between atoms: N_20  and  C_21
REMARK    7  A    between atoms: C_25  and  N_27
REMARK    8  A    between atoms: C_28  and  C_30
REMARK                            x       y       z     vdW  Elec       q    Type
REMARK                         _______ _______ _______ _____ _____    ______ ____
ROOT
ATOM      1  C   UNL     1       2.167   1.106  -1.308  0.00  0.00    +0.197 A 
ATOM      2  N   UNL     1       2.768   1.308  -0.158  0.00  0.00    -0.122 NA
ATOM      3  N   UNL     1       3.989   1.656  -0.358  0.00  0.00    -0.137 NA
ATOM      4  C   UNL     1       4.240   1.698  -1.636  0.00  0.00    +0.230 A 
ATOM      5  N   UNL     1       3.090   1.344  -2.289  0.00  0.00    -0.277 N 
ENDROOT
BRANCH   5   6
ATOM      6  C   UNL     1       2.898   1.247  -3.675  0.00  0.00    +0.052 A 
ATOM      7  C   UNL     1       2.318   0.108  -4.219  0.00  0.00    +0.026 A 
ATOM      8  C   UNL     1       2.128   0.012  -5.584  0.00  0.00    +0.004 A 
ATOM      9  C   UNL     1       2.514   1.048  -6.412  0.00  0.00    +0.023 A 
ATOM     10  C   UNL     1       3.094   2.190  -5.875  0.00  0.00    +0.035 A 
ATOM     11  C   UNL     1       3.281   2.291  -4.503  0.00  0.00    +0.049 A 
BRANCH  10  12
ATOM     12  N   UNL     1       3.485   3.239  -6.714  0.00  0.00    -0.286 N 
ATOM     13  C   UNL     1       2.757   3.532  -7.810  0.00  0.00    +0.214 C 
ATOM     14  O   UNL     1       1.815   2.833  -8.117  0.00  0.00    -0.276 OA
ATOM     15  C   UNL     1       3.115   4.728  -8.655  0.00  0.00    +0.109 C 
ATOM     16  H   UNL     1       4.280   3.755  -6.508  0.00  0.00    +0.155 HD
ENDBRANCH  10  12
ENDBRANCH   5   6
BRANCH   1  17
ATOM     17  S   UNL     1       0.491   0.615  -1.543  0.00  0.00    -0.073 S 
BRANCH  17  19
ATOM     18  C   UNL     1      -0.170   1.854   0.804  0.00  0.00    +0.029 C 
ATOM     19  C   UNL     1      -0.165   0.475   0.143  0.00  0.00    +0.137 C 
BRANCH  19  20
ATOM     20  C   UNL     1      -1.572  -0.062   0.091  0.00  0.00    +0.230 C 
ATOM     21  O   UNL     1      -2.213   0.013  -0.936  0.00  0.00    -0.274 OA
ATOM     22  N   UNL     1      -2.119  -0.627   1.186  0.00  0.00    -0.280 N 
ATOM     23  H   UNL     1      -1.581  -0.762   1.982  0.00  0.00    +0.155 HD
BRANCH  22  24
ATOM     24  C   UNL     1      -3.465  -1.019   1.175  0.00  0.00    +0.105 A 
ATOM     25  C   UNL     1      -4.296  -0.687   2.238  0.00  0.00    +0.147 A 
ATOM     26  C   UNL     1      -5.624  -1.076   2.223  0.00  0.00    +0.040 A 
ATOM     27  C   UNL     1      -6.124  -1.794   1.153  0.00  0.00    +0.006 A 
ATOM     28  C   UNL     1      -5.300  -2.126   0.093  0.00  0.00    +0.040 A 
ATOM     29  C   UNL     1      -3.972  -1.736   0.098  0.00  0.00    +0.147 A 
ATOM     30  F   UNL     1      -3.170  -2.057  -0.940  0.00  0.00    -0.203 F 
ATOM     31  F   UNL     1      -3.808   0.015   3.284  0.00  0.00    -0.203 F 
ENDBRANCH  22  24
ENDBRANCH  19  20
ENDBRANCH  17  19
ENDBRANCH   1  17
TORSDOF 6
