REMARK  Name = ZINC25261644
REMARK  8 active torsions:
REMARK  status: ('A' for Active; 'I' for Inactive)
REMARK    1  A    between atoms: C_4  and  C_7
REMARK    2  A    between atoms: C_7  and  C_8
REMARK    3  A    between atoms: C_8  and  C_10
REMARK    4  A    between atoms: C_8  and  N_34
REMARK    5  A    between atoms: N_12  and  N_13
REMARK    6  A    between atoms: C_14  and  C_16
REMARK    7  A    between atoms: N_25  and  C_27
REMARK    8  A    between atoms: C_27  and  C_28
REMARK                            x       y       z     vdW  Elec       q    Type
REMARK                         _______ _______ _______ _____ _____    ______ ____
ROOT
ATOM      1  N   UNL     1       4.884   1.140  -0.039  0.00  0.00    -0.229 N 
ATOM      2  C   UNL     1       3.780   1.914  -0.024  0.00  0.00    +0.281 C 
ATOM      3  O   UNL     1       3.888   3.125  -0.019  0.00  0.00    -0.267 OA
ATOM      4  H   UNL     1       4.787   0.044  -0.043  0.00  0.00    +0.173 HD
ENDROOT
BRANCH   2   5
ATOM      5  C   UNL     1       2.442   1.291  -0.015  0.00  0.00    +0.155 A 
ATOM      6  C   UNL     1       1.231   2.128   0.002  0.00  0.00    +0.020 A 
ATOM      7  C   UNL     1       1.277   3.518   0.009  0.00  0.00    +0.011 A 
ATOM      8  C   UNL     1       0.098   4.233   0.025  0.00  0.00    +0.001 A 
ATOM      9  C   UNL     1      -1.129   3.582   0.033  0.00  0.00    +0.001 A 
ATOM     10  C   UNL     1      -1.196   2.205   0.031  0.00  0.00    +0.014 A 
ATOM     11  C   UNL     1      -0.018   1.465   0.010  0.00  0.00    +0.050 A 
ATOM     12  C   UNL     1       0.002  -0.004   0.002  0.00  0.00    +0.275 A 
ATOM     13  O   UNL     1      -1.035  -0.641   0.008  0.00  0.00    -0.266 OA
ATOM     14  N   UNL     1       1.197  -0.630  -0.013  0.00  0.00    -0.224 N 
ATOM     15  N   UNL     1       2.317  -0.014  -0.021  0.00  0.00    -0.163 NA
BRANCH  14  16
ATOM     16  C   UNL     1       1.211  -2.095  -0.021  0.00  0.00    +0.182 C 
BRANCH  16  17
ATOM     17  C   UNL     1       1.203  -2.590  -1.444  0.00  0.00    -0.026 A 
ATOM     18  C   UNL     1       0.002  -2.834  -2.084  0.00  0.00    +0.005 A 
ATOM     19  C   UNL     1      -0.006  -3.283  -3.391  0.00  0.00    +0.000 A 
ATOM     20  C   UNL     1       1.187  -3.498  -4.055  0.00  0.00    +0.000 A 
ATOM     21  C   UNL     1       2.388  -3.259  -3.414  0.00  0.00    +0.000 A 
ATOM     22  C   UNL     1       2.396  -2.805  -2.108  0.00  0.00    +0.005 A 
ENDBRANCH  16  17
ENDBRANCH  14  16
ENDBRANCH   2   5
BRANCH   1  25
ATOM     23  C   UNL     1       7.257   0.957  -0.062  0.00  0.00    +0.250 C 
ATOM     24  O   UNL     1       7.150  -0.251  -0.068  0.00  0.00    -0.272 OA
ATOM     25  N   UNL     1       6.154   1.731  -0.048  0.00  0.00    -0.233 N 
ATOM     26  H   UNL     1       6.251   2.826  -0.043  0.00  0.00    +0.173 HD
BRANCH  23  27
ATOM     27  C   UNL     1       8.624   1.593  -0.072  0.00  0.00    +0.166 C 
BRANCH  27  28
ATOM     28  N   UNL     1       9.609   0.624  -0.559  0.00  0.00    -0.288 N 
ATOM     29  C   UNL     1       9.795  -0.537   0.099  0.00  0.00    +0.298 C 
ATOM     30  O   UNL     1       9.145  -0.781   1.097  0.00  0.00    -0.253 OA
ATOM     31  N   UNL     1      10.702  -1.428  -0.349  0.00  0.00    -0.313 N 
ATOM     32  H   UNL     1      10.198   0.845  -1.462  0.00  0.00    +0.151 HD
ATOM     33  H   UNL     1      10.854  -2.376   0.188  0.00  0.00    +0.146 HD
ATOM     34  H   UNL     1      11.290  -1.207  -1.251  0.00  0.00    +0.146 HD
ENDBRANCH  27  28
BRANCH  27  35
ATOM     35  C   UNL     1       8.994   2.027   1.348  0.00  0.00    +0.067 C 
BRANCH  35  39
ATOM     36  C   UNL     1      12.707   4.138   1.268  0.00  0.00    +0.000 A 
ATOM     37  C   UNL     1      11.517   4.826   1.119  0.00  0.00    +0.000 A 
ATOM     38  C   UNL     1      10.316   4.143   1.145  0.00  0.00    +0.004 A 
ATOM     39  C   UNL     1      10.304   2.772   1.319  0.00  0.00    -0.045 A 
ATOM     40  C   UNL     1      11.493   2.084   1.474  0.00  0.00    +0.004 A 
ATOM     41  C   UNL     1      12.695   2.766   1.443  0.00  0.00    +0.000 A 
ENDBRANCH  35  39
ENDBRANCH  27  35
ENDBRANCH  23  27
ENDBRANCH   1  25
TORSDOF 8
