REMARK  Name = ZINC09590182
REMARK  13 active torsions:
REMARK  status: ('A' for Active; 'I' for Inactive)
REMARK    1  A    between atoms: C_1  and  C_2
REMARK    2  A    between atoms: C_2  and  C_3
REMARK    3  A    between atoms: C_3  and  C_4
REMARK    4  A    between atoms: C_4  and  O_5
REMARK    5  A    between atoms: O_5  and  C_6
REMARK    6  A    between atoms: C_9  and  C_12
REMARK    7  A    between atoms: C_17  and  C_20
REMARK    8  A    between atoms: C_20  and  S_21
REMARK    9  A    between atoms: S_21  and  C_22
REMARK   10  A    between atoms: C_22  and  C_23
REMARK   11  A    between atoms: N_25  and  C_26
REMARK   12  A    between atoms: C_29  and  N_32
REMARK   13  A    between atoms: C_33  and  C_35
REMARK                            x       y       z     vdW  Elec       q    Type
REMARK                         _______ _______ _______ _____ _____    ______ ____
ROOT
ATOM      1  C   UNL     1       6.581  14.884   1.814  0.00  0.00    +0.250 C 
ATOM      2  O   UNL     1       6.875  15.086   0.652  0.00  0.00    -0.270 OA
ATOM      3  N   UNL     1       5.409  14.293   2.119  0.00  0.00    -0.261 N 
ATOM      4  C   UNL     1       4.537  13.914   1.106  0.00  0.00    +0.165 A 
ATOM      5  N   UNL     1       3.357  13.335   1.202  0.00  0.00    -0.229 NA
ATOM      6  C   UNL     1       2.653  13.035   0.128  0.00  0.00    +0.060 A 
ATOM      7  C   UNL     1       3.166  13.346  -1.087  0.00  0.00    +0.072 A 
ATOM      8  S   UNL     1       4.721  14.088  -0.612  0.00  0.00    -0.060 S 
ATOM      9  H   UNL     1       5.174  14.132   3.046  0.00  0.00    +0.157 HD
ENDROOT
BRANCH   1  13
ATOM     10  C   UNL     1       9.245  16.043   4.911  0.00  0.00    +0.121 A 
ATOM     11  C   UNL     1       9.584  16.274   3.583  0.00  0.00    +0.046 A 
ATOM     12  C   UNL     1       8.723  15.900   2.576  0.00  0.00    +0.016 A 
ATOM     13  C   UNL     1       7.507  15.287   2.890  0.00  0.00    +0.037 A 
ATOM     14  C   UNL     1       7.167  15.061   4.227  0.00  0.00    +0.016 A 
ATOM     15  C   UNL     1       8.037  15.433   5.228  0.00  0.00    +0.046 A 
BRANCH  10  16
ATOM     16  O   UNL     1      10.096  16.413   5.901  0.00  0.00    -0.492 OA
BRANCH  16  17
ATOM     17  C   UNL     1       9.685  16.146   7.244  0.00  0.00    +0.229 C 
BRANCH  17  18
ATOM     18  C   UNL     1      10.765  16.630   8.213  0.00  0.00    +0.041 C 
BRANCH  18  20
ATOM     19  C   UNL     1      11.406  16.828  10.620  0.00  0.00    +0.004 C 
ATOM     20  C   UNL     1      10.326  16.344   9.650  0.00  0.00    -0.000 C 
ENDBRANCH  18  20
ENDBRANCH  17  18
ENDBRANCH  16  17
ENDBRANCH  10  16
ENDBRANCH   1  13
BRANCH   6  21
ATOM     21  C   UNL     1       1.308  12.367   0.249  0.00  0.00    +0.125 C 
BRANCH  21  22
ATOM     22  S   UNL     1       1.522  10.566   0.223  0.00  0.00    -0.145 S 
BRANCH  22  23
ATOM     23  C   UNL     1      -0.166   9.921   0.376  0.00  0.00    +0.165 C 
BRANCH  23  24
ATOM     24  C   UNL     1      -0.131   8.414   0.367  0.00  0.00    +0.227 C 
ATOM     25  O   UNL     1       0.929   7.833   0.268  0.00  0.00    -0.275 OA
ATOM     26  N   UNL     1      -1.277   7.713   0.470  0.00  0.00    -0.285 N 
ATOM     27  H   UNL     1      -2.117   8.175   0.617  0.00  0.00    +0.155 HD
BRANCH  26  28
ATOM     28  C   UNL     1      -1.255   6.316   0.364  0.00  0.00    +0.034 A 
ATOM     29  C   UNL     1      -2.312   5.649  -0.242  0.00  0.00    +0.025 A 
ATOM     30  C   UNL     1      -2.290   4.273  -0.347  0.00  0.00    +0.025 A 
ATOM     31  C   UNL     1      -1.212   3.555   0.154  0.00  0.00    +0.033 A 
ATOM     32  C   UNL     1      -0.158   4.222   0.766  0.00  0.00    +0.025 A 
ATOM     33  C   UNL     1      -0.177   5.598   0.865  0.00  0.00    +0.025 A 
BRANCH  31  34
ATOM     34  N   UNL     1      -1.190   2.159   0.048  0.00  0.00    -0.286 N 
ATOM     35  C   UNL     1      -0.013   1.503   0.029  0.00  0.00    +0.214 C 
ATOM     36  O   UNL     1       1.028   2.125  -0.005  0.00  0.00    -0.276 OA
ATOM     37  C   UNL     1       0.011  -0.004   0.044  0.00  0.00    +0.109 C 
ATOM     38  H   UNL     1      -2.022   1.664  -0.012  0.00  0.00    +0.155 HD
ENDBRANCH  31  34
ENDBRANCH  26  28
ENDBRANCH  23  24
ENDBRANCH  22  23
ENDBRANCH  21  22
ENDBRANCH   6  21
TORSDOF 11
