REMARK  Name = ZINC65801079
REMARK  3 active torsions:
REMARK  status: ('A' for Active; 'I' for Inactive)
REMARK    1  A    between atoms: C_9  and  N_12
REMARK    2  A    between atoms: C_18  and  C_21
REMARK    3  A    between atoms: C_21  and  C_22
REMARK                            x       y       z     vdW  Elec       q    Type
REMARK                         _______ _______ _______ _____ _____    ______ ____
ROOT
ATOM      1  N   UNL     1      -2.321  -2.870   0.056  0.00  0.00    -0.269 N 
ATOM      2  C   UNL     1      -2.275  -4.208  -0.102  0.00  0.00    +0.306 C 
ATOM      3  O   UNL     1      -1.201  -4.776  -0.160  0.00  0.00    -0.252 OA
ATOM      4  N   UNL     1      -3.417  -4.916  -0.196  0.00  0.00    -0.285 N 
ATOM      5  C   UNL     1      -4.715  -4.233  -0.297  0.00  0.00    +0.109 C 
ATOM      6  C   UNL     1      -5.641  -4.771   0.797  0.00  0.00    +0.023 C 
ATOM      7  C   UNL     1      -5.723  -6.296   0.687  0.00  0.00    +0.001 C 
ATOM      8  C   UNL     1      -4.332  -6.899   0.892  0.00  0.00    +0.023 C 
ATOM      9  C   UNL     1      -3.390  -6.385  -0.207  0.00  0.00    +0.109 C 
ATOM     10  H   UNL     1      -3.167  -2.433   0.240  0.00  0.00    +0.156 HD
ENDROOT
BRANCH   1  19
ATOM     11  C   UNL     1      -0.082   1.390  -0.871  0.00  0.00    +0.018 A 
ATOM     12  C   UNL     1       1.093   2.065  -0.949  0.00  0.00    +0.092 A 
ATOM     13  C   UNL     1       2.306   1.397  -0.672  0.00  0.00    +0.337 A 
ATOM     14  O   UNL     1       3.353   2.013  -0.746  0.00  0.00    -0.245 OA
ATOM     15  O   UNL     1       2.333   0.100  -0.330  0.00  0.00    -0.422 OA
ATOM     16  C   UNL     1       1.200  -0.629  -0.234  0.00  0.00    +0.139 A 
ATOM     17  C   UNL     1      -0.043  -0.027  -0.496  0.00  0.00    +0.019 A 
ATOM     18  C   UNL     1      -1.218  -0.777  -0.399  0.00  0.00    +0.035 A 
ATOM     19  C   UNL     1      -1.148  -2.112  -0.044  0.00  0.00    +0.036 A 
ATOM     20  C   UNL     1       0.086  -2.704   0.215  0.00  0.00    +0.027 A 
ATOM     21  C   UNL     1       1.250  -1.971   0.122  0.00  0.00    +0.049 A 
ENDBRANCH   1  19
BRANCH   7  22
ATOM     22  C   UNL     1      -6.675  -6.834   1.757  0.00  0.00    +0.099 C 
BRANCH  22  23
ATOM     23  C   UNL     1      -6.852  -8.319   1.571  0.00  0.00    +0.211 C 
ATOM     24  O   UNL     1      -6.273  -8.890   0.672  0.00  0.00    -0.276 OA
ATOM     25  N   UNL     1      -7.653  -9.012   2.405  0.00  0.00    -0.329 N 
ATOM     26  H   UNL     1      -8.116  -8.555   3.124  0.00  0.00    +0.145 HD
ATOM     27  H   UNL     1      -7.766  -9.968   2.285  0.00  0.00    +0.145 HD
ENDBRANCH  22  23
ENDBRANCH   7  22
TORSDOF 3
