REMARK  Name = ZINC43773482
REMARK  8 active torsions:
REMARK  status: ('A' for Active; 'I' for Inactive)
REMARK    1  A    between atoms: C_1  and  C_2
REMARK    2  A    between atoms: C_7  and  N_8
REMARK    3  A    between atoms: N_8  and  S_9
REMARK    4  A    between atoms: S_9  and  C_12
REMARK    5  A    between atoms: C_25  and  C_28
REMARK    6  A    between atoms: C_31  and  C_34
REMARK    7  A    between atoms: C_34  and  O_36
REMARK    8  A    between atoms: O_36  and  C_37
REMARK                            x       y       z     vdW  Elec       q    Type
REMARK                         _______ _______ _______ _____ _____    ______ ____
ROOT
ATOM      1  C   UNL     1       2.500  -0.640   3.443  0.00  0.00    +0.109 A 
ATOM      2  C   UNL     1       3.116  -1.708   2.816  0.00  0.00    +0.030 A 
ATOM      3  C   UNL     1       4.476  -1.679   2.590  0.00  0.00    +0.025 A 
ATOM      4  C   UNL     1       5.228  -0.577   2.989  0.00  0.00    +0.031 A 
ATOM      5  C   UNL     1       4.611   0.496   3.607  0.00  0.00    -0.018 A 
ATOM      6  C   UNL     1       3.242   0.457   3.832  0.00  0.00    +0.034 A 
ATOM      7  C   UNL     1       5.367   1.724   4.026  0.00  0.00    +0.049 C 
ATOM      8  C   UNL     1       4.636   2.934   3.466  0.00  0.00    -0.023 C 
ATOM      9  C   UNL     1       5.244   3.387   2.400  0.00  0.00    -0.030 C 
ATOM     10  C   UNL     1       6.476   2.563   2.088  0.00  0.00    +0.033 C 
ATOM     11  C   UNL     1       6.766   1.804   3.421  0.00  0.00    +0.029 C 
ATOM     12  C   UNL     1       7.467   0.495   3.209  0.00  0.00    +0.105 C 
ATOM     13  N   UNL     1       6.600  -0.578   2.764  0.00  0.00    -0.336 N 
ATOM     14  H   UNL     1       6.996  -1.339   2.311  0.00  0.00    +0.147 HD
ENDROOT
BRANCH  12  15
ATOM     15  C   UNL     1       8.139   0.100   4.500  0.00  0.00    -0.027 A 
ATOM     16  C   UNL     1       7.398  -0.489   5.509  0.00  0.00    +0.006 A 
ATOM     17  C   UNL     1       8.006  -0.854   6.692  0.00  0.00    +0.015 A 
ATOM     18  C   UNL     1       9.372  -0.627   6.870  0.00  0.00    +0.059 A 
ATOM     19  C   UNL     1      10.113  -0.032   5.848  0.00  0.00    +0.015 A 
ATOM     20  C   UNL     1       9.494   0.323   4.667  0.00  0.00    +0.006 A 
BRANCH  18  21
ATOM     21  C   UNL     1      10.030  -1.014   8.135  0.00  0.00    +0.339 C 
ATOM     22  O   UNL     1       9.382  -1.531   9.023  0.00  0.00    -0.245 OA
BRANCH  21  23
ATOM     23  O   UNL     1      11.348  -0.793   8.304  0.00  0.00    -0.464 OA
ATOM     24  C   UNL     1      11.918  -1.193   9.552  0.00  0.00    +0.280 C 
ENDBRANCH  21  23
ENDBRANCH  18  21
ENDBRANCH  12  15
BRANCH   1  25
ATOM     25  S   UNL     1       0.764  -0.678   3.741  0.00  0.00    +0.072 S 
ATOM     26  O   UNL     1       0.519   0.207   4.826  0.00  0.00    -0.150 OA
ATOM     27  O   UNL     1       0.387  -2.047   3.775  0.00  0.00    -0.150 OA
BRANCH  25  28
ATOM     28  N   UNL     1       0.025  -0.016   2.415  0.00  0.00    -0.216 N 
ATOM     29  H   UNL     1      -0.522   0.779   2.511  0.00  0.00    +0.174 HD
BRANCH  28  36
ATOM     30  C   UNL     1       0.153   1.691   0.143  0.00  0.00    +0.046 C 
ATOM     31  C   UNL     1       0.258   0.193   0.022  0.00  0.00    -0.028 A 
ATOM     32  C   UNL     1       0.426  -0.391  -1.218  0.00  0.00    +0.005 A 
ATOM     33  C   UNL     1       0.522  -1.765  -1.331  0.00  0.00    +0.000 A 
ATOM     34  C   UNL     1       0.450  -2.561  -0.202  0.00  0.00    +0.002 A 
ATOM     35  C   UNL     1       0.282  -1.984   1.042  0.00  0.00    +0.025 A 
ATOM     36  C   UNL     1       0.190  -0.603   1.159  0.00  0.00    +0.051 A 
ENDBRANCH  28  36
ENDBRANCH  25  28
ENDBRANCH   1  25
TORSDOF 6
