REMARK  Name = ZINC41105273
REMARK  7 active torsions:
REMARK  status: ('A' for Active; 'I' for Inactive)
REMARK    1  A    between atoms: C_4  and  N_7
REMARK    2  A    between atoms: N_7  and  S_8
REMARK    3  A    between atoms: S_8  and  C_11
REMARK    4  A    between atoms: C_14  and  N_27
REMARK    5  A    between atoms: C_15  and  N_17
REMARK    6  A    between atoms: N_17  and  S_18
REMARK    7  A    between atoms: S_18  and  C_21
REMARK                            x       y       z     vdW  Elec       q    Type
REMARK                         _______ _______ _______ _____ _____    ______ ____
ROOT
ATOM      1  C   UNL     1       2.433  -3.514   0.685  0.00  0.00    +0.110 A 
ATOM      2  C   UNL     1       1.109  -3.633   1.064  0.00  0.00    +0.031 A 
ATOM      3  C   UNL     1       0.295  -4.575   0.462  0.00  0.00    +0.027 A 
ATOM      4  C   UNL     1       0.807  -5.404  -0.525  0.00  0.00    +0.052 A 
ATOM      5  C   UNL     1       2.143  -5.284  -0.907  0.00  0.00    +0.071 A 
ATOM      6  C   UNL     1       2.950  -4.333  -0.301  0.00  0.00    +0.055 A 
ENDROOT
BRANCH   4   7
ATOM      7  N   UNL     1      -0.015  -6.359  -1.135  0.00  0.00    -0.328 N 
ATOM      8  C   UNL     1      -0.132  -7.713  -0.578  0.00  0.00    +0.105 C 
ATOM      9  C   UNL     1      -1.614  -8.031  -0.359  0.00  0.00    +0.019 C 
ATOM     10  C   UNL     1      -2.375  -7.824  -1.671  0.00  0.00    +0.003 C 
ATOM     11  C   UNL     1      -2.254  -6.362  -2.107  0.00  0.00    +0.019 C 
ATOM     12  C   UNL     1      -0.783  -6.024  -2.342  0.00  0.00    +0.105 C 
ENDBRANCH   4   7
BRANCH   1  13
ATOM     13  S   UNL     1       3.463  -2.312   1.458  0.00  0.00    +0.072 S 
ATOM     14  O   UNL     1       4.806  -2.702   1.202  0.00  0.00    -0.150 OA
ATOM     15  O   UNL     1       2.960  -2.131   2.774  0.00  0.00    -0.150 OA
BRANCH  13  16
ATOM     16  N   UNL     1       3.226  -0.880   0.660  0.00  0.00    -0.216 N 
ATOM     17  H   UNL     1       2.871  -0.113   1.136  0.00  0.00    +0.174 HD
BRANCH  16  21
ATOM     18  C   UNL     1       4.155  -0.571  -3.387  0.00  0.00    +0.000 A 
ATOM     19  C   UNL     1       2.957  -0.070  -2.914  0.00  0.00    +0.002 A 
ATOM     20  C   UNL     1       2.645  -0.171  -1.572  0.00  0.00    +0.024 A 
ATOM     21  C   UNL     1       3.538  -0.776  -0.697  0.00  0.00    +0.048 A 
ATOM     22  C   UNL     1       4.741  -1.279  -1.176  0.00  0.00    +0.024 A 
ATOM     23  C   UNL     1       5.046  -1.175  -2.518  0.00  0.00    +0.002 A 
ENDBRANCH  16  21
ENDBRANCH  13  16
ENDBRANCH   1  13
BRANCH   5  24
ATOM     24  N   UNL     1       2.666  -6.118  -1.903  0.00  0.00    -0.214 N 
ATOM     25  H   UNL     1       2.111  -6.386  -2.652  0.00  0.00    +0.174 HD
BRANCH  24  26
ATOM     26  S   UNL     1       4.231  -6.647  -1.801  0.00  0.00    +0.072 S 
ATOM     27  O   UNL     1       4.416  -7.576  -2.861  0.00  0.00    -0.150 OA
ATOM     28  O   UNL     1       5.042  -5.490  -1.652  0.00  0.00    -0.150 OA
BRANCH  26  29
ATOM     29  C   UNL     1       4.377  -7.560  -0.301  0.00  0.00    +0.108 A 
ATOM     30  C   UNL     1       4.729  -6.915   0.869  0.00  0.00    +0.029 A 
ATOM     31  C   UNL     1       4.843  -7.631   2.046  0.00  0.00    +0.002 A 
ATOM     32  C   UNL     1       4.604  -8.993   2.053  0.00  0.00    +0.000 A 
ATOM     33  C   UNL     1       4.251  -9.638   0.882  0.00  0.00    +0.002 A 
ATOM     34  C   UNL     1       4.133  -8.921  -0.294  0.00  0.00    +0.029 A 
ENDBRANCH  26  29
ENDBRANCH  24  26
ENDBRANCH   5  24
TORSDOF 7
