REMARK  Name = ZINC36787091
REMARK  10 active torsions:
REMARK  status: ('A' for Active; 'I' for Inactive)
REMARK    1  A    between atoms: C_1  and  C_2
REMARK    2  A    between atoms: C_2  and  C_4
REMARK    3  A    between atoms: C_2  and  N_7
REMARK    4  A    between atoms: C_4  and  C_5
REMARK    5  A    between atoms: C_4  and  C_6
REMARK    6  A    between atoms: N_7  and  C_8
REMARK    7  A    between atoms: N_7  and  C_9
REMARK    8  A    between atoms: C_12  and  S_16
REMARK    9  A    between atoms: C_14  and  N_15
REMARK   10  A    between atoms: S_16  and  N_19
REMARK                            x       y       z     vdW  Elec       q    Type
REMARK                         _______ _______ _______ _____ _____    ______ ____
ROOT
ATOM      1  C   UNL     1      -0.845  -1.083  -2.431  0.00  0.00    +0.051 A 
ATOM      2  C   UNL     1      -1.276  -2.375  -2.692  0.00  0.00    +0.027 A 
ATOM      3  C   UNL     1      -2.266  -2.596  -3.631  0.00  0.00    +0.030 A 
ATOM      4  C   UNL     1      -2.829  -1.533  -4.313  0.00  0.00    +0.107 A 
ATOM      5  C   UNL     1      -2.404  -0.242  -4.059  0.00  0.00    +0.053 A 
ATOM      6  C   UNL     1      -1.415  -0.010  -3.115  0.00  0.00    +0.048 A 
ENDROOT
BRANCH   6   7
ATOM      7  N   UNL     1      -0.988   1.297  -2.853  0.00  0.00    -0.356 N 
ATOM      8  H   UNL     1      -0.239   1.452  -2.256  0.00  0.00    +0.142 HD
ATOM      9  H   UNL     1      -1.440   2.048  -3.268  0.00  0.00    +0.142 HD
ENDBRANCH   6   7
BRANCH   4  10
ATOM     10  S   UNL     1      -4.090  -1.824  -5.509  0.00  0.00    +0.056 S 
ATOM     11  O   UNL     1      -4.068  -0.717  -6.399  0.00  0.00    -0.153 OA
ATOM     12  O   UNL     1      -3.925  -3.163  -5.955  0.00  0.00    -0.153 OA
BRANCH  10  13
ATOM     13  N   UNL     1      -5.541  -1.765  -4.714  0.00  0.00    -0.204 NA
ATOM     14  H   UNL     1      -5.565  -1.593  -3.760  0.00  0.00    +0.144 HD
ATOM     15  H   UNL     1      -6.368  -1.902  -5.203  0.00  0.00    +0.144 HD
ENDBRANCH  10  13
ENDBRANCH   4  10
BRANCH   1  16
ATOM     16  N   UNL     1       0.158  -0.856  -1.480  0.00  0.00    -0.329 N 
ATOM     17  C   UNL     1       1.556  -0.741  -1.902  0.00  0.00    +0.129 C 
BRANCH  16  19
ATOM     18  C   UNL     1       0.118   0.684   0.419  0.00  0.00    +0.028 C 
ATOM     19  C   UNL     1      -0.192  -0.735  -0.063  0.00  0.00    +0.073 C 
BRANCH  19  20
ATOM     20  C   UNL     1       0.625  -1.740   0.752  0.00  0.00    +0.003 C 
ATOM     21  C   UNL     1       0.202  -1.669   2.221  0.00  0.00    +0.009 C 
ATOM     22  C   UNL     1       0.376  -3.152   0.217  0.00  0.00    +0.009 C 
ENDBRANCH  19  20
ENDBRANCH  16  19
ENDBRANCH   1  16
TORSDOF 6
