REMARK  Name = ZINC25512741
REMARK  7 active torsions:
REMARK  status: ('A' for Active; 'I' for Inactive)
REMARK    1  A    between atoms: C_1  and  C_2
REMARK    2  A    between atoms: N_4  and  C_5
REMARK    3  A    between atoms: C_7  and  N_12
REMARK    4  A    between atoms: C_13  and  C_15
REMARK    5  A    between atoms: C_19  and  S_21
REMARK    6  A    between atoms: S_21  and  N_24
REMARK    7  A    between atoms: N_24  and  C_25
REMARK                            x       y       z     vdW  Elec       q    Type
REMARK                         _______ _______ _______ _____ _____    ______ ____
ROOT
ATOM      1  C   UNL     1      -3.417  -1.148  -0.150  0.00  0.00    +0.039 A 
ATOM      2  C   UNL     1      -4.667  -0.528  -0.099  0.00  0.00    +0.013 A 
ATOM      3  C   UNL     1      -5.812  -1.294  -0.038  0.00  0.00    +0.003 A 
ATOM      4  C   UNL     1      -5.724  -2.675  -0.020  0.00  0.00    +0.028 A 
ATOM      5  C   UNL     1      -4.489  -3.296  -0.066  0.00  0.00    +0.106 A 
ATOM      6  C   UNL     1      -3.336  -2.541  -0.131  0.00  0.00    +0.041 A 
ENDROOT
BRANCH   1   8
ATOM      7  N   UNL     1      -2.268   1.012  -0.238  0.00  0.00    -0.281 N 
ATOM      8  C   UNL     1      -2.186  -0.333  -0.219  0.00  0.00    +0.248 C 
ATOM      9  O   UNL     1      -1.099  -0.876  -0.259  0.00  0.00    -0.270 OA
ATOM     10  H   UNL     1      -3.252   1.502  -0.281  0.00  0.00    +0.155 HD
BRANCH   7  13
ATOM     11  C   UNL     1       0.065   3.760   0.509  0.00  0.00    +0.071 A 
ATOM     12  C   UNL     1      -1.091   2.993   0.480  0.00  0.00    +0.049 A 
ATOM     13  C   UNL     1      -1.102   1.785  -0.202  0.00  0.00    +0.036 A 
ATOM     14  C   UNL     1       0.046   1.340  -0.845  0.00  0.00    +0.026 A 
ATOM     15  C   UNL     1       1.197   2.105  -0.815  0.00  0.00    +0.042 A 
ATOM     16  C   UNL     1       1.210   3.312  -0.141  0.00  0.00    +0.145 A 
ATOM     17  F   UNL     1       2.337   4.058  -0.113  0.00  0.00    -0.204 F 
BRANCH  11  21
ATOM     18  C   UNL     1      -0.859   6.557   2.853  0.00  0.00    +0.109 C 
ATOM     19  C   UNL     1      -0.787   5.200   2.202  0.00  0.00    +0.214 C 
ATOM     20  O   UNL     1      -1.508   4.303   2.586  0.00  0.00    -0.276 OA
ATOM     21  N   UNL     1       0.079   4.982   1.192  0.00  0.00    -0.283 N 
ATOM     22  H   UNL     1       0.795   5.765   0.903  0.00  0.00    +0.155 HD
ENDBRANCH  11  21
ENDBRANCH   7  13
ENDBRANCH   1   8
BRANCH   5  23
ATOM     23  S   UNL     1      -4.388  -5.055  -0.042  0.00  0.00    +0.059 S 
ATOM     24  O   UNL     1      -5.632  -5.540  -0.529  0.00  0.00    -0.153 OA
ATOM     25  O   UNL     1      -3.148  -5.399  -0.644  0.00  0.00    -0.153 OA
BRANCH  23  26
ATOM     26  N   UNL     1      -4.288  -5.518   1.545  0.00  0.00    -0.185 NA
ATOM     27  H   UNL     1      -3.321  -5.855   1.947  0.00  0.00    +0.148 HD
BRANCH  26  28
ATOM     28  C   UNL     1      -5.413  -5.273   2.452  0.00  0.00    +0.099 C 
ATOM     29  C   UNL     1      -5.177  -3.970   3.233  0.00  0.00    +0.044 C 
ATOM     30  C   UNL     1      -6.181  -3.868   4.405  0.00  0.00    +0.167 C 
ATOM     31  S   UNL     1      -6.527  -5.632   4.795  0.00  0.00    -0.029 S 
ATOM     32  O   UNL     1      -7.902  -5.897   4.558  0.00  0.00    -0.174 OA
ATOM     33  O   UNL     1      -5.962  -5.944   6.061  0.00  0.00    -0.174 OA
ATOM     34  C   UNL     1      -5.524  -6.438   3.477  0.00  0.00    +0.186 C 
ENDBRANCH  26  28
ENDBRANCH  23  26
ENDBRANCH   5  23
TORSDOF 6
