REMARK  Name = ZINC42739663
REMARK  11 active torsions:
REMARK  status: ('A' for Active; 'I' for Inactive)
REMARK    1  A    between atoms: C_1  and  C_2
REMARK    2  A    between atoms: C_2  and  C_4
REMARK    3  A    between atoms: C_2  and  N_8
REMARK    4  A    between atoms: C_4  and  C_5
REMARK    5  A    between atoms: C_4  and  C_6
REMARK    6  A    between atoms: C_4  and  C_7
REMARK    7  A    between atoms: N_8  and  C_9
REMARK    8  A    between atoms: N_8  and  C_10
REMARK    9  A    between atoms: C_12  and  N_20
REMARK   10  A    between atoms: C_14  and  S_16
REMARK   11  A    between atoms: S_16  and  N_19
REMARK                            x       y       z     vdW  Elec       q    Type
REMARK                         _______ _______ _______ _____ _____    ______ ____
ROOT
ATOM      1  C   UNL     1      -0.473  -0.639  -1.577  0.00  0.00    +0.033 A 
ATOM      2  C   UNL     1      -1.853  -0.618  -1.427  0.00  0.00    +0.046 A 
ATOM      3  C   UNL     1      -2.663  -1.184  -2.401  0.00  0.00    +0.028 A 
ATOM      4  C   UNL     1      -2.090  -1.771  -3.523  0.00  0.00    +0.051 A 
ATOM      5  C   UNL     1      -0.717  -1.791  -3.669  0.00  0.00    +0.108 A 
ATOM      6  C   UNL     1       0.092  -1.223  -2.704  0.00  0.00    +0.051 A 
ENDROOT
BRANCH   5   7
ATOM      7  S   UNL     1       0.005  -2.537  -5.093  0.00  0.00    +0.056 S 
ATOM      8  O   UNL     1       1.328  -2.909  -4.730  0.00  0.00    -0.153 OA
ATOM      9  O   UNL     1      -0.942  -3.474  -5.586  0.00  0.00    -0.153 OA
BRANCH   7  10
ATOM     10  N   UNL     1       0.146  -1.356  -6.246  0.00  0.00    -0.204 NA
ATOM     11  H   UNL     1      -0.151  -0.453  -6.054  0.00  0.00    +0.144 HD
ATOM     12  H   UNL     1       0.525  -1.567  -7.113  0.00  0.00    +0.144 HD
ENDBRANCH   7  10
ENDBRANCH   5   7
BRANCH   3  13
ATOM     13  N   UNL     1      -4.051  -1.165  -2.254  0.00  0.00    -0.358 N 
ATOM     14  H   UNL     1      -4.451  -0.755  -1.471  0.00  0.00    +0.142 HD
ATOM     15  H   UNL     1      -4.617  -1.561  -2.936  0.00  0.00    +0.142 HD
ENDBRANCH   3  13
BRANCH   1  16
ATOM     16  N   UNL     1       0.345  -0.071  -0.598  0.00  0.00    -0.330 N 
ATOM     17  C   UNL     1       1.790   0.024  -0.817  0.00  0.00    +0.129 C 
BRANCH  16  19
ATOM     18  C   UNL     1       0.200   1.879   0.872  0.00  0.00    +0.028 C 
ATOM     19  C   UNL     1      -0.242   0.431   0.647  0.00  0.00    +0.075 C 
BRANCH  19  20
ATOM     20  C   UNL     1       0.229  -0.434   1.817  0.00  0.00    -0.019 C 
ATOM     21  C   UNL     1      -0.508  -0.014   3.091  0.00  0.00    +0.012 C 
ATOM     22  C   UNL     1      -0.068  -1.904   1.517  0.00  0.00    +0.012 C 
ATOM     23  C   UNL     1       1.735  -0.248   2.016  0.00  0.00    +0.012 C 
ENDBRANCH  19  20
ENDBRANCH  16  19
ENDBRANCH   1  16
TORSDOF 6
