REMARK  Name = ZINC13064559
REMARK  19 active torsions:
REMARK  status: ('A' for Active; 'I' for Inactive)
REMARK    1  A    between atoms: C_1  and  C_2
REMARK    2  A    between atoms: C_2  and  C_3
REMARK    3  A    between atoms: C_3  and  C_5
REMARK    4  A    between atoms: C_3  and  N_79
REMARK    5  A    between atoms: N_9  and  C_10
REMARK    6  A    between atoms: C_10  and  C_11
REMARK    7  A    between atoms: C_10  and  C_12
REMARK    8  A    between atoms: C_10  and  C_13
REMARK    9  A    between atoms: C_14  and  C_15
REMARK   10  A    between atoms: C_14  and  N_79
REMARK   11  A    between atoms: C_15  and  C_16
REMARK   12  A    between atoms: C_19  and  O_24
REMARK   13  A    between atoms: C_20  and  O_22
REMARK   14  A    between atoms: O_22  and  C_23
REMARK   15  A    between atoms: O_24  and  C_25
REMARK   16  A    between atoms: C_26  and  C_27
REMARK   17  A    between atoms: C_26  and  N_79
REMARK   18  A    between atoms: C_31  and  C_40
REMARK   19  A    between atoms: C_32  and  C_39
REMARK                            x       y       z     vdW  Elec       q    Type
REMARK                         _______ _______ _______ _____ _____    ______ ____
ROOT
ATOM      1  N   UNL     1       1.046   2.231  -0.067  0.00  0.00    +0.389 N 
ATOM      2  H   UNL     1       1.344   1.611   0.694  0.00  0.00    -0.080 HD
ENDROOT
BRANCH   1   3
ATOM      3  C   UNL     1       1.857   1.941  -1.268  0.00  0.00    +0.003 C 
BRANCH   3   4
ATOM      4  C   UNL     1       2.303   0.503  -1.209  0.00  0.00    +0.139 A 
ATOM      5  N   UNL     1       1.621  -0.509  -0.729  0.00  0.00    -0.115 NA
ATOM      6  N   UNL     1       2.340  -1.570  -0.858  0.00  0.00    -0.023 NA
ATOM      7  N   UNL     1       3.462  -1.262  -1.408  0.00  0.00    -0.043 NA
ATOM      8  N   UNL     1       3.475   0.006  -1.645  0.00  0.00    -0.226 N 
BRANCH   8   9
ATOM      9  C   UNL     1       4.564   0.764  -2.267  0.00  0.00    +0.059 C 
ATOM     10  C   UNL     1       5.174   1.719  -1.239  0.00  0.00    +0.036 C 
ATOM     11  C   UNL     1       5.639  -0.203  -2.766  0.00  0.00    +0.036 C 
ATOM     12  C   UNL     1       4.015   1.569  -3.447  0.00  0.00    +0.036 C 
ENDBRANCH   8   9
ENDBRANCH   3   4
BRANCH   3  14
ATOM     13  C   UNL     1       0.695   3.655  -2.667  0.00  0.00    +0.002 C 
ATOM     14  C   UNL     1       1.031   2.168  -2.536  0.00  0.00    -0.011 C 
ENDBRANCH   3  14
ENDBRANCH   1   3
BRANCH   1  15
ATOM     15  C   UNL     1      -0.384   1.988  -0.353  0.00  0.00    -0.073 C 
BRANCH  15  16
ATOM     16  C   UNL     1      -0.607   0.482  -0.506  0.00  0.00    +0.017 C 
BRANCH  16  17
ATOM     17  C   UNL     1      -2.082   0.203  -0.637  0.00  0.00    -0.045 A 
ATOM     18  C   UNL     1      -2.841  -0.039   0.493  0.00  0.00    +0.007 A 
ATOM     19  C   UNL     1      -4.196  -0.289   0.379  0.00  0.00    +0.049 A 
ATOM     20  C   UNL     1      -4.793  -0.310  -0.871  0.00  0.00    +0.161 A 
ATOM     21  C   UNL     1      -4.028  -0.073  -2.009  0.00  0.00    +0.162 A 
ATOM     22  C   UNL     1      -2.672   0.184  -1.887  0.00  0.00    +0.053 A 
BRANCH  21  23
ATOM     23  O   UNL     1      -4.611  -0.092  -3.237  0.00  0.00    -0.491 OA
ATOM     24  C   UNL     1      -3.764   0.161  -4.360  0.00  0.00    +0.277 C 
ENDBRANCH  21  23
BRANCH  20  25
ATOM     25  O   UNL     1      -6.125  -0.562  -0.985  0.00  0.00    -0.491 OA
ATOM     26  C   UNL     1      -6.847  -0.797   0.225  0.00  0.00    +0.277 C 
ENDBRANCH  20  25
ENDBRANCH  16  17
ENDBRANCH  15  16
ENDBRANCH   1  15
BRANCH   1  27
ATOM     27  C   UNL     1       1.246   3.635   0.350  0.00  0.00    -0.037 C 
BRANCH  27  28
ATOM     28  C   UNL     1       2.592   3.754   1.016  0.00  0.00    +0.001 A 
ATOM     29  C   UNL     1       3.638   4.285   0.335  0.00  0.00    +0.017 A 
ATOM     30  C   UNL     1       4.933   4.386   1.009  0.00  0.00    -0.001 A 
ATOM     31  C   UNL     1       6.048   4.925   0.358  0.00  0.00    +0.013 A 
ATOM     32  C   UNL     1       7.242   5.006   1.016  0.00  0.00    -0.047 A 
ATOM     33  C   UNL     1       7.360   4.559   2.325  0.00  0.00    -0.046 A 
ATOM     34  C   UNL     1       6.275   4.025   2.986  0.00  0.00    +0.030 A 
ATOM     35  C   UNL     1       5.048   3.932   2.337  0.00  0.00    +0.049 A 
ATOM     36  N   UNL     1       3.947   3.403   2.974  0.00  0.00    -0.322 N 
ATOM     37  H   UNL     1       4.028   3.090   3.889  0.00  0.00    +0.169 HD
ATOM     38  C   UNL     1       2.760   3.318   2.348  0.00  0.00    +0.251 A 
ATOM     39  O   UNL     1       1.806   2.849   2.943  0.00  0.00    -0.268 OA
ATOM     40  C   UNL     1       8.688   4.658   3.030  0.00  0.00    +0.044 C 
ATOM     41  C   UNL     1       8.443   5.587   0.314  0.00  0.00    +0.044 C 
ENDBRANCH  27  28
ENDBRANCH   1  27
TORSDOF 11
