REMARK  Name = ZINC14850537
REMARK  8 active torsions:
REMARK  status: ('A' for Active; 'I' for Inactive)
REMARK    1  A    between atoms: C_1  and  C_2
REMARK    2  A    between atoms: C_2  and  C_3
REMARK    3  A    between atoms: C_6  and  C_9
REMARK    4  A    between atoms: C_11  and  C_14
REMARK    5  A    between atoms: C_14  and  C_15
REMARK    6  A    between atoms: C_15  and  C_16
REMARK    7  A    between atoms: N_18  and  C_19
REMARK    8  A    between atoms: C_19  and  C_20
REMARK                            x       y       z     vdW  Elec       q    Type
REMARK                         _______ _______ _______ _____ _____    ______ ____
ROOT
ATOM      1  C   UNL     1      -0.281   1.264  -4.889  0.00  0.00    +0.108 C 
ENDROOT
BRANCH   1   4
ATOM      2  C   UNL     1      -1.673   2.911  -7.764  0.00  0.00    +0.202 A 
ATOM      3  N   UNL     1      -0.789   2.890  -6.741  0.00  0.00    -0.191 NA
ATOM      4  C   UNL     1      -1.010   1.763  -6.110  0.00  0.00    +0.228 A 
ATOM      5  O   UNL     1      -1.999   1.137  -6.755  0.00  0.00    -0.338 OA
ATOM      6  N   UNL     1      -2.371   1.808  -7.695  0.00  0.00    -0.056 NA
BRANCH   2  10
ATOM      7  C   UNL     1      -2.104   5.993 -10.663  0.00  0.00    -0.048 A 
ATOM      8  C   UNL     1      -2.918   4.877 -10.718  0.00  0.00    +0.004 A 
ATOM      9  C   UNL     1      -2.783   3.873  -9.780  0.00  0.00    +0.012 A 
ATOM     10  C   UNL     1      -1.823   3.987  -8.776  0.00  0.00    +0.022 A 
ATOM     11  C   UNL     1      -1.009   5.116  -8.722  0.00  0.00    +0.012 A 
ATOM     12  C   UNL     1      -1.149   6.111  -9.668  0.00  0.00    +0.004 A 
BRANCH   7  14
ATOM     13  C   UNL     1      -3.272   8.116 -11.191  0.00  0.00    +0.009 C 
ATOM     14  C   UNL     1      -2.257   7.086 -11.690  0.00  0.00    +0.032 C 
ENDBRANCH   7  14
ENDBRANCH   2  10
ENDBRANCH   1   4
BRANCH   1  15
ATOM     15  C   UNL     1      -0.997   1.758  -3.630  0.00  0.00    +0.105 C 
BRANCH  15  16
ATOM     16  C   UNL     1      -0.268   1.258  -2.409  0.00  0.00    +0.214 C 
ATOM     17  O   UNL     1       0.726   0.575  -2.534  0.00  0.00    -0.276 OA
ATOM     18  N   UNL     1      -0.721   1.571  -1.179  0.00  0.00    -0.311 N 
ATOM     19  H   UNL     1      -1.516   2.118  -1.079  0.00  0.00    +0.149 HD
BRANCH  18  20
ATOM     20  C   UNL     1      -0.013   1.086   0.008  0.00  0.00    +0.139 C 
BRANCH  20  21
ATOM     21  C   UNL     1      -0.718   1.572   1.248  0.00  0.00    -0.030 A 
ATOM     22  C   UNL     1      -0.359   2.779   1.818  0.00  0.00    +0.008 A 
ATOM     23  C   UNL     1      -1.009   3.228   2.953  0.00  0.00    +0.038 A 
ATOM     24  C   UNL     1      -2.012   2.463   3.524  0.00  0.00    +0.123 A 
ATOM     25  C   UNL     1      -2.367   1.252   2.955  0.00  0.00    +0.038 A 
ATOM     26  C   UNL     1      -1.719   0.807   1.817  0.00  0.00    +0.008 A 
ATOM     27  F   UNL     1      -2.644   2.899   4.635  0.00  0.00    -0.205 F 
ENDBRANCH  20  21
ENDBRANCH  18  20
ENDBRANCH  15  16
ENDBRANCH   1  15
TORSDOF 7
