REMARK  Name = ZINC12246032
REMARK  10 active torsions:
REMARK  status: ('A' for Active; 'I' for Inactive)
REMARK    1  A    between atoms: C_1  and  C_2
REMARK    2  A    between atoms: C_3  and  C_7
REMARK    3  A    between atoms: N_9  and  C_10
REMARK    4  A    between atoms: C_14  and  C_16
REMARK    5  A    between atoms: C_18  and  C_22
REMARK    6  A    between atoms: C_19  and  C_21
REMARK    7  A    between atoms: C_22  and  N_23
REMARK    8  A    between atoms: C_24  and  C_26
REMARK    9  A    between atoms: C_28  and  C_32
REMARK   10  A    between atoms: C_32  and  C_34
REMARK                            x       y       z     vdW  Elec       q    Type
REMARK                         _______ _______ _______ _____ _____    ______ ____
ROOT
ATOM      1  C   UNL     1      -2.825   8.139   0.230  0.00  0.00    +0.228 A 
ATOM      2  N   UNL     1      -3.769   9.047   0.320  0.00  0.00    -0.212 NA
ATOM      3  C   UNL     1      -3.200  10.261   0.285  0.00  0.00    +0.100 A 
ATOM      4  C   UNL     1      -1.870  10.091   0.170  0.00  0.00    +0.127 A 
ATOM      5  O   UNL     1      -1.638   8.763   0.141  0.00  0.00    -0.440 OA
ATOM      6  C   UNL     1      -0.833  11.181   0.094  0.00  0.00    +0.088 C 
ENDROOT
BRANCH   1  11
ATOM      7  C   UNL     1      -2.143   4.442   0.130  0.00  0.00    +0.034 A 
ATOM      8  C   UNL     1      -3.432   3.930   0.227  0.00  0.00    +0.023 A 
ATOM      9  C   UNL     1      -4.514   4.784   0.335  0.00  0.00    +0.003 A 
ATOM     10  C   UNL     1      -4.322   6.151   0.334  0.00  0.00    +0.013 A 
ATOM     11  C   UNL     1      -3.033   6.675   0.231  0.00  0.00    +0.039 A 
ATOM     12  C   UNL     1      -1.941   5.814   0.128  0.00  0.00    +0.036 A 
BRANCH   7  15
ATOM     13  C   UNL     1       0.024   3.927  -0.705  0.00  0.00    +0.252 C 
ATOM     14  O   UNL     1       0.007   4.956  -1.354  0.00  0.00    -0.270 OA
ATOM     15  N   UNL     1      -1.052   3.574   0.027  0.00  0.00    -0.281 N 
ATOM     16  H   UNL     1      -1.068   2.718   0.482  0.00  0.00    +0.155 HD
BRANCH  13  19
ATOM     17  C   UNL     1       2.674   4.457  -2.298  0.00  0.00    +0.087 C 
ATOM     18  C   UNL     1       2.381   3.280  -1.403  0.00  0.00    +0.114 A 
ATOM     19  C   UNL     1       1.220   3.067  -0.720  0.00  0.00    +0.078 A 
ATOM     20  C   UNL     1       1.413   1.802   0.004  0.00  0.00    +0.054 A 
ATOM     21  C   UNL     1       2.650   1.384  -0.308  0.00  0.00    +0.196 A 
ATOM     22  O   UNL     1       3.215   2.269  -1.144  0.00  0.00    -0.467 OA
ENDBRANCH  13  19
ENDBRANCH   7  15
ENDBRANCH   1  11
BRANCH   3  23
ATOM     23  C   UNL     1      -3.922  11.582   0.363  0.00  0.00    +0.163 C 
BRANCH  23  24
ATOM     24  N   UNL     1      -4.038  11.994   1.764  0.00  0.00    -0.304 N 
ATOM     25  C   UNL     1      -4.652  13.152   2.077  0.00  0.00    +0.262 C 
ATOM     26  O   UNL     1      -5.109  13.855   1.196  0.00  0.00    -0.269 OA
ATOM     27  H   UNL     1      -3.674  11.433   2.466  0.00  0.00    +0.149 HD
BRANCH  25  28
ATOM     28  C   UNL     1      -4.769  13.566   3.485  0.00  0.00    +0.121 A 
ATOM     29  C   UNL     1      -5.362  14.708   3.954  0.00  0.00    +0.065 A 
ATOM     30  C   UNL     1      -5.222  14.655   5.358  0.00  0.00    +0.128 A 
ATOM     31  N   UNL     1      -4.582  13.536   5.649  0.00  0.00    -0.170 NA
ATOM     32  N   UNL     1      -4.312  12.881   4.577  0.00  0.00    -0.272 N 
ATOM     33  H   UNL     1      -3.838  12.001   4.546  0.00  0.00    +0.189 HD
BRANCH  30  34
ATOM     34  C   UNL     1      -5.700  15.660   6.319  0.00  0.00    +0.180 C 
ATOM     35  O   UNL     1      -6.277  16.651   5.924  0.00  0.00    -0.291 OA
ATOM     36  C   UNL     1      -5.472  15.459   7.795  0.00  0.00    +0.093 C 
ENDBRANCH  30  34
ENDBRANCH  25  28
ENDBRANCH  23  24
ENDBRANCH   3  23
TORSDOF 7
