REMARK  Name = ZINC14642517
REMARK  10 active torsions:
REMARK  status: ('A' for Active; 'I' for Inactive)
REMARK    1  A    between atoms: C_1  and  C_2
REMARK    2  A    between atoms: C_6  and  C_31
REMARK    3  A    between atoms: C_7  and  O_8
REMARK    4  A    between atoms: O_8  and  C_9
REMARK    5  A    between atoms: C_9  and  C_11
REMARK    6  A    between atoms: C_9  and  C_12
REMARK    7  A    between atoms: N_14  and  C_15
REMARK    8  A    between atoms: C_18  and  S_21
REMARK    9  A    between atoms: S_21  and  N_24
REMARK   10  A    between atoms: N_24  and  C_25
REMARK                            x       y       z     vdW  Elec       q    Type
REMARK                         _______ _______ _______ _____ _____    ______ ____
ROOT
ATOM      1  C   UNL     1       0.405  -2.194  -0.138  0.00  0.00    +0.034 A 
ATOM      2  C   UNL     1       0.302  -1.550   1.088  0.00  0.00    +0.025 A 
ATOM      3  C   UNL     1       0.357  -0.172   1.149  0.00  0.00    +0.030 A 
ATOM      4  C   UNL     1       0.515   0.567  -0.009  0.00  0.00    +0.105 A 
ATOM      5  C   UNL     1       0.613  -0.070  -1.232  0.00  0.00    +0.030 A 
ATOM      6  C   UNL     1       0.564  -1.449  -1.300  0.00  0.00    +0.025 A 
ENDROOT
BRANCH   1   9
ATOM      7  C   UNL     1       0.892  -4.333   0.782  0.00  0.00    +0.258 C 
ATOM      8  O   UNL     1       1.357  -3.793   1.763  0.00  0.00    -0.271 OA
ATOM      9  N   UNL     1       0.351  -3.591  -0.204  0.00  0.00    -0.282 N 
ATOM     10  H   UNL     1      -0.077  -4.025  -0.959  0.00  0.00    +0.155 HD
BRANCH   7  11
ATOM     11  C   UNL     1       0.921  -5.836   0.665  0.00  0.00    +0.256 C 
ATOM     12  C   UNL     1      -0.510  -6.365   0.547  0.00  0.00    +0.062 C 
BRANCH  11  13
ATOM     13  O   UNL     1       1.541  -6.392   1.826  0.00  0.00    -0.479 OA
BRANCH  13  20
ATOM     14  C   UNL     1       0.375  -8.934   2.228  0.00  0.00    +0.047 C 
ATOM     15  C   UNL     1       1.815  -8.755   1.824  0.00  0.00    -0.007 A 
ATOM     16  C   UNL     1       2.621  -9.861   1.630  0.00  0.00    +0.022 A 
ATOM     17  C   UNL     1       3.945  -9.698   1.264  0.00  0.00    +0.019 A 
ATOM     18  C   UNL     1       4.464  -8.428   1.087  0.00  0.00    +0.022 A 
ATOM     19  C   UNL     1       3.661  -7.319   1.274  0.00  0.00    -0.007 A 
ATOM     20  C   UNL     1       2.333  -7.481   1.641  0.00  0.00    +0.127 A 
ATOM     21  C   UNL     1       4.227  -5.936   1.082  0.00  0.00    +0.047 C 
ATOM     22 BR   UNL     1       5.047 -11.213   1.007  0.00  0.00    -0.050 Br
ENDBRANCH  13  20
ENDBRANCH  11  13
ENDBRANCH   7  11
ENDBRANCH   1   9
BRANCH   4  23
ATOM     23  S   UNL     1       0.584   2.326   0.073  0.00  0.00    +0.059 S 
ATOM     24  O   UNL     1       0.189   2.808  -1.204  0.00  0.00    -0.153 OA
ATOM     25  O   UNL     1      -0.083   2.703   1.270  0.00  0.00    -0.153 OA
BRANCH  23  26
ATOM     26  N   UNL     1       2.175   2.745   0.266  0.00  0.00    -0.187 NA
ATOM     27  H   UNL     1       2.467   3.178   1.083  0.00  0.00    +0.148 HD
BRANCH  26  28
ATOM     28  C   UNL     1       3.141   2.460  -0.798  0.00  0.00    +0.077 C 
ATOM     29  C   UNL     1       3.836   1.127  -0.512  0.00  0.00    +0.020 C 
ATOM     30  C   UNL     1       4.846   0.830  -1.623  0.00  0.00    +0.002 C 
ATOM     31  C   UNL     1       5.889   1.948  -1.677  0.00  0.00    +0.000 C 
ATOM     32  C   UNL     1       5.194   3.281  -1.962  0.00  0.00    +0.002 C 
ATOM     33  C   UNL     1       4.184   3.578  -0.851  0.00  0.00    +0.020 C 
ENDBRANCH  26  28
ENDBRANCH  23  26
ENDBRANCH   4  23
TORSDOF 7
