REMARK  Name = ZINC20837933
REMARK  11 active torsions:
REMARK  status: ('A' for Active; 'I' for Inactive)
REMARK    1  A    between atoms: C_1  and  C_2
REMARK    2  A    between atoms: C_5  and  C_8
REMARK    3  A    between atoms: C_8  and  C_30
REMARK    4  A    between atoms: N_9  and  N_10
REMARK    5  A    between atoms: C_13  and  S_16
REMARK    6  A    between atoms: S_16  and  C_17
REMARK    7  A    between atoms: C_17  and  C_18
REMARK    8  A    between atoms: C_24  and  S_26
REMARK    9  A    between atoms: S_26  and  C_27
REMARK   10  A    between atoms: C_27  and  C_28
REMARK   11  A    between atoms: C_27  and  C_29
REMARK                            x       y       z     vdW  Elec       q    Type
REMARK                         _______ _______ _______ _____ _____    ______ ____
ROOT
ATOM      1  N   UNL     1      -1.300 -10.461  -0.041  0.00  0.00    -0.205 N 
ATOM      2  C   UNL     1      -0.786  -9.172  -0.039  0.00  0.00    +0.232 A 
ATOM      3  N   UNL     1      -1.515  -8.016  -0.025  0.00  0.00    -0.186 NA
ATOM      4  C   UNL     1      -0.641  -6.966  -0.028  0.00  0.00    +0.211 A 
ATOM      5  N   UNL     1       0.577  -7.452  -0.048  0.00  0.00    -0.144 NA
ATOM      6  N   UNL     1       0.485  -8.850  -0.050  0.00  0.00    -0.245 N 
ATOM      7  H   UNL     1      -2.389 -10.618  -0.032  0.00  0.00    +0.177 HD
ATOM      8  H   UNL     1       1.252  -9.638  -0.058  0.00  0.00    +0.192 HD
ENDROOT
BRANCH   1  10
ATOM      9  C   UNL     1      -0.915 -12.767  -0.058  0.00  0.00    +0.063 C 
ATOM     10  N   UNL     1      -0.434 -11.561  -0.056  0.00  0.00    -0.184 NA
ATOM     11  C   UNL     1      -2.407 -12.983  -0.045  0.00  0.00    +0.068 C 
BRANCH   9  16
ATOM     12  C   UNL     1       2.643 -17.285  -0.119  0.00  0.00    +0.044 C 
ATOM     13  C   UNL     1       1.710 -16.101  -0.103  0.00  0.00    -0.050 A 
ATOM     14  C   UNL     1       2.227 -14.818  -0.100  0.00  0.00    +0.004 A 
ATOM     15  C   UNL     1       1.380 -13.729  -0.086  0.00  0.00    +0.010 A 
ATOM     16  C   UNL     1      -0.003 -13.925  -0.074  0.00  0.00    -0.003 A 
ATOM     17  C   UNL     1      -0.518 -15.224  -0.070  0.00  0.00    +0.010 A 
ATOM     18  C   UNL     1       0.342 -16.303  -0.091  0.00  0.00    +0.004 A 
ENDBRANCH   9  16
ENDBRANCH   1  10
BRANCH   4  19
ATOM     19  S   UNL     1      -1.074  -5.258  -0.015  0.00  0.00    -0.075 S 
BRANCH  19  20
ATOM     20  C   UNL     1       0.524  -4.400  -0.026  0.00  0.00    +0.173 C 
BRANCH  20  21
ATOM     21  C   UNL     1       0.294  -2.910  -0.016  0.00  0.00    +0.229 C 
ATOM     22  O   UNL     1      -0.836  -2.471  -0.003  0.00  0.00    -0.275 OA
ATOM     23  N   UNL     1       1.345  -2.067  -0.021  0.00  0.00    -0.263 N 
ATOM     24  C   UNL     1       1.133  -0.690  -0.013  0.00  0.00    +0.189 A 
ATOM     25  N   UNL     1       0.002  -0.004   0.002  0.00  0.00    -0.125 NA
ATOM     26  N   UNL     1      -0.015   1.257   0.009  0.00  0.00    -0.133 NA
ATOM     27  C   UNL     1       1.100   1.973   0.002  0.00  0.00    +0.160 A 
ATOM     28  S   UNL     1       2.314   0.656  -0.017  0.00  0.00    -0.024 S 
ATOM     29  H   UNL     1       2.370  -2.465  -0.033  0.00  0.00    +0.157 HD
BRANCH  27  30
ATOM     30  S   UNL     1       1.324   3.720   0.009  0.00  0.00    -0.094 S 
BRANCH  30  31
ATOM     31  C   UNL     1      -0.365   4.380   0.028  0.00  0.00    +0.047 C 
ATOM     32  C   UNL     1      -0.317   5.903   0.161  0.00  0.00    +0.019 C 
ATOM     33  C   UNL     1      -1.075   4.004  -1.274  0.00  0.00    +0.019 C 
ENDBRANCH  30  31
ENDBRANCH  27  30
ENDBRANCH  20  21
ENDBRANCH  19  20
ENDBRANCH   4  19
TORSDOF 7
