REMARK  Name = ZINC12813854
REMARK  13 active torsions:
REMARK  status: ('A' for Active; 'I' for Inactive)
REMARK    1  A    between atoms: C_1  and  C_2
REMARK    2  A    between atoms: C_5  and  S_8
REMARK    3  A    between atoms: S_8  and  N_11
REMARK    4  A    between atoms: N_11  and  C_12
REMARK    5  A    between atoms: C_12  and  C_14
REMARK    6  A    between atoms: C_12  and  C_17
REMARK    7  A    between atoms: C_14  and  C_15
REMARK    8  A    between atoms: C_14  and  C_16
REMARK    9  A    between atoms: C_17  and  O_19
REMARK   10  A    between atoms: O_19  and  C_20
REMARK   11  A    between atoms: C_20  and  C_22
REMARK   12  A    between atoms: C_20  and  C_23
REMARK   13  A    between atoms: N_25  and  C_26
REMARK                            x       y       z     vdW  Elec       q    Type
REMARK                         _______ _______ _______ _____ _____    ______ ____
ROOT
ATOM      1  C   UNL     1      -0.748   1.479   1.352  0.00  0.00    +0.187 C 
ENDROOT
BRANCH   1   2
ATOM      2  C   UNL     1       0.027   0.937   0.150  0.00  0.00    +0.012 C 
ATOM      3  C   UNL     1       1.407   1.595   0.093  0.00  0.00    +0.009 C 
ATOM      4  C   UNL     1      -0.741   1.251  -1.136  0.00  0.00    +0.009 C 
ENDBRANCH   1   2
BRANCH   1   5
ATOM      5  N   UNL     1      -2.115   0.954   1.329  0.00  0.00    -0.176 NA
ATOM      6  H   UNL     1      -2.286   0.059   0.998  0.00  0.00    +0.149 HD
BRANCH   5   7
ATOM      7  S   UNL     1      -3.371   1.890   1.869  0.00  0.00    +0.059 S 
ATOM      8  O   UNL     1      -4.549   1.109   1.727  0.00  0.00    -0.153 OA
ATOM      9  O   UNL     1      -2.963   2.435   3.117  0.00  0.00    -0.153 OA
BRANCH   7  14
ATOM     10  C   UNL     1      -3.906   6.532  -1.948  0.00  0.00    +0.044 C 
ATOM     11  C   UNL     1      -3.772   5.373  -0.994  0.00  0.00    -0.050 A 
ATOM     12  C   UNL     1      -4.521   4.227  -1.190  0.00  0.00    +0.005 A 
ATOM     13  C   UNL     1      -4.399   3.164  -0.315  0.00  0.00    +0.029 A 
ATOM     14  C   UNL     1      -3.527   3.245   0.754  0.00  0.00    +0.105 A 
ATOM     15  C   UNL     1      -2.781   4.393   0.952  0.00  0.00    +0.029 A 
ATOM     16  C   UNL     1      -2.901   5.454   0.075  0.00  0.00    +0.005 A 
ENDBRANCH   7  14
ENDBRANCH   5   7
ENDBRANCH   1   5
BRANCH   1  17
ATOM     17  C   UNL     1      -0.066   1.048   2.625  0.00  0.00    +0.327 C 
ATOM     18  O   UNL     1      -0.661   0.371   3.430  0.00  0.00    -0.249 OA
BRANCH  17  19
ATOM     19  O   UNL     1       1.203   1.415   2.864  0.00  0.00    -0.451 OA
BRANCH  19  20
ATOM     20  C   UNL     1       1.796   0.963   4.110  0.00  0.00    +0.258 C 
ATOM     21  C   UNL     1       1.535   2.000   5.205  0.00  0.00    +0.062 C 
BRANCH  20  22
ATOM     22  C   UNL     1       3.282   0.791   3.926  0.00  0.00    +0.254 C 
ATOM     23  O   UNL     1       3.804   1.112   2.880  0.00  0.00    -0.272 OA
ATOM     24  N   UNL     1       4.030   0.281   4.924  0.00  0.00    -0.309 N 
ATOM     25  H   UNL     1       3.612   0.024   5.761  0.00  0.00    +0.149 HD
BRANCH  24  26
ATOM     26  C   UNL     1       5.474   0.113   4.745  0.00  0.00    +0.073 C 
ATOM     27  C   UNL     1       5.751  -1.222   4.053  0.00  0.00    +0.022 C 
ATOM     28  C   UNL     1       7.259  -1.397   3.865  0.00  0.00    +0.002 C 
ATOM     29  C   UNL     1       7.948  -1.379   5.231  0.00  0.00    +0.000 C 
ATOM     30  C   UNL     1       7.671  -0.043   5.924  0.00  0.00    +0.002 C 
ATOM     31  C   UNL     1       6.163   0.132   6.111  0.00  0.00    +0.022 C 
ENDBRANCH  24  26
ENDBRANCH  20  22
ENDBRANCH  19  20
ENDBRANCH  17  19
ENDBRANCH   1  17
TORSDOF 9
