REMARK  Name = ZINC02534569
REMARK  5 active torsions:
REMARK  status: ('A' for Active; 'I' for Inactive)
REMARK    1  A    between atoms: C_1  and  C_2
REMARK    2  A    between atoms: C_4  and  N_9
REMARK    3  A    between atoms: N_9  and  C_10
REMARK    4  A    between atoms: C_10  and  C_11
REMARK    5  A    between atoms: C_16  and  N_17
REMARK                            x       y       z     vdW  Elec       q    Type
REMARK                         _______ _______ _______ _____ _____    ______ ____
ROOT
ATOM      1  C   UNL     1      -0.742   1.585  -1.213  0.00  0.00    +0.003 A 
ATOM      2  C   UNL     1      -1.600   0.743  -1.896  0.00  0.00    +0.057 A 
ATOM      3  C   UNL     1      -2.275   1.201  -3.016  0.00  0.00    +0.167 A 
ATOM      4  C   UNL     1      -2.077   2.508  -3.457  0.00  0.00    +0.168 A 
ATOM      5  C   UNL     1      -1.212   3.344  -2.771  0.00  0.00    +0.082 A 
ATOM      6  C   UNL     1      -0.546   2.881  -1.651  0.00  0.00    +0.135 A 
ATOM      7  O   UNL     1      -2.842   2.713  -4.569  0.00  0.00    -0.453 OA
ATOM      8  C   UNL     1      -3.817   1.653  -4.565  0.00  0.00    +0.466 C 
ATOM      9  O   UNL     1      -3.163   0.588  -3.851  0.00  0.00    -0.453 OA
ENDROOT
BRANCH   6  10
ATOM     10  N   UNL     1       0.379   3.776  -0.920  0.00  0.00    +0.057 N 
ATOM     11  O   UNL     1       0.552   4.919  -1.304  0.00  0.00    -0.126 OA
ATOM     12  O   UNL     1       0.967   3.370   0.067  0.00  0.00    -0.126 OA
ENDBRANCH   6  10
BRANCH   1  13
ATOM     13  C   UNL     1      -0.013   1.086   0.008  0.00  0.00    +0.139 C 
BRANCH  13  14
ATOM     14  N   UNL     1      -0.698   1.558   1.213  0.00  0.00    -0.340 N 
ATOM     15  H   UNL     1      -1.495   2.106   1.135  0.00  0.00    +0.146 HD
BRANCH  14  19
ATOM     16  C   UNL     1      -1.066   1.817   6.108  0.00  0.00    +0.045 C 
ATOM     17  C   UNL     1      -0.363   1.332   4.866  0.00  0.00    -0.035 A 
ATOM     18  C   UNL     1      -0.853   1.668   3.619  0.00  0.00    +0.027 A 
ATOM     19  C   UNL     1      -0.204   1.220   2.476  0.00  0.00    +0.028 A 
ATOM     20  C   UNL     1       0.934   0.432   2.590  0.00  0.00    +0.024 A 
ATOM     21  C   UNL     1       1.422   0.104   3.839  0.00  0.00    +0.017 A 
ATOM     22  C   UNL     1       0.773   0.551   4.977  0.00  0.00    +0.021 A 
ATOM     23 BR   UNL     1       1.442   0.093   6.685  0.00  0.00    -0.050 Br
ENDBRANCH  14  19
ENDBRANCH  13  14
ENDBRANCH   1  13
TORSDOF 4
