REMARK  Name = ZINC23556435
REMARK  9 active torsions:
REMARK  status: ('A' for Active; 'I' for Inactive)
REMARK    1  A    between atoms: C_1  and  C_2
REMARK    2  A    between atoms: C_7  and  N_8
REMARK    3  A    between atoms: C_9  and  C_11
REMARK    4  A    between atoms: C_11  and  O_12
REMARK    5  A    between atoms: O_12  and  C_13
REMARK    6  A    between atoms: C_13  and  C_15
REMARK    7  A    between atoms: C_19  and  S_21
REMARK    8  A    between atoms: S_21  and  N_24
REMARK    9  A    between atoms: N_24  and  C_25
REMARK                            x       y       z     vdW  Elec       q    Type
REMARK                         _______ _______ _______ _____ _____    ______ ____
ROOT
ATOM      1  C   UNL     1      -0.260   1.579  -0.488  0.00  0.00    +0.340 C 
ATOM      2  O   UNL     1      -0.037   0.396  -0.330  0.00  0.00    -0.245 OA
ENDROOT
BRANCH   1   3
ATOM      3  C   UNL     1      -1.652   2.065  -0.564  0.00  0.00    +0.061 A 
ATOM      4  C   UNL     1      -1.911   3.426  -0.740  0.00  0.00    +0.016 A 
ATOM      5  C   UNL     1      -3.214   3.873  -0.814  0.00  0.00    +0.023 A 
ATOM      6  C   UNL     1      -4.264   2.977  -0.704  0.00  0.00    +0.067 A 
ATOM      7  C   UNL     1      -4.013   1.626  -0.524  0.00  0.00    +0.124 A 
ATOM      8  C   UNL     1      -2.715   1.166  -0.453  0.00  0.00    +0.045 A 
ATOM      9 CL   UNL     1      -5.901   3.548  -0.792  0.00  0.00    -0.082 Cl
BRANCH   7  10
ATOM     10  S   UNL     1      -5.356   0.494  -0.386  0.00  0.00    +0.060 S 
ATOM     11  O   UNL     1      -4.784  -0.796  -0.215  0.00  0.00    -0.153 OA
ATOM     12  O   UNL     1      -6.265   1.054   0.552  0.00  0.00    -0.153 OA
BRANCH  10  13
ATOM     13  N   UNL     1      -6.135   0.476  -1.847  0.00  0.00    -0.193 NA
ATOM     14  C   UNL     1      -5.440  -0.011  -3.041  0.00  0.00    +0.127 C 
ATOM     15  H   UNL     1      -7.107   0.982  -1.944  0.00  0.00    +0.148 HD
ENDBRANCH  10  13
ENDBRANCH   7  10
ENDBRANCH   1   3
BRANCH   1  16
ATOM     16  O   UNL     1       0.764   2.448  -0.601  0.00  0.00    -0.452 OA
BRANCH  16  17
ATOM     17  C   UNL     1       2.106   1.899  -0.523  0.00  0.00    +0.328 C 
BRANCH  17  19
ATOM     18  N   UNL     1       4.431   2.736  -0.627  0.00  0.00    -0.282 N 
ATOM     19  C   UNL     1       3.112   3.011  -0.668  0.00  0.00    +0.255 C 
ATOM     20  O   UNL     1       2.736   4.154  -0.821  0.00  0.00    -0.272 OA
ATOM     21  H   UNL     1       4.773   1.715  -0.400  0.00  0.00    +0.155 HD
BRANCH  18  28
ATOM     22  C   UNL     1       7.088   2.373   0.324  0.00  0.00    +0.046 C 
ATOM     23  C   UNL     1       6.673   3.612  -0.427  0.00  0.00    -0.028 A 
ATOM     24  C   UNL     1       7.594   4.611  -0.676  0.00  0.00    +0.025 A 
ATOM     25  C   UNL     1       7.212   5.751  -1.360  0.00  0.00    +0.041 A 
ATOM     26  C   UNL     1       5.908   5.892  -1.802  0.00  0.00    +0.022 A 
ATOM     27  C   UNL     1       4.985   4.894  -1.560  0.00  0.00    +0.025 A 
ATOM     28  C   UNL     1       5.365   3.748  -0.874  0.00  0.00    +0.036 A 
ATOM     29 CL   UNL     1       8.371   7.007  -1.665  0.00  0.00    -0.084 Cl
ENDBRANCH  18  28
ENDBRANCH  17  19
ENDBRANCH  16  17
ENDBRANCH   1  16
TORSDOF 7
