REMARK  Name = ZINC06189595
REMARK  9 active torsions:
REMARK  status: ('A' for Active; 'I' for Inactive)
REMARK    1  A    between atoms: C_1  and  C_2
REMARK    2  A    between atoms: C_5  and  N_9
REMARK    3  A    between atoms: C_6  and  C_8
REMARK    4  A    between atoms: C_10  and  C_12
REMARK    5  A    between atoms: C_12  and  C_13
REMARK    6  A    between atoms: C_13  and  C_14
REMARK    7  A    between atoms: N_16  and  N_17
REMARK    8  A    between atoms: C_18  and  C_19
REMARK    9  A    between atoms: C_24  and  O_25
REMARK                            x       y       z     vdW  Elec       q    Type
REMARK                         _______ _______ _______ _____ _____    ______ ____
ROOT
ATOM      1  C   UNL     1      -0.330  -8.351  -2.628  0.00  0.00    +0.233 C 
ATOM      2  O   UNL     1      -0.316  -8.960  -1.579  0.00  0.00    -0.274 OA
ATOM      3  N   UNL     1      -0.429  -9.020  -3.794  0.00  0.00    -0.207 N 
ATOM      4  H   UNL     1      -0.440  -8.533  -4.633  0.00  0.00    +0.177 HD
ENDROOT
BRANCH   3   5
ATOM      5  N   UNL     1      -0.516 -10.418  -3.794  0.00  0.00    -0.188 NA
ATOM      6  C   UNL     1      -0.611 -11.062  -4.917  0.00  0.00    +0.142 C 
BRANCH   6   7
ATOM      7  C   UNL     1      -0.703 -12.533  -4.917  0.00  0.00    +0.037 A 
ATOM      8  C   UNL     1      -0.800 -13.231  -6.124  0.00  0.00    +0.028 A 
ATOM      9  C   UNL     1      -0.884 -14.608  -6.117  0.00  0.00    +0.019 A 
ATOM     10  C   UNL     1      -0.875 -15.302  -4.918  0.00  0.00    +0.019 A 
ATOM     11  C   UNL     1      -0.779 -14.623  -3.718  0.00  0.00    +0.047 A 
ATOM     12  C   UNL     1      -0.687 -13.241  -3.707  0.00  0.00    +0.126 A 
ATOM     13 BR   UNL     1      -1.016 -15.552  -7.750  0.00  0.00    -0.050 Br
BRANCH  12  14
ATOM     14  O   UNL     1      -0.588 -12.573  -2.529  0.00  0.00    -0.506 OA
ATOM     15  H   UNL     1      -1.440 -12.325  -2.144  0.00  0.00    +0.292 HD
ENDBRANCH  12  14
ENDBRANCH   6   7
ENDBRANCH   3   5
BRANCH   1  16
ATOM     16  C   UNL     1      -0.236  -6.847  -2.628  0.00  0.00    +0.107 C 
BRANCH  16  17
ATOM     17  C   UNL     1      -0.134  -6.343  -1.187  0.00  0.00    +0.105 C 
BRANCH  17  19
ATOM     18  N   UNL     1       0.059  -4.170  -0.021  0.00  0.00    -0.285 N 
ATOM     19  C   UNL     1      -0.040  -4.839  -1.187  0.00  0.00    +0.218 C 
ATOM     20  O   UNL     1      -0.054  -4.230  -2.236  0.00  0.00    -0.275 OA
ATOM     21  H   UNL     1       0.135  -4.658   0.814  0.00  0.00    +0.155 HD
BRANCH  18  26
ATOM     22  C   UNL     1       0.025   1.503   0.005  0.00  0.00    +0.044 C 
ATOM     23  C   UNL     1       0.034  -0.004  -0.002  0.00  0.00    -0.050 A 
ATOM     24  C   UNL     1       0.632  -0.685  -1.046  0.00  0.00    +0.005 A 
ATOM     25  C   UNL     1       0.641  -2.066  -1.055  0.00  0.00    +0.024 A 
ATOM     26  C   UNL     1       0.051  -2.771  -0.014  0.00  0.00    +0.036 A 
ATOM     27  C   UNL     1      -0.548  -2.083   1.033  0.00  0.00    -0.029 A 
ATOM     28  C   UNL     1      -0.550  -0.702   1.039  0.00  0.00    +0.008 A 
ATOM     29  C   UNL     1      -1.190  -2.843   2.165  0.00  0.00    +0.045 C 
ENDBRANCH  18  26
ENDBRANCH  17  19
ENDBRANCH  16  17
ENDBRANCH   1  16
TORSDOF 7
