REMARK  Name = ZINC19660438
REMARK  4 active torsions:
REMARK  status: ('A' for Active; 'I' for Inactive)
REMARK    1  A    between atoms: C_1  and  C_2
REMARK    2  A    between atoms: C_9  and  C_11
REMARK    3  A    between atoms: N_13  and  C_14
REMARK    4  A    between atoms: N_19  and  C_21
REMARK                            x       y       z     vdW  Elec       q    Type
REMARK                         _______ _______ _______ _____ _____    ______ ____
ROOT
ATOM      1  C   UNL     1       5.463   7.532   0.063  0.00  0.00    +0.264 C 
ATOM      2  O   UNL     1       5.959   7.240   1.134  0.00  0.00    -0.268 OA
ATOM      3  N   UNL     1       4.417   6.825  -0.410  0.00  0.00    -0.305 N 
ATOM      4  H   UNL     1       3.969   7.089  -1.379  0.00  0.00    +0.149 HD
ENDROOT
BRANCH   1  13
ATOM      5  C   UNL     1       5.192  10.655  -4.532  0.00  0.00    +0.047 C 
ATOM      6  C   UNL     1       6.229  10.917  -3.470  0.00  0.00    -0.008 A 
ATOM      7  C   UNL     1       7.123  11.930  -3.619  0.00  0.00    +0.008 A 
ATOM      8  C   UNL     1       8.084  12.163  -2.620  0.00  0.00    +0.018 A 
ATOM      9  C   UNL     1       8.124  11.388  -1.517  0.00  0.00    +0.093 A 
ATOM     10  N   UNL     1       7.232  10.366  -1.353  0.00  0.00    -0.306 N 
ATOM     11  C   UNL     1       6.281  10.113  -2.310  0.00  0.00    +0.141 A 
ATOM     12  N   UNL     1       5.556   9.080  -1.915  0.00  0.00    -0.223 NA
ATOM     13  C   UNL     1       6.006   8.659  -0.719  0.00  0.00    +0.144 A 
ATOM     14  C   UNL     1       7.057   9.453  -0.357  0.00  0.00    +0.125 A 
ENDBRANCH   1  13
BRANCH   3  15
ATOM     15  C   UNL     1       3.878   5.706   0.366  0.00  0.00    +0.100 C 
ATOM     16  C   UNL     1       4.644   4.399   0.057  0.00  0.00    +0.120 C 
ATOM     17  C   UNL     1       3.576   3.328   0.083  0.00  0.00    +0.222 C 
ATOM     18  O   UNL     1       3.788   2.136   0.166  0.00  0.00    -0.275 OA
ATOM     19  N   UNL     1       2.357   3.889   0.001  0.00  0.00    -0.270 N 
ATOM     20  C   UNL     1       2.448   5.349  -0.103  0.00  0.00    +0.136 C 
BRANCH  19  21
ATOM     21  C   UNL     1       1.155   3.171   0.008  0.00  0.00    +0.036 A 
ATOM     22  C   UNL     1       1.174   1.782  -0.015  0.00  0.00    +0.026 A 
ATOM     23  C   UNL     1      -0.013   1.076  -0.007  0.00  0.00    +0.040 A 
ATOM     24  C   UNL     1      -1.221   1.751   0.017  0.00  0.00    +0.124 A 
ATOM     25  C   UNL     1      -1.243   3.136   0.046  0.00  0.00    +0.040 A 
ATOM     26  C   UNL     1      -0.058   3.846   0.039  0.00  0.00    +0.026 A 
ATOM     27  F   UNL     1      -2.381   1.059   0.019  0.00  0.00    -0.205 F 
ENDBRANCH  19  21
ENDBRANCH   3  15
TORSDOF 3
