REMARK  Name = ZINC39594379
REMARK  8 active torsions:
REMARK  status: ('A' for Active; 'I' for Inactive)
REMARK    1  A    between atoms: C_3  and  C_7
REMARK    2  A    between atoms: C_7  and  C_9
REMARK    3  A    between atoms: C_7  and  N_33
REMARK    4  A    between atoms: C_9  and  N_10
REMARK    5  A    between atoms: C_11  and  C_13
REMARK    6  A    between atoms: C_24  and  C_26
REMARK    7  A    between atoms: C_26  and  C_27
REMARK    8  A    between atoms: C_27  and  C_28
REMARK                            x       y       z     vdW  Elec       q    Type
REMARK                         _______ _______ _______ _____ _____    ______ ____
ROOT
ATOM      1  C   UNL     1       7.713   3.394   2.451  0.00  0.00    +0.100 C 
ATOM      2  C   UNL     1       7.755   4.795   1.801  0.00  0.00    +0.121 C 
ATOM      3  N   UNL     1       7.553   5.736   2.927  0.00  0.00    -0.300 N 
ATOM      4  C   UNL     1       8.331   5.148   4.044  0.00  0.00    +0.115 C 
ATOM      5  C   UNL     1       8.095   3.629   3.922  0.00  0.00    -0.004 C 
ATOM      6  C   UNL     1       9.372   2.867   4.264  0.00  0.00    -0.010 C 
ATOM      7  C   UNL     1       9.699   3.069   5.747  0.00  0.00    -0.082 C 
ATOM      8  N   UNL     1       8.582   2.586   6.567  0.00  0.00    +0.379 N 
ATOM      9  C   UNL     1       7.381   3.386   6.298  0.00  0.00    -0.082 C 
ATOM     10  C   UNL     1       6.955   3.197   4.839  0.00  0.00    -0.010 C 
ATOM     11  C   UNL     1       6.827   6.872   2.935  0.00  0.00    +0.216 C 
ATOM     12  O   UNL     1       6.758   7.541   3.944  0.00  0.00    -0.276 OA
ATOM     13  H   UNL     1       8.397   1.619   6.345  0.00  0.00    -0.086 HD
ATOM     14  H   UNL     1       8.825   2.664   7.543  0.00  0.00    -0.086 HD
ENDROOT
BRANCH   1  16
ATOM     15  N   UNL     1       6.158   1.477   2.285  0.00  0.00    -0.316 N 
ATOM     16  C   UNL     1       6.326   2.813   2.356  0.00  0.00    +0.218 C 
ATOM     17  O   UNL     1       5.361   3.547   2.342  0.00  0.00    -0.275 OA
ATOM     18  H   UNL     1       6.930   0.890   2.296  0.00  0.00    +0.149 HD
BRANCH  15  19
ATOM     19  C   UNL     1       4.809   0.912   2.193  0.00  0.00    +0.093 C 
BRANCH  19  20
ATOM     20  C   UNL     1       4.903  -0.602   1.997  0.00  0.00    -0.019 C 
BRANCH  20  23
ATOM     21  C   UNL     1       7.429  -1.504  -0.657  0.00  0.00    +0.020 A 
ATOM     22  C   UNL     1       6.884  -1.239   0.590  0.00  0.00    +0.005 A 
ATOM     23  C   UNL     1       5.543  -0.898   0.665  0.00  0.00    -0.041 A 
ATOM     24  C   UNL     1       4.798  -0.833  -0.498  0.00  0.00    +0.112 A 
ATOM     25  N   UNL     1       5.351  -1.091  -1.667  0.00  0.00    -0.263 NA
ATOM     26  C   UNL     1       6.623  -1.419  -1.776  0.00  0.00    +0.111 A 
ENDBRANCH  20  23
BRANCH  20  27
ATOM     27  N   UNL     1       3.555  -1.185   2.034  0.00  0.00    +0.385 N 
ATOM     28  C   UNL     1       3.629  -2.657   1.849  0.00  0.00    -0.078 C 
ATOM     29  C   UNL     1       2.295  -3.158   2.458  0.00  0.00    -0.020 C 
ATOM     30  C   UNL     1       2.099  -2.225   3.675  0.00  0.00    -0.020 C 
ATOM     31  C   UNL     1       2.945  -0.976   3.365  0.00  0.00    -0.078 C 
ATOM     32  H   UNL     1       2.978  -0.772   1.317  0.00  0.00    -0.081 HD
ENDBRANCH  20  27
ENDBRANCH  19  20
ENDBRANCH  15  19
ENDBRANCH   1  16
BRANCH  11  33
ATOM     33  C   UNL     1       6.100   7.309   1.690  0.00  0.00    +0.096 C 
BRANCH  33  34
ATOM     34  C   UNL     1       5.358   8.619   1.966  0.00  0.00    +0.013 C 
BRANCH  34  35
ATOM     35  C   UNL     1       4.620   9.063   0.702  0.00  0.00    -0.011 C 
ATOM     36  C   UNL     1       5.634   9.471  -0.387  0.00  0.00    +0.003 C 
ATOM     37  C   UNL     1       4.969  10.678  -1.093  0.00  0.00    +0.000 C 
ATOM     38  C   UNL     1       4.296  11.432   0.081  0.00  0.00    +0.000 C 
ATOM     39  C   UNL     1       3.769  10.310   0.999  0.00  0.00    +0.003 C 
ENDBRANCH  34  35
ENDBRANCH  33  34
ENDBRANCH  11  33
TORSDOF 8
