REMARK  Name = ZINC10480718
REMARK  8 active torsions:
REMARK  status: ('A' for Active; 'I' for Inactive)
REMARK    1  A    between atoms: C_2  and  C_3
REMARK    2  A    between atoms: C_3  and  N_4
REMARK    3  A    between atoms: C_5  and  C_21
REMARK    4  A    between atoms: C_8  and  S_9
REMARK    5  A    between atoms: S_9  and  C_10
REMARK    6  A    between atoms: C_10  and  C_11
REMARK    7  A    between atoms: N_13  and  C_14
REMARK    8  A    between atoms: C_25  and  N_27
REMARK                            x       y       z     vdW  Elec       q    Type
REMARK                         _______ _______ _______ _____ _____    ______ ____
ROOT
ATOM      1  N   UNL     1      -1.732  -1.931  -0.951  0.00  0.00    -0.298 N 
ATOM      2  C   UNL     1      -1.923  -1.690  -2.292  0.00  0.00    +0.165 A 
ATOM      3  N   UNL     1      -1.544  -2.770  -2.935  0.00  0.00    -0.128 NA
ATOM      4  N   UNL     1      -1.134  -3.657  -2.100  0.00  0.00    -0.122 NA
ATOM      5  C   UNL     1      -1.222  -3.196  -0.873  0.00  0.00    +0.193 A 
ENDROOT
BRANCH   2   6
ATOM      6  C   UNL     1      -2.457  -0.450  -2.894  0.00  0.00    +0.021 A 
ATOM      7  C   UNL     1      -2.405   0.752  -2.186  0.00  0.00    +0.012 A 
ATOM      8  C   UNL     1      -2.905   1.905  -2.753  0.00  0.00    +0.003 A 
ATOM      9  C   UNL     1      -3.456   1.873  -4.022  0.00  0.00    +0.033 A 
ATOM     10  C   UNL     1      -3.510   0.686  -4.730  0.00  0.00    +0.127 A 
ATOM     11  C   UNL     1      -3.009  -0.474  -4.176  0.00  0.00    +0.044 A 
BRANCH  10  12
ATOM     12  N   UNL     1      -4.101   0.660  -6.087  0.00  0.00    +0.056 N 
ATOM     13  O   UNL     1      -4.536   1.677  -6.575  0.00  0.00    -0.126 OA
ATOM     14  O   UNL     1      -4.149  -0.377  -6.706  0.00  0.00    -0.126 OA
ENDBRANCH  10  12
ENDBRANCH   2   6
BRANCH   1  15
ATOM     15  C   UNL     1      -2.011  -1.019   0.161  0.00  0.00    +0.152 C 
BRANCH  15  17
ATOM     16  C   UNL     1      -0.733   1.006   0.639  0.00  0.00    +0.005 C 
ATOM     17  C   UNL     1      -0.745  -0.301   0.552  0.00  0.00    -0.013 C 
ENDBRANCH  15  17
ENDBRANCH   1  15
BRANCH   5  18
ATOM     18  S   UNL     1      -0.769  -4.051   0.600  0.00  0.00    -0.077 S 
BRANCH  18  19
ATOM     19  C   UNL     1      -0.173  -5.659   0.008  0.00  0.00    +0.173 C 
BRANCH  19  20
ATOM     20  C   UNL     1       0.252  -6.501   1.183  0.00  0.00    +0.228 C 
ATOM     21  O   UNL     1       0.162  -6.060   2.309  0.00  0.00    -0.275 OA
ATOM     22  N   UNL     1       0.732  -7.744   0.983  0.00  0.00    -0.284 N 
ATOM     23  H   UNL     1       0.867  -8.072   0.080  0.00  0.00    +0.155 HD
BRANCH  22  24
ATOM     24  C   UNL     1       1.036  -8.562   2.077  0.00  0.00    +0.047 A 
ATOM     25  C   UNL     1       0.305  -8.450   3.253  0.00  0.00    +0.024 A 
ATOM     26  C   UNL     1       0.607  -9.258   4.332  0.00  0.00    +0.002 A 
ATOM     27  C   UNL     1       1.635 -10.179   4.242  0.00  0.00    +0.001 A 
ATOM     28  C   UNL     1       2.365 -10.293   3.073  0.00  0.00    +0.017 A 
ATOM     29  C   UNL     1       2.064  -9.492   1.988  0.00  0.00    +0.039 A 
ATOM     30 BR   UNL     1       3.057  -9.654   0.387  0.00  0.00    -0.048 Br
ENDBRANCH  22  24
ENDBRANCH  19  20
ENDBRANCH  18  19
ENDBRANCH   5  18
TORSDOF 8
