REMARK  Name = ZINC35311038
REMARK  8 active torsions:
REMARK  status: ('A' for Active; 'I' for Inactive)
REMARK    1  A    between atoms: C_3  and  C_6
REMARK    2  A    between atoms: C_6  and  N_7
REMARK    3  A    between atoms: C_8  and  C_23
REMARK    4  A    between atoms: C_11  and  S_12
REMARK    5  A    between atoms: S_12  and  C_13
REMARK    6  A    between atoms: C_13  and  C_14
REMARK    7  A    between atoms: N_16  and  C_17
REMARK    8  A    between atoms: C_26  and  O_29
REMARK                            x       y       z     vdW  Elec       q    Type
REMARK                         _______ _______ _______ _____ _____    ______ ____
ROOT
ATOM      1  N   UNL     1       4.041   0.725   1.367  0.00  0.00    -0.295 N 
ATOM      2  C   UNL     1       4.319   1.877   2.065  0.00  0.00    +0.165 A 
ATOM      3  N   UNL     1       4.832   1.515   3.218  0.00  0.00    -0.128 NA
ATOM      4  N   UNL     1       4.892   0.233   3.288  0.00  0.00    -0.122 NA
ATOM      5  C   UNL     1       4.417  -0.302   2.187  0.00  0.00    +0.193 A 
ENDROOT
BRANCH   2   6
ATOM      6  C   UNL     1       4.086   3.262   1.604  0.00  0.00    +0.020 A 
ATOM      7  C   UNL     1       4.721   4.329   2.242  0.00  0.00    +0.015 A 
ATOM      8  C   UNL     1       4.501   5.619   1.808  0.00  0.00    +0.046 A 
ATOM      9  C   UNL     1       3.649   5.858   0.738  0.00  0.00    +0.117 A 
ATOM     10  C   UNL     1       3.015   4.799   0.101  0.00  0.00    +0.046 A 
ATOM     11  C   UNL     1       3.235   3.506   0.524  0.00  0.00    +0.015 A 
BRANCH   9  12
ATOM     12  O   UNL     1       3.435   7.130   0.314  0.00  0.00    -0.507 OA
ATOM     13  H   UNL     1       4.054   7.428  -0.367  0.00  0.00    +0.292 HD
ENDBRANCH   9  12
ENDBRANCH   2   6
BRANCH   1  14
ATOM     14  C   UNL     1       3.457   0.620   0.028  0.00  0.00    +0.200 C 
BRANCH  14  17
ATOM     15  C   UNL     1      -0.212   0.683   0.370  0.00  0.00    +0.041 A 
ATOM     16  C   UNL     1       1.038   1.341   0.313  0.00  0.00    +0.046 A 
ATOM     17  C   UNL     1       1.972   0.388   0.144  0.00  0.00    +0.125 A 
ATOM     18  O   UNL     1       1.358  -0.805   0.096  0.00  0.00    -0.466 OA
ATOM     19  C   UNL     1       0.033  -0.633   0.232  0.00  0.00    +0.195 A 
ENDBRANCH  14  17
ENDBRANCH   1  14
BRANCH   5  20
ATOM     20  S   UNL     1       4.292  -2.023   1.830  0.00  0.00    -0.077 S 
BRANCH  20  21
ATOM     21  C   UNL     1       4.955  -2.828   3.314  0.00  0.00    +0.173 C 
BRANCH  21  22
ATOM     22  C   UNL     1       4.905  -4.324   3.139  0.00  0.00    +0.224 C 
ATOM     23  O   UNL     1       4.466  -4.800   2.114  0.00  0.00    -0.275 OA
ATOM     24  N   UNL     1       5.349  -5.133   4.122  0.00  0.00    -0.312 N 
ATOM     25  H   UNL     1       5.701  -4.752   4.942  0.00  0.00    +0.149 HD
BRANCH  24  26
ATOM     26  C   UNL     1       5.301  -6.587   3.952  0.00  0.00    +0.073 C 
ATOM     27  C   UNL     1       6.550  -7.054   3.203  0.00  0.00    +0.022 C 
ATOM     28  C   UNL     1       6.500  -8.573   3.025  0.00  0.00    +0.002 C 
ATOM     29  C   UNL     1       6.447  -9.246   4.398  0.00  0.00    +0.000 C 
ATOM     30  C   UNL     1       5.197  -8.778   5.147  0.00  0.00    +0.002 C 
ATOM     31  C   UNL     1       5.248  -7.259   5.325  0.00  0.00    +0.022 C 
ENDBRANCH  24  26
ENDBRANCH  21  22
ENDBRANCH  20  21
ENDBRANCH   5  20
TORSDOF 8
