REMARK  Name = ZINC39711643
REMARK  8 active torsions:
REMARK  status: ('A' for Active; 'I' for Inactive)
REMARK    1  A    between atoms: C_3  and  C_7
REMARK    2  A    between atoms: C_7  and  N_8
REMARK    3  A    between atoms: N_8  and  C_9
REMARK    4  A    between atoms: N_8  and  C_15
REMARK    5  A    between atoms: C_9  and  C_10
REMARK    6  A    between atoms: C_15  and  C_17
REMARK    7  A    between atoms: C_15  and  C_32
REMARK    8  A    between atoms: N_37  and  C_38
REMARK                            x       y       z     vdW  Elec       q    Type
REMARK                         _______ _______ _______ _____ _____    ______ ____
ROOT
ATOM      1  C   UNL     1       5.945   3.194   0.713  0.00  0.00    -0.008 C 
ENDROOT
BRANCH   1   2
ATOM      2  C   UNL     1       7.197   2.732  -0.035  0.00  0.00    +0.088 C 
ATOM      3  C   UNL     1       7.525   1.327   0.431  0.00  0.00    -0.006 C 
ATOM      4  C   UNL     1       8.754   1.120   0.977  0.00  0.00    -0.003 A 
ATOM      5  C   UNL     1       9.148  -0.207   1.452  0.00  0.00    +0.059 A 
ATOM      6  C   UNL     1      10.382  -0.380   1.994  0.00  0.00    +0.167 A 
ATOM      7  C   UNL     1      11.288   0.697   2.105  0.00  0.00    +0.168 A 
ATOM      8  C   UNL     1      10.965   1.966   1.672  0.00  0.00    +0.073 A 
ATOM      9  C   UNL     1       9.714   2.232   1.101  0.00  0.00    +0.044 A 
ATOM     10  N   UNL     1       9.421   3.468   0.689  0.00  0.00    -0.284 N 
ATOM     11  C   UNL     1       8.262   3.790   0.144  0.00  0.00    +0.223 C 
ATOM     12  O   UNL     1       8.052   4.934  -0.213  0.00  0.00    -0.275 OA
ATOM     13  O   UNL     1      12.434   0.230   2.681  0.00  0.00    -0.453 OA
ATOM     14  C   UNL     1      12.077  -1.019   3.299  0.00  0.00    +0.466 C 
ATOM     15  O   UNL     1      10.978  -1.499   2.504  0.00  0.00    -0.453 OA
ATOM     16  H   UNL     1      10.091   4.162   0.794  0.00  0.00    +0.155 HD
ENDBRANCH   1   2
BRANCH   1  17
ATOM     17  C   UNL     1       6.247   3.275   2.211  0.00  0.00    +0.205 C 
ATOM     18  N   UNL     1       5.125   3.896   2.927  0.00  0.00    -0.152 NA
ATOM     19  N   UNL     1       5.522   4.929   3.471  0.00  0.00    -0.070 NA
ATOM     20  N   UNL     1       6.875   5.177   3.242  0.00  0.00    -0.179 N 
ATOM     21  N   UNL     1       7.392   4.176   2.458  0.00  0.00    -0.185 NA
ATOM     22  H   UNL     1       7.372   5.937   3.583  0.00  0.00    +0.191 HD
BRANCH  21  23
ATOM     23  C   UNL     1       8.478   3.469   3.152  0.00  0.00    +0.080 C 
ATOM     24  C   UNL     1       8.083   3.207   4.620  0.00  0.00    +0.021 C 
ATOM     25  C   UNL     1       9.403   3.397   5.408  0.00  0.00    +0.002 C 
ATOM     26  C   UNL     1      10.070   4.588   4.674  0.00  0.00    +0.002 C 
ATOM     27  C   UNL     1       9.741   4.348   3.187  0.00  0.00    +0.021 C 
ENDBRANCH  21  23
ENDBRANCH   1  17
BRANCH   1  28
ATOM     28  N   UNL     1       4.856   2.235   0.484  0.00  0.00    +0.392 N 
ATOM     29  H   UNL     1       5.141   1.321   0.800  0.00  0.00    -0.080 HD
BRANCH  28  30
ATOM     30  C   UNL     1       4.543   2.183  -0.950  0.00  0.00    -0.040 C 
BRANCH  30  33
ATOM     31  C   UNL     1       4.831   5.690  -2.311  0.00  0.00    +0.020 A 
ATOM     32  C   UNL     1       5.196   4.428  -1.868  0.00  0.00    +0.005 A 
ATOM     33  C   UNL     1       4.198   3.565  -1.440  0.00  0.00    -0.046 A 
ATOM     34  C   UNL     1       2.883   3.989  -1.470  0.00  0.00    +0.112 A 
ATOM     35  N   UNL     1       2.573   5.197  -1.898  0.00  0.00    -0.263 NA
ATOM     36  C   UNL     1       3.495   6.044  -2.312  0.00  0.00    +0.111 A 
ENDBRANCH  30  33
ENDBRANCH  28  30
BRANCH  28  37
ATOM     37  C   UNL     1       3.664   2.662   1.230  0.00  0.00    -0.002 C 
BRANCH  37  38
ATOM     38  C   UNL     1       2.563   1.651   1.037  0.00  0.00    +0.089 A 
ATOM     39  C   UNL     1       2.284   0.625   1.861  0.00  0.00    +0.042 A 
ATOM     40  C   UNL     1       1.182  -0.062   1.301  0.00  0.00    +0.041 A 
ATOM     41  C   UNL     1       0.855   0.585   0.168  0.00  0.00    +0.195 A 
ATOM     42  O   UNL     1       1.691   1.625   0.016  0.00  0.00    -0.470 OA
ENDBRANCH  37  38
ENDBRANCH  28  37
ENDBRANCH   1  28
TORSDOF 8
