REMARK  Name = ZINC44975322
REMARK  6 active torsions:
REMARK  status: ('A' for Active; 'I' for Inactive)
REMARK    1  A    between atoms: C_15  and  C_17
REMARK    2  A    between atoms: C_23  and  C_25
REMARK    3  A    between atoms: N_27  and  C_28
REMARK    4  A    between atoms: C_28  and  C_29
REMARK    5  A    between atoms: C_29  and  C_30
REMARK    6  A    between atoms: C_30  and  N_31
REMARK                            x       y       z     vdW  Elec       q    Type
REMARK                         _______ _______ _______ _____ _____    ______ ____
ROOT
ATOM      1  C   UNL     1       4.458  -5.495   1.776  0.00  0.00    +0.091 C 
ATOM      2  C   UNL     1       5.579  -5.551   0.735  0.00  0.00    +0.040 C 
ATOM      3  C   UNL     1       6.896  -5.804   1.407  0.00  0.00    -0.030 C 
ATOM      4  C   UNL     1       7.021  -6.260   2.612  0.00  0.00    -0.030 C 
ATOM      5  C   UNL     1       5.864  -6.591   3.509  0.00  0.00    +0.040 C 
ATOM      6  C   UNL     1       4.578  -6.720   2.691  0.00  0.00    +0.091 C 
ENDROOT
BRANCH   1  21
ATOM      7  C   UNL     1      -0.016   1.362   0.009  0.00  0.00    +0.001 A 
ATOM      8  C   UNL     1       1.169   2.083   0.002  0.00  0.00    +0.002 A 
ATOM      9  C   UNL     1       2.385   1.436  -0.013  0.00  0.00    +0.026 A 
ATOM     10  C   UNL     1       2.428   0.046  -0.021  0.00  0.00    +0.047 A 
ATOM     11  C   UNL     1       1.223  -0.682  -0.013  0.00  0.00    +0.003 A 
ATOM     12  C   UNL     1       0.002  -0.004   0.002  0.00  0.00    +0.010 A 
ATOM     13  C   UNL     1       1.607  -2.091  -0.024  0.00  0.00    -0.016 A 
ATOM     14  C   UNL     1       2.953  -2.138  -0.039  0.00  0.00    +0.038 A 
ATOM     15  N   UNL     1       3.458  -0.870  -0.036  0.00  0.00    -0.356 N 
ATOM     16  H   UNL     1       4.402  -0.646  -0.044  0.00  0.00    +0.166 HD
ATOM     17  C   UNL     1       3.742  -3.429  -0.061  0.00  0.00    +0.161 C 
ATOM     18  N   UNL     1       2.799  -4.526   0.218  0.00  0.00    -0.295 N 
ATOM     19  C   UNL     1       1.499  -4.522  -0.468  0.00  0.00    +0.113 C 
ATOM     20  C   UNL     1       0.699  -3.294  -0.014  0.00  0.00    +0.056 C 
ATOM     21  C   UNL     1       3.121  -5.509   1.082  0.00  0.00    +0.220 C 
ATOM     22  O   UNL     1       2.333  -6.405   1.301  0.00  0.00    -0.275 OA
ENDBRANCH   1  21
BRANCH   6  23
ATOM     23  C   UNL     1       3.389  -6.781   3.615  0.00  0.00    +0.217 C 
ATOM     24  O   UNL     1       2.528  -5.929   3.551  0.00  0.00    -0.275 OA
ATOM     25  N   UNL     1       3.283  -7.781   4.512  0.00  0.00    -0.315 N 
ATOM     26  H   UNL     1       3.971  -8.462   4.562  0.00  0.00    +0.149 HD
BRANCH  25  27
ATOM     27  C   UNL     1       2.127  -7.840   5.410  0.00  0.00    +0.106 C 
BRANCH  27  28
ATOM     28  C   UNL     1       2.250  -9.063   6.321  0.00  0.00    +0.040 C 
BRANCH  28  29
ATOM     29  C   UNL     1       1.043  -9.124   7.259  0.00  0.00    +0.124 C 
BRANCH  29  30
ATOM     30  N   UNL     1       1.161 -10.296   8.130  0.00  0.00    -0.338 N 
ATOM     31  C   UNL     1       0.686 -11.553   7.870  0.00  0.00    +0.104 A 
ATOM     32  C   UNL     1       1.010 -12.319   8.930  0.00  0.00    +0.101 A 
ATOM     33  N   UNL     1       1.665 -11.550   9.812  0.00  0.00    -0.352 N 
ATOM     34  C   UNL     1       1.764 -10.338   9.338  0.00  0.00    +0.173 A 
ATOM     35  H   UNL     1       2.014 -11.849  10.667  0.00  0.00    +0.166 HD
ENDBRANCH  29  30
ENDBRANCH  28  29
ENDBRANCH  27  28
ENDBRANCH  25  27
ENDBRANCH   6  23
TORSDOF 6
