REMARK  Name = ZINC39699319
REMARK  14 active torsions:
REMARK  status: ('A' for Active; 'I' for Inactive)
REMARK    1  A    between atoms: C_1  and  C_2
REMARK    2  A    between atoms: C_2  and  C_3
REMARK    3  A    between atoms: C_3  and  C_4
REMARK    4  A    between atoms: C_3  and  C_5
REMARK    5  A    between atoms: C_3  and  N_6
REMARK    6  A    between atoms: C_7  and  C_12
REMARK    7  A    between atoms: C_12  and  C_14
REMARK    8  A    between atoms: C_12  and  N_28
REMARK    9  A    between atoms: C_18  and  C_27
REMARK   10  A    between atoms: C_20  and  C_26
REMARK   11  A    between atoms: N_28  and  C_29
REMARK   12  A    between atoms: N_28  and  C_36
REMARK   13  A    between atoms: C_29  and  C_30
REMARK   14  A    between atoms: C_36  and  C_37
REMARK                            x       y       z     vdW  Elec       q    Type
REMARK                         _______ _______ _______ _____ _____    ______ ____
ROOT
ATOM      1  C   UNL     1      -4.262  -3.450   1.464  0.00  0.00    -0.010 C 
ENDROOT
BRANCH   1   2
ATOM      2  C   UNL     1      -5.456  -2.514   1.266  0.00  0.00    +0.088 C 
ATOM      3  C   UNL     1      -6.265  -3.035   0.094  0.00  0.00    -0.006 C 
ATOM      4  C   UNL     1      -6.457  -2.190  -0.958  0.00  0.00    -0.004 A 
ATOM      5  C   UNL     1      -7.225  -2.612  -2.130  0.00  0.00    -0.042 A 
ATOM      6  C   UNL     1      -7.389  -1.736  -3.155  0.00  0.00    +0.007 A 
ATOM      7  C   UNL     1      -6.843  -0.454  -3.110  0.00  0.00    -0.048 A 
ATOM      8  C   UNL     1      -6.120  -0.002  -2.052  0.00  0.00    +0.027 A 
ATOM      9  C   UNL     1      -5.891  -0.830  -0.937  0.00  0.00    +0.041 A 
ATOM     10  N   UNL     1      -5.181  -0.376   0.095  0.00  0.00    -0.285 N 
ATOM     11  C   UNL     1      -4.927  -1.101   1.171  0.00  0.00    +0.223 C 
ATOM     12  O   UNL     1      -4.272  -0.631   2.082  0.00  0.00    -0.275 OA
ATOM     13  C   UNL     1      -7.062   0.468  -4.282  0.00  0.00    +0.044 C 
ATOM     14  C   UNL     1      -7.822  -3.994  -2.198  0.00  0.00    +0.044 C 
ATOM     15  H   UNL     1      -4.833   0.529   0.055  0.00  0.00    +0.155 HD
ENDBRANCH   1   2
BRANCH   1  17
ATOM     16  N   UNL     1      -2.015  -3.947   0.559  0.00  0.00    -0.211 N 
ATOM     17  C   UNL     1      -3.329  -3.349   0.256  0.00  0.00    +0.183 C 
ATOM     18  N   UNL     1      -3.820  -4.182  -0.858  0.00  0.00    -0.229 N 
ATOM     19  N   UNL     1      -2.820  -5.132  -1.096  0.00  0.00    -0.064 NA
ATOM     20  N   UNL     1      -1.857  -5.004  -0.345  0.00  0.00    -0.061 NA
ATOM     21  H   UNL     1      -4.663  -4.091  -1.329  0.00  0.00    +0.172 HD
BRANCH  16  22
ATOM     22  C   UNL     1      -1.067  -3.519   1.591  0.00  0.00    +0.050 C 
ATOM     23  C   UNL     1      -1.551  -4.001   2.960  0.00  0.00    +0.033 C 
ATOM     24  C   UNL     1      -0.971  -1.992   1.593  0.00  0.00    +0.033 C 
BRANCH  22  26
ATOM     25  C   UNL     1       1.278  -3.744   2.423  0.00  0.00    +0.006 C 
ATOM     26  C   UNL     1       0.310  -4.117   1.298  0.00  0.00    +0.023 C 
ENDBRANCH  22  26
ENDBRANCH  16  22
ENDBRANCH   1  17
BRANCH   1  27
ATOM     27  N   UNL     1      -4.740  -4.832   1.600  0.00  0.00    +0.392 N 
ATOM     28  H   UNL     1      -5.215  -5.108   0.754  0.00  0.00    -0.080 HD
BRANCH  27  29
ATOM     29  C   UNL     1      -5.669  -4.919   2.735  0.00  0.00    -0.042 C 
BRANCH  29  30
ATOM     30  C   UNL     1      -4.960  -4.503   3.998  0.00  0.00    -0.064 A 
ATOM     31  C   UNL     1      -4.218  -5.426   4.710  0.00  0.00    +0.002 A 
ATOM     32  C   UNL     1      -3.568  -5.044   5.869  0.00  0.00    +0.000 A 
ATOM     33  C   UNL     1      -3.660  -3.739   6.315  0.00  0.00    +0.000 A 
ATOM     34  C   UNL     1      -4.401  -2.816   5.602  0.00  0.00    +0.000 A 
ATOM     35  C   UNL     1      -5.048  -3.196   4.441  0.00  0.00    +0.002 A 
ENDBRANCH  29  30
ENDBRANCH  27  29
BRANCH  27  36
ATOM     36  C   UNL     1      -3.597  -5.725   1.834  0.00  0.00    -0.002 C 
BRANCH  36  37
ATOM     37  C   UNL     1      -4.064  -7.157   1.805  0.00  0.00    +0.089 A 
ATOM     38  C   UNL     1      -4.212  -7.914   0.703  0.00  0.00    +0.042 A 
ATOM     39  C   UNL     1      -4.667  -9.181   1.135  0.00  0.00    +0.041 A 
ATOM     40  C   UNL     1      -4.770  -9.123   2.474  0.00  0.00    +0.195 A 
ATOM     41  O   UNL     1      -4.398  -7.896   2.876  0.00  0.00    -0.470 OA
ENDBRANCH  36  37
ENDBRANCH  27  36
ENDBRANCH   1  27
TORSDOF 9
