REMARK  Name = ZINC39710350
REMARK  12 active torsions:
REMARK  status: ('A' for Active; 'I' for Inactive)
REMARK    1  A    between atoms: C_1  and  C_2
REMARK    2  A    between atoms: C_9  and  C_14
REMARK    3  A    between atoms: C_14  and  C_16
REMARK    4  A    between atoms: C_14  and  N_26
REMARK    5  A    between atoms: N_21  and  C_22
REMARK    6  A    between atoms: C_22  and  C_23
REMARK    7  A    between atoms: C_22  and  C_24
REMARK    8  A    between atoms: C_22  and  C_25
REMARK    9  A    between atoms: N_26  and  C_27
REMARK   10  A    between atoms: N_26  and  C_34
REMARK   11  A    between atoms: C_27  and  C_28
REMARK   12  A    between atoms: C_34  and  C_35
REMARK                            x       y       z     vdW  Elec       q    Type
REMARK                         _______ _______ _______ _____ _____    ______ ____
ROOT
ATOM      1  C   UNL     1      -0.352  -5.684   2.165  0.00  0.00    -0.009 C 
ENDROOT
BRANCH   1  10
ATOM      2  C   UNL     1      -5.207  -8.677  -2.134  0.00  0.00    +0.044 C 
ATOM      3  C   UNL     1      -3.836  -8.575  -1.516  0.00  0.00    -0.050 A 
ATOM      4  C   UNL     1      -3.019  -9.706  -1.477  0.00  0.00    +0.005 A 
ATOM      5  C   UNL     1      -1.772  -9.691  -0.938  0.00  0.00    +0.024 A 
ATOM      6  C   UNL     1      -1.247  -8.508  -0.386  0.00  0.00    +0.040 A 
ATOM      7  N   UNL     1      -0.022  -8.505   0.140  0.00  0.00    -0.285 N 
ATOM      8  C   UNL     1       0.531  -7.429   0.675  0.00  0.00    +0.223 C 
ATOM      9  O   UNL     1       1.654  -7.488   1.141  0.00  0.00    -0.275 OA
ATOM     10  C   UNL     1      -0.236  -6.127   0.705  0.00  0.00    +0.088 C 
ATOM     11  C   UNL     1      -1.629  -6.125   0.107  0.00  0.00    -0.006 C 
ATOM     12  C   UNL     1      -2.088  -7.299  -0.414  0.00  0.00    -0.007 A 
ATOM     13  C   UNL     1      -3.419  -7.384  -1.015  0.00  0.00    +0.012 A 
ATOM     14  H   UNL     1       0.487  -9.331   0.131  0.00  0.00    +0.155 HD
ENDBRANCH   1  10
BRANCH   1  15
ATOM     15  C   UNL     1       0.829  -4.777   2.518  0.00  0.00    +0.205 C 
ATOM     16  N   UNL     1       0.662  -4.221   3.868  0.00  0.00    -0.152 NA
ATOM     17  N   UNL     1       0.604  -2.992   3.788  0.00  0.00    -0.070 NA
ATOM     18  N   UNL     1       0.712  -2.528   2.478  0.00  0.00    -0.179 N 
ATOM     19  N   UNL     1       0.857  -3.597   1.629  0.00  0.00    -0.183 NA
ATOM     20  H   UNL     1       0.689  -1.596   2.208  0.00  0.00    +0.191 HD
BRANCH  19  21
ATOM     21  C   UNL     1       2.127  -3.521   0.895  0.00  0.00    +0.035 C 
ATOM     22  C   UNL     1       2.255  -4.734  -0.030  0.00  0.00    +0.029 C 
ATOM     23  C   UNL     1       2.158  -2.239   0.061  0.00  0.00    +0.029 C 
ATOM     24  C   UNL     1       3.290  -3.512   1.888  0.00  0.00    +0.029 C 
ENDBRANCH  19  21
ENDBRANCH   1  15
BRANCH   1  25
ATOM     25  N   UNL     1      -0.340  -6.866   3.038  0.00  0.00    +0.390 N 
ATOM     26  H   UNL     1       0.562  -7.314   2.984  0.00  0.00    -0.080 HD
BRANCH  25  27
ATOM     27  C   UNL     1      -0.600  -6.454   4.424  0.00  0.00    -0.042 C 
BRANCH  27  28
ATOM     28  C   UNL     1      -1.966  -5.822   4.512  0.00  0.00    -0.064 A 
ATOM     29  C   UNL     1      -2.100  -4.450   4.416  0.00  0.00    +0.002 A 
ATOM     30  C   UNL     1      -3.352  -3.870   4.497  0.00  0.00    +0.000 A 
ATOM     31  C   UNL     1      -4.471  -4.663   4.674  0.00  0.00    +0.000 A 
ATOM     32  C   UNL     1      -4.336  -6.036   4.769  0.00  0.00    +0.000 A 
ATOM     33  C   UNL     1      -3.084  -6.616   4.684  0.00  0.00    +0.002 A 
ENDBRANCH  27  28
ENDBRANCH  25  27
BRANCH  25  34
ATOM     34  C   UNL     1      -1.381  -7.806   2.603  0.00  0.00    -0.042 C 
BRANCH  34  35
ATOM     35  C   UNL     1      -0.895  -9.219   2.796  0.00  0.00    -0.064 A 
ATOM     36  C   UNL     1       0.378  -9.451   3.283  0.00  0.00    +0.004 A 
ATOM     37  C   UNL     1       0.826 -10.746   3.461  0.00  0.00    +0.038 A 
ATOM     38  C   UNL     1      -0.001 -11.812   3.151  0.00  0.00    +0.123 A 
ATOM     39  C   UNL     1      -1.276 -11.579   2.663  0.00  0.00    +0.038 A 
ATOM     40  C   UNL     1      -1.723 -10.283   2.491  0.00  0.00    +0.004 A 
ATOM     41  F   UNL     1       0.435 -13.079   3.324  0.00  0.00    -0.205 F 
ENDBRANCH  34  35
ENDBRANCH  25  34
ENDBRANCH   1  25
TORSDOF 8
