REMARK  Name = ZINC14274053
REMARK  9 active torsions:
REMARK  status: ('A' for Active; 'I' for Inactive)
REMARK    1  A    between atoms: C_1  and  C_2
REMARK    2  A    between atoms: C_3  and  C_28
REMARK    3  A    between atoms: C_4  and  N_11
REMARK    4  A    between atoms: C_6  and  C_7
REMARK    5  A    between atoms: C_7  and  O_9
REMARK    6  A    between atoms: O_9  and  C_10
REMARK    7  A    between atoms: N_11  and  C_12
REMARK    8  A    between atoms: C_12  and  N_14
REMARK    9  A    between atoms: C_15  and  C_17
REMARK                            x       y       z     vdW  Elec       q    Type
REMARK                         _______ _______ _______ _____ _____    ______ ____
ROOT
ATOM      1  C   UNL     1      -3.563   2.475   0.048  0.00  0.00    +0.141 C 
ATOM      2  S   UNL     1      -3.303   4.167   0.035  0.00  0.00    -0.018 S 
ENDROOT
BRANCH   1   3
ATOM      3  N   UNL     1      -4.819   1.986   0.051  0.00  0.00    -0.264 N 
ATOM      4  C   UNL     1      -5.870   2.829   0.045  0.00  0.00    +0.250 C 
ATOM      5  O   UNL     1      -5.686   4.031   0.036  0.00  0.00    -0.270 OA
ATOM      6  H   UNL     1      -4.966   1.027   0.059  0.00  0.00    +0.157 HD
BRANCH   4   7
ATOM      7  C   UNL     1      -7.243   2.295   0.049  0.00  0.00    +0.045 A 
ATOM      8  C   UNL     1      -7.473   0.929  -0.061  0.00  0.00    +0.014 A 
ATOM      9  C   UNL     1      -8.768   0.428  -0.053  0.00  0.00    +0.001 A 
ATOM     10  C   UNL     1      -9.853   1.244   0.052  0.00  0.00    +0.009 A 
ATOM     11  C   UNL     1      -9.695   2.635   0.162  0.00  0.00    -0.003 A 
ATOM     12  C   UNL     1      -8.392   3.191   0.163  0.00  0.00    -0.005 A 
ATOM     13  C   UNL     1      -8.231   4.577   0.271  0.00  0.00    +0.009 A 
ATOM     14  C   UNL     1      -9.330   5.378   0.374  0.00  0.00    +0.002 A 
ATOM     15  C   UNL     1     -10.613   4.836   0.374  0.00  0.00    +0.016 A 
ATOM     16  C   UNL     1     -10.806   3.491   0.270  0.00  0.00    +0.026 A 
ATOM     17 BR   UNL     1     -12.558   2.779   0.272  0.00  0.00    -0.050 Br
ENDBRANCH   4   7
ENDBRANCH   1   3
BRANCH   1  18
ATOM     18  N   UNL     1      -2.511   1.632   0.054  0.00  0.00    -0.290 N 
ATOM     19  H   UNL     1      -2.659   0.673   0.061  0.00  0.00    +0.154 HD
BRANCH  18  23
ATOM     20  C   UNL     1       2.504   1.477   0.045  0.00  0.00    +0.046 C 
ATOM     21  C   UNL     1       1.159   2.158   0.045  0.00  0.00    -0.010 A 
ATOM     22  C   UNL     1      -0.017   1.428   0.056  0.00  0.00    +0.084 A 
ATOM     23  C   UNL     1      -1.225   2.133   0.051  0.00  0.00    +0.090 A 
ATOM     24  S   UNL     1      -0.712   3.788   0.041  0.00  0.00    -0.065 S 
ATOM     25  C   UNL     1       1.052   3.535   0.035  0.00  0.00    +0.102 A 
BRANCH  25  26
ATOM     26  C   UNL     1       2.119   4.534   0.023  0.00  0.00    +0.346 C 
ATOM     27  O   UNL     1       3.283   4.181   0.020  0.00  0.00    -0.244 OA
BRANCH  26  28
ATOM     28  O   UNL     1       1.812   5.848   0.014  0.00  0.00    -0.464 OA
ATOM     29  C   UNL     1       2.905   6.769   0.002  0.00  0.00    +0.280 C 
ENDBRANCH  26  28
ENDBRANCH  25  26
BRANCH  22  30
ATOM     30  C   UNL     1       0.002  -0.004   0.066  0.00  0.00    +0.102 C 
ATOM     31  N   UNL     1       0.018  -1.140   0.074  0.00  0.00    -0.191 NA
ENDBRANCH  22  30
ENDBRANCH  18  23
ENDBRANCH   1  18
TORSDOF 7
