REMARK  Name = ZINC35313953
REMARK  6 active torsions:
REMARK  status: ('A' for Active; 'I' for Inactive)
REMARK    1  A    between atoms: C_1  and  C_2
REMARK    2  A    between atoms: C_2  and  C_4
REMARK    3  A    between atoms: C_2  and  C_17
REMARK    4  A    between atoms: C_4  and  C_5
REMARK    5  A    between atoms: C_17  and  C_18
REMARK    6  A    between atoms: N_20  and  C_21
REMARK                            x       y       z     vdW  Elec       q    Type
REMARK                         _______ _______ _______ _____ _____    ______ ____
ROOT
ATOM      1  C   UNL     1      -0.019   1.526   0.010  0.00  0.00    +0.008 C 
ATOM      2  C   UNL     1       0.002  -0.004   0.002  0.00  0.00    +0.002 C 
ENDROOT
BRANCH   2   3
ATOM      3  C   UNL     1       0.718  -0.497  -1.257  0.00  0.00    +0.078 C 
BRANCH   3   4
ATOM      4  C   UNL     1      -0.077  -0.103  -2.474  0.00  0.00    +0.111 A 
ATOM      5  N   UNL     1       0.397  -0.459  -3.697  0.00  0.00    -0.310 N 
ATOM      6  H   UNL     1       1.228  -0.954  -3.764  0.00  0.00    +0.170 HD
ATOM      7  C   UNL     1      -0.280  -0.129  -4.821  0.00  0.00    +0.259 A 
ATOM      8  O   UNL     1       0.132  -0.442  -5.923  0.00  0.00    -0.267 OA
ATOM      9  C   UNL     1      -1.534   0.622  -4.660  0.00  0.00    +0.065 A 
ATOM     10  C   UNL     1      -2.306   1.011  -5.753  0.00  0.00    +0.015 A 
ATOM     11  C   UNL     1      -3.473   1.714  -5.545  0.00  0.00    +0.001 A 
ATOM     12  C   UNL     1      -3.882   2.036  -4.258  0.00  0.00    +0.002 A 
ATOM     13  C   UNL     1      -3.134   1.662  -3.165  0.00  0.00    +0.028 A 
ATOM     14  C   UNL     1      -1.948   0.949  -3.350  0.00  0.00    +0.078 A 
ATOM     15  N   UNL     1      -1.183   0.555  -2.301  0.00  0.00    -0.234 NA
ENDBRANCH   3   4
ENDBRANCH   2   3
BRANCH   2  16
ATOM     16  C   UNL     1       0.742  -0.511   1.242  0.00  0.00    +0.099 C 
BRANCH  16  17
ATOM     17  C   UNL     1      -0.030  -0.130   2.478  0.00  0.00    +0.214 C 
ATOM     18  O   UNL     1      -1.069   0.487   2.378  0.00  0.00    -0.276 OA
ATOM     19  N   UNL     1       0.435  -0.473   3.696  0.00  0.00    -0.310 N 
ATOM     20  H   UNL     1       1.267  -0.967   3.776  0.00  0.00    +0.149 HD
BRANCH  19  21
ATOM     21  C   UNL     1      -0.315  -0.103   4.898  0.00  0.00    +0.035 C 
ATOM     22  C   UNL     1      -0.445   1.420   4.969  0.00  0.00    +0.029 C 
ATOM     23  C   UNL     1      -1.229   1.808   6.224  0.00  0.00    -0.008 C 
ATOM     24  C   UNL     1      -0.489   1.301   7.464  0.00  0.00    +0.007 C 
ATOM     25  C   UNL     1      -0.359  -0.222   7.393  0.00  0.00    -0.008 C 
ATOM     26  C   UNL     1       0.425  -0.610   6.138  0.00  0.00    +0.029 C 
ATOM     27  C   UNL     1      -1.753  -0.851   7.339  0.00  0.00    +0.007 C 
ATOM     28  C   UNL     1      -2.493  -0.344   6.099  0.00  0.00    -0.008 C 
ATOM     29  C   UNL     1      -2.623   1.179   6.170  0.00  0.00    +0.007 C 
ATOM     30  C   UNL     1      -1.709  -0.731   4.844  0.00  0.00    +0.029 C 
ENDBRANCH  19  21
ENDBRANCH  16  17
ENDBRANCH   2  16
TORSDOF 5
