REMARK  Name = ZINC59404475
REMARK  8 active torsions:
REMARK  status: ('A' for Active; 'I' for Inactive)
REMARK    1  A    between atoms: C_1  and  C_2
REMARK    2  A    between atoms: C_7  and  N_8
REMARK    3  A    between atoms: C_9  and  C_11
REMARK    4  A    between atoms: C_11  and  C_13
REMARK    5  A    between atoms: C_11  and  N_14
REMARK    6  A    between atoms: C_17  and  C_20
REMARK    7  A    between atoms: N_22  and  C_23
REMARK    8  A    between atoms: C_28  and  O_29
REMARK                            x       y       z     vdW  Elec       q    Type
REMARK                         _______ _______ _______ _____ _____    ______ ____
ROOT
ATOM      1  N   UNL     1      -0.248  -0.502   6.315  0.00  0.00    +0.387 N 
ATOM      2  C   UNL     1      -0.516   0.180   7.587  0.00  0.00    -0.077 C 
ATOM      3  C   UNL     1      -0.366  -0.811   8.743  0.00  0.00    -0.006 C 
ATOM      4  C   UNL     1      -1.362  -1.959   8.557  0.00  0.00    +0.072 C 
ATOM      5  C   UNL     1      -1.122  -2.616   7.195  0.00  0.00    -0.006 C 
ATOM      6  C   UNL     1      -1.244  -1.558   6.096  0.00  0.00    -0.077 C 
ATOM      7  H   UNL     1       0.673  -0.912   6.343  0.00  0.00    -0.081 HD
ENDROOT
BRANCH   4   8
ATOM      8  C   UNL     1      -1.166  -2.978   9.650  0.00  0.00    +0.220 C 
ATOM      9  O   UNL     1      -0.313  -2.805  10.495  0.00  0.00    -0.275 OA
ATOM     10  N   UNL     1      -1.938  -4.082   9.688  0.00  0.00    -0.282 N 
ATOM     11  H   UNL     1      -2.561  -4.264   8.967  0.00  0.00    +0.155 HD
BRANCH  10  12
ATOM     12  C   UNL     1      -1.842  -4.967  10.770  0.00  0.00    +0.077 A 
ATOM     13  C   UNL     1      -1.335  -4.529  11.985  0.00  0.00    +0.047 A 
ATOM     14  C   UNL     1      -1.242  -5.404  13.051  0.00  0.00    +0.043 A 
ATOM     15  C   UNL     1      -1.653  -6.718  12.910  0.00  0.00    +0.023 A 
ATOM     16  C   UNL     1      -2.159  -7.161  11.702  0.00  0.00    +0.049 A 
ATOM     17  C   UNL     1      -2.261  -6.288  10.631  0.00  0.00    +0.138 A 
ATOM     18 CL   UNL     1      -0.607  -4.854  14.570  0.00  0.00    -0.083 Cl
BRANCH  17  19
ATOM     19  O   UNL     1      -2.764  -6.722   9.444  0.00  0.00    -0.505 OA
ATOM     20  H   UNL     1      -2.098  -7.078   8.841  0.00  0.00    +0.292 HD
ENDBRANCH  17  19
ENDBRANCH  10  12
ENDBRANCH   4   8
BRANCH   1  21
ATOM     21  C   UNL     1      -0.318   0.470   5.216  0.00  0.00    +0.016 C 
ATOM     22  C   UNL     1       0.667   1.610   5.481  0.00  0.00    -0.004 C 
BRANCH  21  24
ATOM     23  N   UNL     1      -0.438   0.267   2.753  0.00  0.00    -0.287 N 
ATOM     24  C   UNL     1       0.039  -0.211   3.920  0.00  0.00    +0.203 C 
ATOM     25  O   UNL     1       0.756  -1.190   3.926  0.00  0.00    -0.277 OA
ATOM     26  H   UNL     1      -0.957   1.086   2.741  0.00  0.00    +0.155 HD
BRANCH  23  33
ATOM     27  C   UNL     1      -2.366   0.440   0.669  0.00  0.00    +0.045 C 
ATOM     28  C   UNL     1      -1.099  -0.361   0.517  0.00  0.00    -0.029 A 
ATOM     29  C   UNL     1      -0.844  -1.034  -0.662  0.00  0.00    +0.008 A 
ATOM     30  C   UNL     1       0.317  -1.770  -0.804  0.00  0.00    +0.039 A 
ATOM     31  C   UNL     1       1.230  -1.834   0.237  0.00  0.00    +0.125 A 
ATOM     32  C   UNL     1       0.980  -1.163   1.419  0.00  0.00    +0.062 A 
ATOM     33  C   UNL     1      -0.184  -0.419   1.560  0.00  0.00    +0.039 A 
ATOM     34  F   UNL     1       2.365  -2.554   0.096  0.00  0.00    -0.205 F 
ENDBRANCH  23  33
ENDBRANCH  21  24
ENDBRANCH   1  21
TORSDOF 6
