REMARK  Name = ZINC06811978
REMARK  9 active torsions:
REMARK  status: ('A' for Active; 'I' for Inactive)
REMARK    1  A    between atoms: C_1  and  C_2
REMARK    2  A    between atoms: C_2  and  C_3
REMARK    3  A    between atoms: C_6  and  C_9
REMARK    4  A    between atoms: C_11  and  C_22
REMARK    5  A    between atoms: C_17  and  C_20
REMARK    6  A    between atoms: C_20  and  C_21
REMARK    7  A    between atoms: N_24  and  C_25
REMARK    8  A    between atoms: C_30  and  C_31
REMARK    9  A    between atoms: C_31  and  C_32
REMARK                            x       y       z     vdW  Elec       q    Type
REMARK                         _______ _______ _______ _____ _____    ______ ____
ROOT
ATOM      1  C   UNL     1       2.475   1.058  -0.018  0.00  0.00    +0.140 C 
ATOM      2  C   UNL     1       3.055   1.015   1.401  0.00  0.00    +0.166 C 
ATOM      3  S   UNL     1       4.427  -0.180   1.405  0.00  0.00    -0.069 S 
ATOM      4  C   UNL     1       5.200   0.337  -0.096  0.00  0.00    +0.209 A 
ATOM      5  N   UNL     1       6.380   0.015  -0.547  0.00  0.00    -0.121 NA
ATOM      6  N   UNL     1       6.574   0.585  -1.687  0.00  0.00    -0.132 NA
ATOM      7  C   UNL     1       5.532   1.298  -2.016  0.00  0.00    +0.151 A 
ATOM      8  N   UNL     1       4.618   1.171  -1.008  0.00  0.00    -0.225 N 
ATOM      9  N   UNL     1       3.394   1.753  -0.921  0.00  0.00    -0.272 N 
ATOM     10  H   UNL     1       3.474   2.728  -0.676  0.00  0.00    +0.167 HD
ENDROOT
BRANCH   1  14
ATOM     11  C   UNL     1      -1.266   3.119   0.048  0.00  0.00    -0.048 A 
ATOM     12  C   UNL     1      -1.238   1.737   0.032  0.00  0.00    +0.004 A 
ATOM     13  C   UNL     1      -0.028   1.070   0.016  0.00  0.00    +0.006 A 
ATOM     14  C   UNL     1       1.155   1.786   0.005  0.00  0.00    -0.024 A 
ATOM     15  C   UNL     1       1.128   3.167   0.015  0.00  0.00    +0.006 A 
ATOM     16  C   UNL     1      -0.083   3.834   0.036  0.00  0.00    +0.004 A 
BRANCH  11  18
ATOM     17  C   UNL     1      -3.053   4.103  -1.363  0.00  0.00    +0.009 C 
ATOM     18  C   UNL     1      -2.586   3.846   0.072  0.00  0.00    +0.032 C 
ENDBRANCH  11  18
ENDBRANCH   1  14
BRANCH   2  19
ATOM     19  C   UNL     1       1.993   0.570   2.373  0.00  0.00    +0.233 C 
ATOM     20  O   UNL     1       1.164  -0.248   2.033  0.00  0.00    -0.274 OA
ATOM     21  N   UNL     1       1.964   1.081   3.620  0.00  0.00    -0.284 N 
ATOM     22  H   UNL     1       2.672   1.674   3.918  0.00  0.00    +0.155 HD
BRANCH  21  23
ATOM     23  C   UNL     1       0.912   0.758   4.484  0.00  0.00    +0.037 A 
ATOM     24  C   UNL     1      -0.318   0.371   3.969  0.00  0.00    +0.023 A 
ATOM     25  C   UNL     1      -1.354   0.052   4.824  0.00  0.00    +0.002 A 
ATOM     26  C   UNL     1      -1.168   0.118   6.193  0.00  0.00    +0.000 A 
ATOM     27  C   UNL     1       0.056   0.503   6.709  0.00  0.00    +0.005 A 
ATOM     28  C   UNL     1       1.098   0.818   5.859  0.00  0.00    -0.026 A 
BRANCH  28  29
ATOM     29  C   UNL     1       2.433   1.231   6.422  0.00  0.00    +0.033 C 
ATOM     30  C   UNL     1       2.505   2.758   6.494  0.00  0.00    +0.009 C 
ENDBRANCH  28  29
ENDBRANCH  21  23
ENDBRANCH   2  19
BRANCH   7  31
ATOM     31  C   UNL     1       5.366   2.111  -3.274  0.00  0.00    +0.074 C 
ATOM     32  C   UNL     1       5.884   3.530  -3.036  0.00  0.00    +0.012 C 
ENDBRANCH   7  31
TORSDOF 6
