REMARK  Name = ZINC39660557
REMARK  3 active torsions:
REMARK  status: ('A' for Active; 'I' for Inactive)
REMARK    1  A    between atoms: C_12  and  C_13
REMARK    2  A    between atoms: C_17  and  C_26
REMARK    3  A    between atoms: N_28  and  C_29
REMARK                            x       y       z     vdW  Elec       q    Type
REMARK                         _______ _______ _______ _____ _____    ______ ____
ROOT
ATOM      1  C   UNL     1      -0.713  -3.146   0.005  0.00  0.00    +0.247 C 
ATOM      2  O   UNL     1      -1.213  -2.042   0.098  0.00  0.00    -0.270 OA
ATOM      3  N   UNL     1      -1.499  -4.235  -0.103  0.00  0.00    -0.296 N 
ATOM      4  C   UNL     1      -1.083  -5.657  -0.115  0.00  0.00    +0.121 C 
ATOM      5  C   UNL     1      -2.164  -6.386   0.715  0.00  0.00    +0.100 C 
ATOM      6  C   UNL     1      -3.403  -5.479   0.630  0.00  0.00    -0.004 C 
ATOM      7  C   UNL     1      -2.975  -4.281  -0.230  0.00  0.00    +0.115 C 
ATOM      8  C   UNL     1      -4.557  -6.223  -0.035  0.00  0.00    -0.010 C 
ATOM      9  C   UNL     1      -5.795  -5.321  -0.056  0.00  0.00    -0.082 C 
ATOM     10  N   UNL     1      -6.153  -4.947   1.317  0.00  0.00    +0.379 N 
ATOM     11  C   UNL     1      -5.075  -4.152   1.918  0.00  0.00    -0.082 C 
ATOM     12  C   UNL     1      -3.807  -5.005   2.022  0.00  0.00    -0.010 C 
ATOM     13  H   UNL     1      -7.003  -4.403   1.305  0.00  0.00    -0.086 HD
ATOM     14  H   UNL     1      -6.299  -5.782   1.865  0.00  0.00    -0.086 HD
ENDROOT
BRANCH   1  26
ATOM     15  C   UNL     1      -0.160  -0.544   3.726  0.00  0.00    +0.001 A 
ATOM     16  C   UNL     1       0.989  -0.181   4.402  0.00  0.00    +0.001 A 
ATOM     17  C   UNL     1       2.227  -0.623   3.962  0.00  0.00    +0.012 A 
ATOM     18  C   UNL     1       2.313  -1.434   2.838  0.00  0.00    +0.030 A 
ATOM     19  C   UNL     1       1.145  -1.805   2.150  0.00  0.00    -0.006 A 
ATOM     20  C   UNL     1      -0.088  -1.353   2.603  0.00  0.00    +0.009 A 
ATOM     21  C   UNL     1       1.523  -2.665   1.001  0.00  0.00    +0.006 A 
ATOM     22  C   UNL     1       2.919  -2.816   0.992  0.00  0.00    +0.031 A 
ATOM     23  C   UNL     1       3.528  -3.584   0.006  0.00  0.00    +0.012 A 
ATOM     24  C   UNL     1       2.761  -4.202  -0.970  0.00  0.00    +0.001 A 
ATOM     25  C   UNL     1       1.390  -4.062  -0.973  0.00  0.00    +0.014 A 
ATOM     26  C   UNL     1       0.757  -3.293   0.011  0.00  0.00    +0.045 A 
ATOM     27  C   UNL     1       3.465  -2.053   2.139  0.00  0.00    +0.194 C 
ATOM     28  O   UNL     1       4.635  -1.952   2.448  0.00  0.00    -0.287 OA
ENDBRANCH   1  26
BRANCH   5  29
ATOM     29  C   UNL     1      -2.459  -7.739   0.120  0.00  0.00    +0.219 C 
ATOM     30  O   UNL     1      -2.270  -7.936  -1.062  0.00  0.00    -0.275 OA
ATOM     31  N   UNL     1      -2.932  -8.730   0.900  0.00  0.00    -0.302 N 
ATOM     32  H   UNL     1      -3.083  -8.573   1.846  0.00  0.00    +0.150 HD
BRANCH  31  33
ATOM     33  C   UNL     1      -3.219 -10.045   0.322  0.00  0.00    +0.185 C 
ATOM     34  C   UNL     1      -3.185 -11.141   1.417  0.00  0.00    +0.075 C 
ATOM     35  C   UNL     1      -4.701 -11.307   1.708  0.00  0.00    +0.234 C 
ATOM     36  O   UNL     1      -5.297 -11.102   0.409  0.00  0.00    -0.463 OA
ATOM     37  C   UNL     1      -4.640 -10.096  -0.206  0.00  0.00    +0.328 C 
ATOM     38  O   UNL     1      -5.107  -9.355  -1.039  0.00  0.00    -0.249 OA
ENDBRANCH  31  33
ENDBRANCH   5  29
TORSDOF 3
