REMARK  Name = ZINC64626303
REMARK  10 active torsions:
REMARK  status: ('A' for Active; 'I' for Inactive)
REMARK    1  A    between atoms: C_1  and  C_2
REMARK    2  A    between atoms: C_4  and  C_21
REMARK    3  A    between atoms: C_7  and  C_10
REMARK    4  A    between atoms: C_15  and  N_16
REMARK    5  A    between atoms: N_16  and  S_17
REMARK    6  A    between atoms: S_17  and  C_20
REMARK    7  A    between atoms: C_21  and  N_22
REMARK    8  A    between atoms: N_22  and  C_23
REMARK    9  A    between atoms: N_22  and  C_24
REMARK   10  A    between atoms: C_24  and  C_25
REMARK                            x       y       z     vdW  Elec       q    Type
REMARK                         _______ _______ _______ _____ _____    ______ ____
ROOT
ATOM      1  C   UNL     1      -0.422   1.334   0.171  0.00  0.00    +0.039 C 
ATOM      2  C   UNL     1      -0.321  -0.165  -0.122  0.00  0.00    +0.133 C 
ATOM      3  C   UNL     1       0.688  -0.436  -1.266  0.00  0.00    +0.068 C 
ATOM      4  N   UNL     1       1.994  -0.412  -0.562  0.00  0.00    -0.284 NA
ATOM      5  C   UNL     1       1.695  -0.669   0.860  0.00  0.00    +0.220 C 
ATOM      6  O   UNL     1       0.273  -0.867   0.995  0.00  0.00    -0.353 OA
ATOM      7  H   UNL     1       2.617  -1.114  -0.933  0.00  0.00    +0.125 HD
ENDROOT
BRANCH   5   8
ATOM      8  C   UNL     1       2.425  -1.905   1.319  0.00  0.00    +0.020 A 
ATOM      9  C   UNL     1       2.595  -2.968   0.455  0.00  0.00    +0.009 A 
ATOM     10  C   UNL     1       3.264  -4.103   0.875  0.00  0.00    +0.001 A 
ATOM     11  C   UNL     1       3.767  -4.176   2.162  0.00  0.00    +0.002 A 
ATOM     12  C   UNL     1       3.600  -3.116   3.031  0.00  0.00    +0.027 A 
ATOM     13  C   UNL     1       2.933  -1.973   2.610  0.00  0.00    +0.081 A 
BRANCH  13  14
ATOM     14  N   UNL     1       2.768  -0.897   3.485  0.00  0.00    -0.102 NA
BRANCH  14  15
ATOM     15  S   UNL     1       3.374  -0.980   5.024  0.00  0.00    +0.059 S 
ATOM     16  O   UNL     1       2.651  -2.036   5.642  0.00  0.00    -0.154 OA
ATOM     17  O   UNL     1       4.782  -1.069   4.854  0.00  0.00    -0.154 OA
ATOM     18  C   UNL     1       2.935   0.607   5.785  0.00  0.00    +0.220 C 
ENDBRANCH  14  15
ENDBRANCH  13  14
ENDBRANCH   5   8
BRANCH   3  19
ATOM     19  C   UNL     1       0.618   0.667  -2.324  0.00  0.00    -0.057 C 
BRANCH  19  20
ATOM     20  N   UNL     1       1.627   0.417  -3.361  0.00  0.00    +0.381 N 
ATOM     21  C   UNL     1       1.657   1.547  -4.298  0.00  0.00    -0.096 C 
ATOM     22  H   UNL     1       2.534   0.313  -2.930  0.00  0.00    -0.082 HD
BRANCH  20  23
ATOM     23  C   UNL     1       1.287  -0.814  -4.088  0.00  0.00    -0.045 C 
BRANCH  23  24
ATOM     24  C   UNL     1       2.389  -1.143  -5.062  0.00  0.00    -0.058 C 
ATOM     25  C   UNL     1       3.453  -1.948  -4.844  0.00  0.00    -0.003 A 
ATOM     26  C   UNL     1       3.888  -2.728  -3.679  0.00  0.00    +0.010 A 
ATOM     27  C   UNL     1       5.025  -3.455  -3.763  0.00  0.00    +0.001 A 
ATOM     28  C   UNL     1       5.798  -3.481  -4.932  0.00  0.00    +0.002 A 
ATOM     29  C   UNL     1       5.464  -2.791  -6.043  0.00  0.00    +0.026 A 
ATOM     30  C   UNL     1       4.287  -1.993  -6.067  0.00  0.00    +0.043 A 
ATOM     31  N   UNL     1       3.758  -1.244  -7.004  0.00  0.00    -0.380 N 
ATOM     32  C   UNL     1       2.525  -0.644  -6.483  0.00  0.00    +0.142 C 
ATOM     33  H   UNL     1       4.120  -1.112  -7.894  0.00  0.00    +0.160 HD
ENDBRANCH  23  24
ENDBRANCH  20  23
ENDBRANCH  19  20
ENDBRANCH   3  19
TORSDOF 7
