REMARK  Name = ZINC21126816
REMARK  7 active torsions:
REMARK  status: ('A' for Active; 'I' for Inactive)
REMARK    1  A    between atoms: C_10  and  C_12
REMARK    2  A    between atoms: C_15  and  N_18
REMARK    3  A    between atoms: C_19  and  C_21
REMARK    4  A    between atoms: C_21  and  S_22
REMARK    5  A    between atoms: S_22  and  C_23
REMARK    6  A    between atoms: C_23  and  C_24
REMARK    7  A    between atoms: C_27  and  N_30
REMARK                            x       y       z     vdW  Elec       q    Type
REMARK                         _______ _______ _______ _____ _____    ______ ____
ROOT
ATOM      1  C   UNL     1      -3.563   3.138   0.168  0.00  0.00    +0.037 A 
ATOM      2  C   UNL     1      -3.591   1.742   0.244  0.00  0.00    +0.015 A 
ATOM      3  C   UNL     1      -2.416   1.028   0.191  0.00  0.00    +0.024 A 
ATOM      4  C   UNL     1      -1.201   1.693   0.061  0.00  0.00    +0.033 A 
ATOM      5  C   UNL     1      -1.169   3.082  -0.009  0.00  0.00    +0.024 A 
ATOM      6  C   UNL     1      -2.341   3.803   0.038  0.00  0.00    +0.015 A 
ENDROOT
BRANCH   1  16
ATOM      7  C   UNL     1      -8.198   7.491   0.301  0.00  0.00    +0.001 A 
ATOM      8  C   UNL     1      -6.963   8.112   0.172  0.00  0.00    +0.002 A 
ATOM      9  C   UNL     1      -5.803   7.372   0.120  0.00  0.00    +0.029 A 
ATOM     10  C   UNL     1      -5.867   5.980   0.199  0.00  0.00    +0.082 A 
ATOM     11  C   UNL     1      -7.127   5.350   0.331  0.00  0.00    +0.085 A 
ATOM     12  C   UNL     1      -8.288   6.117   0.381  0.00  0.00    +0.017 A 
ATOM     13  C   UNL     1      -7.158   3.882   0.411  0.00  0.00    +0.348 A 
ATOM     14  O   UNL     1      -8.207   3.279   0.525  0.00  0.00    -0.244 OA
ATOM     15  O   UNL     1      -5.975   3.230   0.352  0.00  0.00    -0.403 OA
ATOM     16  C   UNL     1      -4.821   3.907   0.226  0.00  0.00    +0.232 A 
ATOM     17  N   UNL     1      -4.753   5.211   0.157  0.00  0.00    -0.212 NA
ENDBRANCH   1  16
BRANCH   4  18
ATOM     18  N   UNL     1      -0.011   0.966   0.007  0.00  0.00    -0.285 N 
ATOM     19  C   UNL     1       0.018  -0.234  -0.606  0.00  0.00    +0.227 C 
ATOM     20  O   UNL     1      -1.005  -0.717  -1.042  0.00  0.00    -0.275 OA
ATOM     21  H   UNL     1       0.903   1.372   0.466  0.00  0.00    +0.155 HD
BRANCH  19  22
ATOM     22  C   UNL     1       1.322  -0.975  -0.750  0.00  0.00    +0.165 C 
BRANCH  22  23
ATOM     23  S   UNL     1       1.034  -2.545  -1.612  0.00  0.00    -0.147 S 
BRANCH  23  24
ATOM     24  C   UNL     1       2.679  -3.305  -1.702  0.00  0.00    +0.104 C 
BRANCH  24  25
ATOM     25  C   UNL     1       2.580  -4.634  -2.406  0.00  0.00    -0.037 A 
ATOM     26  C   UNL     1       2.348  -5.786  -1.677  0.00  0.00    +0.006 A 
ATOM     27  C   UNL     1       2.253  -7.004  -2.323  0.00  0.00    +0.033 A 
ATOM     28  C   UNL     1       2.400  -7.072  -3.696  0.00  0.00    +0.126 A 
ATOM     29  C   UNL     1       2.636  -5.921  -4.424  0.00  0.00    +0.033 A 
ATOM     30  C   UNL     1       2.727  -4.702  -3.779  0.00  0.00    +0.006 A 
BRANCH  28  31
ATOM     31  N   UNL     1       2.303  -8.378  -4.387  0.00  0.00    +0.056 N 
ATOM     32  O   UNL     1       2.432  -8.438  -5.596  0.00  0.00    -0.126 OA
ATOM     33  O   UNL     1       2.095  -9.392  -3.745  0.00  0.00    -0.126 OA
ENDBRANCH  28  31
ENDBRANCH  24  25
ENDBRANCH  23  24
ENDBRANCH  22  23
ENDBRANCH  19  22
ENDBRANCH   4  18
TORSDOF 7
