REMARK  Name = ZINC38994939
REMARK  7 active torsions:
REMARK  status: ('A' for Active; 'I' for Inactive)
REMARK    1  A    between atoms: C_1  and  C_2
REMARK    2  A    between atoms: C_4  and  N_17
REMARK    3  A    between atoms: N_8  and  C_11
REMARK    4  A    between atoms: N_9  and  C_10
REMARK    5  A    between atoms: N_17  and  C_18
REMARK    6  A    between atoms: N_21  and  S_22
REMARK    7  A    between atoms: S_22  and  C_25
REMARK                            x       y       z     vdW  Elec       q    Type
REMARK                         _______ _______ _______ _____ _____    ______ ____
ROOT
ATOM      1  C   UNL     1      -3.367   0.737  -0.831  0.00  0.00    +0.220 C 
ATOM      2  C   UNL     1      -3.530   1.295  -2.227  0.00  0.00    +0.188 C 
ATOM      3  N   UNL     1      -2.801   0.846  -3.206  0.00  0.00    -0.110 NA
ATOM      4  N   UNL     1      -4.438   2.260  -2.441  0.00  0.00    -0.226 NA
ATOM      5  C   UNL     1      -5.188   2.731  -1.466  0.00  0.00    +0.089 A 
ATOM      6  C   UNL     1      -6.137   3.751  -1.728  0.00  0.00    +0.030 A 
ATOM      7  C   UNL     1      -6.909   4.238  -0.732  0.00  0.00    +0.002 A 
ATOM      8  C   UNL     1      -6.822   3.776   0.592  0.00  0.00    +0.002 A 
ATOM      9  C   UNL     1      -5.951   2.807   0.950  0.00  0.00    +0.027 A 
ATOM     10  C   UNL     1      -5.074   2.224  -0.076  0.00  0.00    +0.063 A 
ATOM     11  N   UNL     1      -4.222   1.288   0.232  0.00  0.00    -0.362 N 
ATOM     12  H   UNL     1      -4.153   0.961   1.143  0.00  0.00    +0.162 HD
ENDROOT
BRANCH   3  13
ATOM     13  S   UNL     1      -2.990   1.466  -4.730  0.00  0.00    +0.100 S 
ATOM     14  O   UNL     1      -4.290   1.091  -5.163  0.00  0.00    -0.146 OA
ATOM     15  O   UNL     1      -2.567   2.821  -4.673  0.00  0.00    -0.146 OA
BRANCH  13  16
ATOM     16  C   UNL     1      -1.849   0.626  -5.779  0.00  0.00    +0.114 A 
ATOM     17  C   UNL     1      -0.571   1.125  -5.950  0.00  0.00    +0.029 A 
ATOM     18  C   UNL     1       0.324   0.467  -6.772  0.00  0.00    +0.003 A 
ATOM     19  C   UNL     1      -0.059  -0.691  -7.424  0.00  0.00    +0.020 A 
ATOM     20  C   UNL     1      -1.337  -1.190  -7.253  0.00  0.00    +0.043 A 
ATOM     21  C   UNL     1      -2.231  -0.534  -6.425  0.00  0.00    +0.049 A 
ATOM     22 CL   UNL     1      -1.818  -2.644  -8.072  0.00  0.00    -0.083 Cl
ENDBRANCH  13  16
ENDBRANCH   3  13
BRANCH   1  23
ATOM     23  N   UNL     1      -1.968   0.935  -0.430  0.00  0.00    -0.278 NA
ATOM     24  H   UNL     1      -1.886   1.690   0.235  0.00  0.00    +0.125 HD
BRANCH  23  27
ATOM     25  C   UNL     1       0.695   1.111  -0.144  0.00  0.00    +0.028 C 
ATOM     26  C   UNL     1       0.146  -0.314  -0.051  0.00  0.00    +0.099 C 
ATOM     27  C   UNL     1      -1.394  -0.305   0.109  0.00  0.00    +0.163 C 
ATOM     28  C   UNL     1      -1.561  -0.373   1.616  0.00  0.00    +0.252 C 
ATOM     29  O   UNL     1      -2.580  -0.140   2.232  0.00  0.00    -0.272 OA
ATOM     30  N   UNL     1      -0.380  -0.739   2.148  0.00  0.00    -0.201 N 
ATOM     31  N   UNL     1       0.580  -0.968   1.206  0.00  0.00    -0.218 NA
ATOM     32  C   UNL     1       0.787  -2.408   1.005  0.00  0.00    +0.128 C 
BRANCH  30  33
ATOM     33  C   UNL     1      -0.160  -0.870   3.523  0.00  0.00    +0.053 A 
ATOM     34  C   UNL     1       0.964  -0.299   4.106  0.00  0.00    +0.025 A 
ATOM     35  C   UNL     1       1.179  -0.430   5.464  0.00  0.00    +0.002 A 
ATOM     36  C   UNL     1       0.277  -1.131   6.243  0.00  0.00    +0.000 A 
ATOM     37  C   UNL     1      -0.843  -1.702   5.667  0.00  0.00    +0.002 A 
ATOM     38  C   UNL     1      -1.067  -1.568   4.310  0.00  0.00    +0.025 A 
ENDBRANCH  30  33
ENDBRANCH  23  27
ENDBRANCH   1  23
TORSDOF 5
