REMARK  Name = ZINC15546094
REMARK  7 active torsions:
REMARK  status: ('A' for Active; 'I' for Inactive)
REMARK    1  A    between atoms: N_7  and  C_20
REMARK    2  A    between atoms: C_9  and  C_12
REMARK    3  A    between atoms: C_20  and  C_21
REMARK    4  A    between atoms: N_23  and  C_24
REMARK    5  A    between atoms: C_24  and  C_25
REMARK    6  A    between atoms: C_28  and  S_31
REMARK    7  A    between atoms: S_31  and  N_34
REMARK                            x       y       z     vdW  Elec       q    Type
REMARK                         _______ _______ _______ _____ _____    ______ ____
ROOT
ATOM      1  C   UNL     1      -3.871   1.719  -2.726  0.00  0.00    +0.002 A 
ATOM      2  C   UNL     1      -4.981   2.398  -3.193  0.00  0.00    +0.004 A 
ATOM      3  C   UNL     1      -5.327   3.619  -2.644  0.00  0.00    +0.047 A 
ATOM      4  C   UNL     1      -4.562   4.168  -1.625  0.00  0.00    +0.143 A 
ATOM      5  C   UNL     1      -3.448   3.486  -1.151  0.00  0.00    +0.073 A 
ATOM      6  C   UNL     1      -3.107   2.258  -1.710  0.00  0.00    +0.027 A 
ATOM      7  N   UNL     1      -2.651   3.997  -0.122  0.00  0.00    -0.314 N 
ATOM      8  C   UNL     1      -2.825   5.445   0.043  0.00  0.00    +0.160 C 
ATOM      9  C   UNL     1      -4.326   5.750   0.134  0.00  0.00    +0.276 C 
ATOM     10  O   UNL     1      -4.927   5.374  -1.110  0.00  0.00    -0.476 OA
ENDROOT
BRANCH   9  11
ATOM     11  C   UNL     1      -4.533   7.223   0.376  0.00  0.00    +0.258 C 
ATOM     12  O   UNL     1      -5.031   7.916  -0.486  0.00  0.00    -0.271 OA
ATOM     13  N   UNL     1      -4.165   7.771   1.552  0.00  0.00    -0.298 N 
ATOM     14  C   UNL     1      -3.655   6.929   2.643  0.00  0.00    +0.108 C 
ATOM     15  C   UNL     1      -2.297   7.487   3.095  0.00  0.00    +0.019 C 
ATOM     16  C   UNL     1      -2.455   8.964   3.463  0.00  0.00    +0.003 C 
ATOM     17  C   UNL     1      -2.913   9.751   2.233  0.00  0.00    +0.019 C 
ATOM     18  C   UNL     1      -4.272   9.220   1.768  0.00  0.00    +0.108 C 
ENDBRANCH   9  11
BRANCH   7  19
ATOM     19  C   UNL     1      -1.238   3.657  -0.332  0.00  0.00    +0.201 C 
BRANCH  19  20
ATOM     20  C   UNL     1      -0.476   3.863   0.952  0.00  0.00    +0.231 C 
ATOM     21  O   UNL     1      -1.070   4.145   1.971  0.00  0.00    -0.274 OA
ATOM     22  N   UNL     1       0.866   3.734   0.968  0.00  0.00    -0.310 N 
ATOM     23  H   UNL     1       1.340   3.505   0.153  0.00  0.00    +0.149 HD
BRANCH  22  24
ATOM     24  C   UNL     1       1.606   3.935   2.216  0.00  0.00    +0.139 C 
BRANCH  24  25
ATOM     25  C   UNL     1       3.078   3.728   1.965  0.00  0.00    -0.030 A 
ATOM     26  C   UNL     1       3.634   2.471   2.114  0.00  0.00    +0.007 A 
ATOM     27  C   UNL     1       4.983   2.280   1.879  0.00  0.00    +0.029 A 
ATOM     28  C   UNL     1       5.778   3.348   1.506  0.00  0.00    +0.105 A 
ATOM     29  C   UNL     1       5.222   4.606   1.363  0.00  0.00    +0.029 A 
ATOM     30  C   UNL     1       3.873   4.796   1.592  0.00  0.00    +0.007 A 
BRANCH  28  31
ATOM     31  S   UNL     1       7.498   3.106   1.212  0.00  0.00    +0.056 S 
ATOM     32  O   UNL     1       7.665   1.734   0.883  0.00  0.00    -0.153 OA
ATOM     33  O   UNL     1       7.913   4.153   0.345  0.00  0.00    -0.153 OA
BRANCH  31  34
ATOM     34  N   UNL     1       8.280   3.346   2.652  0.00  0.00    -0.204 NA
ATOM     35  H   UNL     1       7.772   3.575   3.447  0.00  0.00    +0.144 HD
ATOM     36  H   UNL     1       9.244   3.258   2.701  0.00  0.00    +0.144 HD
ENDBRANCH  31  34
ENDBRANCH  28  31
ENDBRANCH  24  25
ENDBRANCH  22  24
ENDBRANCH  19  20
ENDBRANCH   7  19
TORSDOF 7
