REMARK  Name = ZINC12655753
REMARK  5 active torsions:
REMARK  status: ('A' for Active; 'I' for Inactive)
REMARK    1  A    between atoms: C_6  and  N_11
REMARK    2  A    between atoms: C_12  and  C_14
REMARK    3  A    between atoms: C_14  and  N_23
REMARK    4  A    between atoms: C_15  and  C_16
REMARK    5  A    between atoms: C_24  and  C_26
REMARK                            x       y       z     vdW  Elec       q    Type
REMARK                         _______ _______ _______ _____ _____    ______ ____
ROOT
ATOM      1  C   UNL     1      -1.170   2.238   0.119  0.00  0.00    +0.097 C 
ATOM      2  C   UNL     1      -0.066   1.463   0.237  0.00  0.00    +0.036 C 
ENDROOT
BRANCH   2   3
ATOM      3  C   UNL     1      -0.186   0.082   0.726  0.00  0.00    -0.023 A 
ATOM      4  C   UNL     1      -1.204  -0.260   1.623  0.00  0.00    +0.009 A 
ATOM      5  C   UNL     1      -1.314  -1.558   2.074  0.00  0.00    +0.020 A 
ATOM      6  C   UNL     1      -0.413  -2.521   1.649  0.00  0.00    +0.041 A 
ATOM      7  C   UNL     1       0.602  -2.188   0.766  0.00  0.00    +0.020 A 
ATOM      8  C   UNL     1       0.720  -0.896   0.302  0.00  0.00    +0.009 A 
ATOM      9 CL   UNL     1      -0.554  -4.151   2.227  0.00  0.00    -0.084 Cl
ENDBRANCH   2   3
BRANCH   1  11
ATOM     10  N   UNL     1       0.149   4.088  -0.772  0.00  0.00    -0.280 N 
ATOM     11  C   UNL     1      -1.055   3.606  -0.407  0.00  0.00    +0.262 C 
ATOM     12  O   UNL     1      -2.047   4.302  -0.512  0.00  0.00    -0.268 OA
ATOM     13  H   UNL     1       0.949   3.560  -0.623  0.00  0.00    +0.155 HD
BRANCH  10  19
ATOM     14  C   UNL     1       1.609   9.879  -2.958  0.00  0.00    +0.001 A 
ATOM     15  C   UNL     1       2.659   9.415  -2.167  0.00  0.00    +0.001 A 
ATOM     16  C   UNL     1       2.601   8.192  -1.573  0.00  0.00    +0.008 A 
ATOM     17  C   UNL     1       1.467   7.382  -1.758  0.00  0.00    -0.016 A 
ATOM     18  C   UNL     1       1.373   6.115  -1.160  0.00  0.00    +0.031 A 
ATOM     19  C   UNL     1       0.246   5.350  -1.365  0.00  0.00    +0.034 A 
ATOM     20  C   UNL     1      -0.802   5.822  -2.165  0.00  0.00    +0.024 A 
ATOM     21  C   UNL     1      -0.737   7.047  -2.749  0.00  0.00    +0.010 A 
ATOM     22  C   UNL     1       0.399   7.854  -2.561  0.00  0.00    -0.018 A 
ATOM     23  C   UNL     1       0.496   9.123  -3.159  0.00  0.00    +0.008 A 
ENDBRANCH  10  19
ENDBRANCH   1  11
BRANCH   1  24
ATOM     24  N   UNL     1      -2.419   1.738   0.498  0.00  0.00    -0.277 N 
ATOM     25  C   UNL     1      -3.129   2.357   1.461  0.00  0.00    +0.248 C 
ATOM     26  O   UNL     1      -2.730   3.404   1.932  0.00  0.00    -0.270 OA
ATOM     27  H   UNL     1      -2.774   0.944   0.068  0.00  0.00    +0.155 HD
BRANCH  25  28
ATOM     28  C   UNL     1      -4.393   1.764   1.944  0.00  0.00    +0.037 A 
ATOM     29  C   UNL     1      -4.802   0.512   1.481  0.00  0.00    +0.014 A 
ATOM     30  C   UNL     1      -5.980  -0.040   1.940  0.00  0.00    +0.016 A 
ATOM     31  C   UNL     1      -6.762   0.651   2.850  0.00  0.00    +0.018 A 
ATOM     32  C   UNL     1      -6.365   1.896   3.309  0.00  0.00    +0.016 A 
ATOM     33  C   UNL     1      -5.186   2.455   2.862  0.00  0.00    +0.014 A 
ATOM     34 BR   UNL     1      -8.380  -0.108   3.469  0.00  0.00    -0.050 Br
ENDBRANCH  25  28
ENDBRANCH   1  24
TORSDOF 5
