REMARK  Name = ZINC04989152
REMARK  7 active torsions:
REMARK  status: ('A' for Active; 'I' for Inactive)
REMARK    1  A    between atoms: C_1  and  C_2
REMARK    2  A    between atoms: C_14  and  C_15
REMARK    3  A    between atoms: C_15  and  O_17
REMARK    4  A    between atoms: O_17  and  C_18
REMARK    5  A    between atoms: C_18  and  C_20
REMARK    6  A    between atoms: C_18  and  C_21
REMARK    7  A    between atoms: N_26  and  C_27
REMARK                            x       y       z     vdW  Elec       q    Type
REMARK                         _______ _______ _______ _____ _____    ______ ____
ROOT
ATOM      1  C   UNL     1      -3.049   5.361   0.063  0.00  0.00    +0.048 C 
ATOM      2  C   UNL     1      -2.558   3.937   0.050  0.00  0.00    +0.010 A 
ATOM      3  C   UNL     1      -1.206   3.510   0.034  0.00  0.00    +0.025 A 
ATOM      4  C   UNL     1       0.024   4.199   0.026  0.00  0.00    +0.012 A 
ATOM      5  C   UNL     1       1.196   3.523   0.011  0.00  0.00    +0.009 A 
ATOM      6  C   UNL     1       1.206   2.112   0.002  0.00  0.00    -0.014 A 
ATOM      7  C   UNL     1       2.415   1.400  -0.014  0.00  0.00    +0.008 A 
ATOM      8  C   UNL     1       2.397   0.037  -0.021  0.00  0.00    +0.001 A 
ATOM      9  C   UNL     1       1.195  -0.663  -0.013  0.00  0.00    +0.001 A 
ATOM     10  C   UNL     1       0.002  -0.004   0.002  0.00  0.00    +0.012 A 
ATOM     11  C   UNL     1      -0.017   1.399   0.010  0.00  0.00    +0.025 A 
ATOM     12  C   UNL     1      -1.236   2.111   0.031  0.00  0.00    +0.144 A 
ATOM     13  O   UNL     1      -2.525   1.728   0.036  0.00  0.00    -0.447 OA
ATOM     14  C   UNL     1      -3.326   2.815   0.050  0.00  0.00    +0.216 A 
ENDROOT
BRANCH  14  15
ATOM     15  C   UNL     1      -4.793   2.789   0.064  0.00  0.00    +0.376 C 
ATOM     16  O   UNL     1      -5.419   3.832   0.076  0.00  0.00    -0.241 OA
BRANCH  15  17
ATOM     17  O   UNL     1      -5.447   1.610   0.063  0.00  0.00    -0.447 OA
BRANCH  17  18
ATOM     18  C   UNL     1      -6.898   1.661   0.077  0.00  0.00    +0.259 C 
ATOM     19  C   UNL     1      -7.421   1.688  -1.360  0.00  0.00    +0.062 C 
BRANCH  18  20
ATOM     20  C   UNL     1      -7.436   0.444   0.786  0.00  0.00    +0.261 C 
ATOM     21  O   UNL     1      -6.672  -0.384   1.234  0.00  0.00    -0.271 OA
ATOM     22  N   UNL     1      -8.767   0.277   0.920  0.00  0.00    -0.237 N 
ATOM     23  C   UNL     1      -9.248  -0.811   1.554  0.00  0.00    +0.306 C 
ATOM     24  O   UNL     1      -8.482  -1.641   2.003  0.00  0.00    -0.252 OA
ATOM     25  N   UNL     1     -10.579  -0.978   1.689  0.00  0.00    -0.302 N 
ATOM     26  C   UNL     1     -11.102  -2.161   2.377  0.00  0.00    +0.129 C 
ATOM     27  H   UNL     1      -9.378   0.939   0.562  0.00  0.00    +0.159 HD
ATOM     28  H   UNL     1     -11.190  -0.316   1.330  0.00  0.00    +0.150 HD
ENDBRANCH  18  20
ENDBRANCH  17  18
ENDBRANCH  15  17
ENDBRANCH  14  15
TORSDOF 4
