REMARK  Name = ZINC40690216
REMARK  6 active torsions:
REMARK  status: ('A' for Active; 'I' for Inactive)
REMARK    1  A    between atoms: C_2  and  N_22
REMARK    2  A    between atoms: N_8  and  C1*_11
REMARK    3  A    between atoms: C3*_14  and  O3*_21
REMARK    4  A    between atoms: C4*_16  and  C5*_19
REMARK    5  A    between atoms: C5*_19  and  O5*_20
REMARK    6  A    between atoms: N_22  and  C_23
REMARK                            x       y       z     vdW  Elec       q    Type
REMARK                         _______ _______ _______ _____ _____    ______ ____
ROOT
ATOM      1  C   UNL     1      -0.017   1.380   0.010  0.00  0.00    +0.065 A 
ATOM      2  C   UNL     1       1.185   2.080   0.002  0.00  0.00    +0.060 A 
ATOM      3  C   UNL     1       2.380   1.340  -0.013  0.00  0.00    +0.129 A 
ATOM      4  C   UNL     1       2.312  -0.061  -0.020  0.00  0.00    +0.166 A 
ATOM      5  N   UNL     1       1.137  -0.676  -0.012  0.00  0.00    -0.216 NA
ATOM      6  C   UNL     1       0.002  -0.004   0.002  0.00  0.00    +0.133 A 
ATOM      7 CL   UNL     1      -1.500  -0.874   0.012  0.00  0.00    -0.062 Cl
ATOM      8  N   UNL     1       3.617  -0.502  -0.036  0.00  0.00    -0.288 N 
ATOM      9  C   UNL     1       4.419   0.599  -0.038  0.00  0.00    +0.203 A 
ATOM     10  N   UNL     1       3.694   1.679  -0.025  0.00  0.00    -0.232 NA
ENDROOT
BRANCH   8  11
ATOM     11  C1* UNL     1       4.060  -1.898  -0.048  0.00  0.00    +0.225 C 
ATOM     12  C2* UNL     1       4.122  -2.430  -1.501  0.00  0.00    +0.088 C 
ATOM     13  C3* UNL     1       5.165  -3.571  -1.354  0.00  0.00    +0.150 C 
ATOM     14  C4* UNL     1       6.119  -3.006  -0.280  0.00  0.00    +0.175 C 
ATOM     15  O4* UNL     1       5.405  -1.998   0.448  0.00  0.00    -0.348 OA
BRANCH  13  16
ATOM     16  O3* UNL     1       5.853  -3.794  -2.586  0.00  0.00    -0.389 OA
ATOM     17  H3* UNL     1       5.279  -4.067  -3.314  0.00  0.00    +0.210 HD
ENDBRANCH  13  16
BRANCH  14  18
ATOM     18  C5* UNL     1       6.552  -4.124   0.670  0.00  0.00    +0.190 C 
BRANCH  18  19
ATOM     19  O5* UNL     1       7.524  -3.619   1.589  0.00  0.00    -0.392 OA
ATOM     20  H5* UNL     1       7.844  -4.275   2.223  0.00  0.00    +0.210 HD
ENDBRANCH  18  19
ENDBRANCH  14  18
ENDBRANCH   8  11
BRANCH   2  21
ATOM     21  N   UNL     1       1.203   3.470   0.009  0.00  0.00    -0.339 N 
ATOM     22  H   UNL     1       2.049   3.944   0.003  0.00  0.00    +0.146 HD
BRANCH  21  23
ATOM     23  C   UNL     1      -0.056   4.220   0.024  0.00  0.00    +0.070 C 
ATOM     24  C   UNL     1      -0.601   4.310  -1.416  0.00  0.00    +0.022 C 
ATOM     25  C   UNL     1      -2.076   4.602  -1.351  0.00  0.00    +0.002 C 
ATOM     26  C   UNL     1      -2.384   6.109  -1.445  0.00  0.00    +0.000 C 
ATOM     27  C   UNL     1      -1.411   6.970  -0.617  0.00  0.00    +0.000 C 
ATOM     28  C   UNL     1      -1.109   6.366   0.728  0.00  0.00    +0.002 C 
ATOM     29  C   UNL     1       0.183   5.530   0.611  0.00  0.00    +0.022 C 
ENDBRANCH  21  23
ENDBRANCH   2  21
TORSDOF 6
