REMARK  Name = ZINC11874226
REMARK  6 active torsions:
REMARK  status: ('A' for Active; 'I' for Inactive)
REMARK    1  A    between atoms: C_7  and  C_11
REMARK    2  A    between atoms: C_11  and  C_12
REMARK    3  A    between atoms: C_12  and  C_13
REMARK    4  A    between atoms: C_18  and  N_21
REMARK    5  A    between atoms: C_22  and  N_26
REMARK    6  A    between atoms: C_27  and  C_29
REMARK                            x       y       z     vdW  Elec       q    Type
REMARK                         _______ _______ _______ _____ _____    ______ ____
ROOT
ATOM      1  C   UNL     1      -2.945   3.408   1.472  0.00  0.00    +0.216 C 
ATOM      2  O   UNL     1      -3.389   3.842   0.430  0.00  0.00    -0.276 OA
ATOM      3  N   UNL     1      -3.546   3.713   2.640  0.00  0.00    -0.301 N 
ATOM      4  C   UNL     1      -3.023   3.190   3.909  0.00  0.00    +0.110 C 
ATOM      5  C   UNL     1      -4.151   2.482   4.658  0.00  0.00    +0.046 C 
ATOM      6  C   UNL     1      -5.336   3.438   4.812  0.00  0.00    +0.112 C 
ATOM      7  C   UNL     1      -5.851   3.842   3.428  0.00  0.00    +0.046 C 
ATOM      8  C   UNL     1      -4.739   4.569   2.666  0.00  0.00    +0.110 C 
ENDROOT
BRANCH   6   9
ATOM      9  N   UNL     1      -6.408   2.771   5.556  0.00  0.00    -0.247 N 
ATOM     10  C   UNL     1      -6.932   3.179   6.734  0.00  0.00    +0.123 A 
ATOM     11  C   UNL     1      -7.900   2.287   7.083  0.00  0.00    +0.065 A 
ATOM     12  C   UNL     1      -7.962   1.310   6.086  0.00  0.00    +0.136 A 
ATOM     13  N   UNL     1      -7.074   1.601   5.170  0.00  0.00    -0.178 NA
BRANCH  10  14
ATOM     14  N   UNL     1      -6.551   4.308   7.458  0.00  0.00    -0.270 N 
ATOM     15  C   UNL     1      -7.162   4.598   8.624  0.00  0.00    +0.221 C 
ATOM     16  O   UNL     1      -8.043   3.877   9.043  0.00  0.00    -0.275 OA
ATOM     17  H   UNL     1      -5.847   4.885   7.123  0.00  0.00    +0.156 HD
BRANCH  15  18
ATOM     18  C   UNL     1      -6.750   5.818   9.407  0.00  0.00    +0.075 C 
ATOM     19  C   UNL     1      -6.032   5.593  10.740  0.00  0.00    +0.013 C 
ATOM     20  C   UNL     1      -7.480   6.092  10.724  0.00  0.00    +0.013 C 
ENDBRANCH  15  18
ENDBRANCH  10  14
ENDBRANCH   6   9
BRANCH   1  21
ATOM     21  C   UNL     1      -1.722   2.528   1.461  0.00  0.00    +0.100 C 
BRANCH  21  22
ATOM     22  C   UNL     1      -1.241   2.341   0.021  0.00  0.00    +0.046 C 
BRANCH  22  29
ATOM     23  C   UNL     1      -0.634  -2.308  -0.004  0.00  0.00    +0.001 A 
ATOM     24  C   UNL     1       0.704  -2.678  -0.019  0.00  0.00    +0.002 A 
ATOM     25  C   UNL     1       1.697  -1.724  -0.023  0.00  0.00    +0.026 A 
ATOM     26  C   UNL     1       1.359  -0.374  -0.013  0.00  0.00    +0.047 A 
ATOM     27  C   UNL     1       0.002  -0.004   0.002  0.00  0.00    +0.003 A 
ATOM     28  C   UNL     1      -0.989  -0.988   0.007  0.00  0.00    +0.010 A 
ATOM     29  C   UNL     1      -0.018   1.461   0.010  0.00  0.00    -0.022 A 
ATOM     30  C   UNL     1       1.260   1.871   0.000  0.00  0.00    +0.087 A 
ATOM     31  N   UNL     1       2.097   0.788  -0.014  0.00  0.00    -0.360 N 
ATOM     32  H   UNL     1       3.066   0.833  -0.023  0.00  0.00    +0.165 HD
ENDBRANCH  22  29
ENDBRANCH  21  22
ENDBRANCH   1  21
TORSDOF 6
