REMARK  Name = ZINC06058891
REMARK  2 active torsions:
REMARK  status: ('A' for Active; 'I' for Inactive)
REMARK    1  A    between atoms: C_6  and  C_7
REMARK    2  A    between atoms: C_15  and  C_17
REMARK                            x       y       z     vdW  Elec       q    Type
REMARK                         _______ _______ _______ _____ _____    ______ ____
ROOT
ATOM      1  C   UNL     1      -1.271  -0.766   0.011  0.00  0.00    +0.080 A 
ATOM      2  C   UNL     1      -1.257  -2.132   0.008  0.00  0.00    +0.077 A 
ATOM      3  S   UNL     1      -3.010  -2.482   0.021  0.00  0.00    -0.056 S 
ATOM      4  C   UNL     1      -3.576  -0.786   0.028  0.00  0.00    +0.196 A 
ATOM      5  N   UNL     1      -2.432  -0.127   0.026  0.00  0.00    -0.221 NA
ATOM      6  N   UNL     1      -4.873  -0.293   0.038  0.00  0.00    -0.194 N 
ATOM      7  C   UNL     1      -5.230   1.008   0.043  0.00  0.00    +0.274 A 
ATOM      8  C   UNL     1      -6.643   1.064   0.053  0.00  0.00    +0.103 A 
ATOM      9  C   UNL     1      -7.113  -0.200   0.055  0.00  0.00    +0.141 A 
ATOM     10  N   UNL     1      -6.048  -1.056   0.041  0.00  0.00    -0.284 N 
ATOM     11  O   UNL     1      -4.473   1.961   0.038  0.00  0.00    -0.266 OA
ATOM     12  H   UNL     1      -6.097  -2.025   0.035  0.00  0.00    +0.187 HD
ENDROOT
BRANCH   1  18
ATOM     13  C   UNL     1      -0.017   1.390   0.010  0.00  0.00    +0.011 A 
ATOM     14  C   UNL     1       1.170   2.093   0.002  0.00  0.00    +0.020 A 
ATOM     15  C   UNL     1       2.378   1.418  -0.013  0.00  0.00    +0.041 A 
ATOM     16  C   UNL     1       2.402   0.033  -0.021  0.00  0.00    +0.020 A 
ATOM     17  C   UNL     1       1.221  -0.680  -0.014  0.00  0.00    +0.011 A 
ATOM     18  C   UNL     1       0.002  -0.004   0.002  0.00  0.00    +0.001 A 
ATOM     19 CL   UNL     1       3.868   2.309  -0.022  0.00  0.00    -0.084 Cl
ENDBRANCH   1  18
BRANCH   9  20
ATOM     20  C   UNL     1      -8.565  -0.601   0.065  0.00  0.00    +0.434 C 
ATOM     21  F   UNL     1      -9.366   0.547   0.071  0.00  0.00    -0.164 F 
ATOM     22  F   UNL     1      -8.848  -1.360  -1.076  0.00  0.00    -0.164 F 
ATOM     23  F   UNL     1      -8.832  -1.361   1.209  0.00  0.00    -0.164 F 
ENDBRANCH   9  20
TORSDOF 2
