REMARK  Name = ZINC39654491
REMARK  9 active torsions:
REMARK  status: ('A' for Active; 'I' for Inactive)
REMARK    1  A    between atoms: C_1  and  C_2
REMARK    2  A    between atoms: C_2  and  C_3
REMARK    3  A    between atoms: C_6  and  C_9
REMARK    4  A    between atoms: C_9  and  C_10
REMARK    5  A    between atoms: C_10  and  N_11
REMARK    6  A    between atoms: C_12  and  C_14
REMARK    7  A    between atoms: C_25  and  C_27
REMARK    8  A    between atoms: C_32  and  S_33
REMARK    9  A    between atoms: S_33  and  C_34
REMARK                            x       y       z     vdW  Elec       q    Type
REMARK                         _______ _______ _______ _____ _____    ______ ____
ROOT
ATOM      1  C   UNL     1       5.805  -0.954   8.927  0.00  0.00    +0.100 C 
ATOM      2  C   UNL     1       4.664  -1.634   9.717  0.00  0.00    +0.121 C 
ATOM      3  N   UNL     1       4.880  -1.216  11.122  0.00  0.00    -0.296 N 
ATOM      4  C   UNL     1       5.298   0.204  11.024  0.00  0.00    +0.115 C 
ATOM      5  C   UNL     1       6.217   0.252   9.788  0.00  0.00    -0.004 C 
ATOM      6  C   UNL     1       5.998   1.550   9.018  0.00  0.00    -0.010 C 
ATOM      7  C   UNL     1       6.470   2.731   9.871  0.00  0.00    -0.082 C 
ATOM      8  N   UNL     1       7.892   2.565  10.196  0.00  0.00    +0.379 N 
ATOM      9  C   UNL     1       8.081   1.362  11.016  0.00  0.00    -0.082 C 
ATOM     10  C   UNL     1       7.678   0.124  10.210  0.00  0.00    -0.010 C 
ATOM     11  C   UNL     1       4.732  -1.958  12.237  0.00  0.00    +0.249 C 
ATOM     12  O   UNL     1       4.856  -1.443  13.331  0.00  0.00    -0.270 OA
ATOM     13  H   UNL     1       8.422   2.475   9.342  0.00  0.00    -0.086 HD
ATOM     14  H   UNL     1       8.215   3.373  10.706  0.00  0.00    -0.086 HD
ENDROOT
BRANCH  11  15
ATOM     15  C   UNL     1       4.420  -3.395  12.130  0.00  0.00    +0.069 A 
ATOM     16  C   UNL     1       3.591  -3.869  11.106  0.00  0.00    +0.017 A 
ATOM     17  C   UNL     1       3.329  -5.227  11.049  0.00  0.00    +0.020 A 
ATOM     18  C   UNL     1       3.888  -6.069  11.995  0.00  0.00    +0.112 A 
ATOM     19  N   UNL     1       4.666  -5.603  12.951  0.00  0.00    -0.248 NA
ATOM     20  C   UNL     1       4.954  -4.314  13.050  0.00  0.00    +0.114 A 
BRANCH  20  21
ATOM     21  S   UNL     1       6.006  -3.747  14.344  0.00  0.00    -0.069 S 
BRANCH  21  22
ATOM     22  C   UNL     1       6.293  -5.186  15.320  0.00  0.00    +0.014 A 
ATOM     23  C   UNL     1       7.426  -5.960  15.102  0.00  0.00    +0.015 A 
ATOM     24  C   UNL     1       7.648  -7.087  15.869  0.00  0.00    +0.001 A 
ATOM     25  C   UNL     1       6.745  -7.445  16.853  0.00  0.00    +0.000 A 
ATOM     26  C   UNL     1       5.617  -6.676  17.073  0.00  0.00    +0.001 A 
ATOM     27  C   UNL     1       5.391  -5.545  16.314  0.00  0.00    +0.015 A 
ENDBRANCH  21  22
ENDBRANCH  20  21
ENDBRANCH  11  15
BRANCH   1  29
ATOM     28  N   UNL     1       6.160  -0.416   6.539  0.00  0.00    -0.315 N 
ATOM     29  C   UNL     1       5.309  -0.493   7.581  0.00  0.00    +0.218 C 
ATOM     30  O   UNL     1       4.143  -0.190   7.435  0.00  0.00    -0.275 OA
ATOM     31  H   UNL     1       7.092  -0.658   6.655  0.00  0.00    +0.149 HD
BRANCH  28  32
ATOM     32  C   UNL     1       5.678   0.033   5.230  0.00  0.00    +0.109 C 
BRANCH  32  33
ATOM     33  C   UNL     1       6.836   0.028   4.231  0.00  0.00    +0.054 C 
BRANCH  33  37
ATOM     34  C   UNL     1       5.432   1.336   0.414  0.00  0.00    -0.048 A 
ATOM     35  C   UNL     1       5.915   2.256   1.325  0.00  0.00    +0.004 A 
ATOM     36  C   UNL     1       6.370   1.833   2.561  0.00  0.00    +0.004 A 
ATOM     37  C   UNL     1       6.340   0.490   2.885  0.00  0.00    -0.046 A 
ATOM     38  C   UNL     1       5.856  -0.431   1.974  0.00  0.00    +0.004 A 
ATOM     39  C   UNL     1       5.397  -0.007   0.740  0.00  0.00    +0.004 A 
BRANCH  34  41
ATOM     40  C   UNL     1       3.443   2.119  -0.843  0.00  0.00    +0.009 C 
ATOM     41  C   UNL     1       4.937   1.797  -0.932  0.00  0.00    +0.032 C 
ENDBRANCH  34  41
ENDBRANCH  33  37
ENDBRANCH  32  33
ENDBRANCH  28  32
ENDBRANCH   1  29
TORSDOF 8
