REMARK  Name = ZINC12883026
REMARK  7 active torsions:
REMARK  status: ('A' for Active; 'I' for Inactive)
REMARK    1  A    between atoms: C_1  and  C_2
REMARK    2  A    between atoms: C_7  and  C_8
REMARK    3  A    between atoms: C_17  and  C_19
REMARK    4  A    between atoms: C_19  and  C_20
REMARK    5  A    between atoms: C_20  and  C_21
REMARK    6  A    between atoms: N_25  and  C_28
REMARK    7  A    between atoms: C_28  and  C_29
REMARK                            x       y       z     vdW  Elec       q    Type
REMARK                         _______ _______ _______ _____ _____    ______ ____
ROOT
ATOM      1  C   UNL     1       3.323  -0.963  -2.666  0.00  0.00    +0.044 C 
ATOM      2  C   UNL     1       2.134  -0.184  -2.164  0.00  0.00    -0.046 A 
ATOM      3  C   UNL     1       0.997  -0.854  -1.752  0.00  0.00    +0.004 A 
ATOM      4  C   UNL     1      -0.094  -0.139  -1.290  0.00  0.00    +0.005 A 
ATOM      5  C   UNL     1      -0.046   1.236  -1.241  0.00  0.00    -0.027 A 
ATOM      6  C   UNL     1       1.093   1.921  -1.654  0.00  0.00    +0.039 A 
ATOM      7  C   UNL     1       2.187   1.194  -2.118  0.00  0.00    -0.026 A 
ATOM      8  C   UNL     1       3.431   1.914  -2.570  0.00  0.00    +0.046 C 
ATOM      9  N   UNL     1       0.906   3.298  -1.512  0.00  0.00    -0.286 N 
ATOM     10  C   UNL     1      -0.311   3.598  -1.017  0.00  0.00    +0.211 C 
ATOM     11  O   UNL     1      -0.747   4.706  -0.789  0.00  0.00    -0.277 OA
ATOM     12  C   UNL     1      -1.021   2.290  -0.799  0.00  0.00    +0.050 C 
ATOM     13  C   UNL     1      -1.419   2.104   0.670  0.00  0.00    +0.088 C 
ATOM     14  C   UNL     1      -2.915   2.522   0.726  0.00  0.00    +0.073 C 
ATOM     15  C   UNL     1      -3.266   2.936  -0.719  0.00  0.00    -0.057 C 
ATOM     16  C   UNL     1      -3.626   1.231   1.062  0.00  0.00    +0.224 C 
ATOM     17  O   UNL     1      -4.825   1.105   1.192  0.00  0.00    -0.275 OA
ATOM     18  N   UNL     1      -2.726   0.250   1.194  0.00  0.00    -0.237 N 
ATOM     19  C   UNL     1      -1.458   0.629   1.000  0.00  0.00    +0.225 C 
ATOM     20  O   UNL     1      -0.490  -0.098   1.077  0.00  0.00    -0.275 OA
ATOM     21  H   UNL     1       1.574   3.962  -1.744  0.00  0.00    +0.155 HD
ATOM     22  N   UNL     1      -2.271   2.240  -1.538  0.00  0.00    +0.394 N 
ATOM     23  H   UNL     1      -2.555   1.265  -1.688  0.00  0.00    -0.083 HD
ATOM     24  H   UNL     1      -2.166   2.709  -2.445  0.00  0.00    -0.083 HD
ENDROOT
BRANCH  15  25
ATOM     25  C   UNL     1      -3.125   4.450  -0.887  0.00  0.00    -0.004 C 
BRANCH  25  26
ATOM     26  C   UNL     1      -4.465   5.124  -0.587  0.00  0.00    +0.123 C 
BRANCH  26  27
ATOM     27  C   UNL     1      -4.326   6.615  -0.754  0.00  0.00    +0.356 C 
ATOM     28  O   UNL     1      -3.264   7.091  -1.079  0.00  0.00    -0.246 OA
ATOM     29  O   UNL     1      -5.382   7.416  -0.540  0.00  0.00    -0.246 OA
ENDBRANCH  26  27
ENDBRANCH  25  26
ENDBRANCH  15  25
BRANCH  18  30
ATOM     30  C   UNL     1      -3.100  -1.128   1.524  0.00  0.00    +0.151 C 
BRANCH  30  31
ATOM     31  C   UNL     1      -3.105  -1.302   3.021  0.00  0.00    -0.026 A 
ATOM     32  C   UNL     1      -4.262  -1.062   3.739  0.00  0.00    +0.009 A 
ATOM     33  C   UNL     1      -4.272  -1.221   5.112  0.00  0.00    +0.050 A 
ATOM     34  C   UNL     1      -3.122  -1.621   5.772  0.00  0.00    +0.166 A 
ATOM     35  C   UNL     1      -1.957  -1.863   5.049  0.00  0.00    +0.167 A 
ATOM     36  C   UNL     1      -1.956  -1.708   3.672  0.00  0.00    +0.054 A 
ATOM     37  O   UNL     1      -0.975  -2.242   5.918  0.00  0.00    -0.453 OA
ATOM     38  C   UNL     1      -1.657  -2.624   7.127  0.00  0.00    +0.466 C 
ATOM     39  O   UNL     1      -2.870  -1.849   7.095  0.00  0.00    -0.453 OA
ENDBRANCH  30  31
ENDBRANCH  18  30
TORSDOF 5
