REMARK  Name = ZINC64050309
REMARK  9 active torsions:
REMARK  status: ('A' for Active; 'I' for Inactive)
REMARK    1  A    between atoms: C_1  and  O_2
REMARK    2  A    between atoms: O_2  and  C_3
REMARK    3  A    between atoms: C_3  and  C_4
REMARK    4  A    between atoms: C_4  and  N_5
REMARK    5  A    between atoms: C_9  and  N_10
REMARK    6  A    between atoms: N_10  and  C_11
REMARK    7  A    between atoms: C_11  and  C_12
REMARK    8  A    between atoms: C_12  and  C_14
REMARK    9  A    between atoms: C_12  and  C_21
REMARK                            x       y       z     vdW  Elec       q    Type
REMARK                         _______ _______ _______ _____ _____    ______ ____
ROOT
ATOM      1  C   UNL     1      -0.945  -3.292  -5.231  0.00  0.00    +0.113 C 
ENDROOT
BRANCH   1   2
ATOM      2  N   UNL     1      -0.325  -3.042  -3.928  0.00  0.00    -0.348 N 
ATOM      3  H   UNL     1      -0.871  -2.759  -3.178  0.00  0.00    +0.146 HD
BRANCH   2   8
ATOM      4  N   UNL     1       1.517  -1.846  -0.377  0.00  0.00    -0.247 N 
ATOM      5  C   UNL     1       0.865  -2.151  -1.517  0.00  0.00    +0.258 C 
ATOM      6  O   UNL     1      -0.304  -1.847  -1.669  0.00  0.00    -0.269 OA
ATOM      7  C   UNL     1       1.606  -2.860  -2.575  0.00  0.00    +0.113 C 
ATOM      8  C   UNL     1       1.004  -3.205  -3.771  0.00  0.00    +0.085 C 
ATOM      9  C   UNL     1       3.018  -3.186  -2.303  0.00  0.00    +0.256 C 
ATOM     10  O   UNL     1       3.695  -3.770  -3.128  0.00  0.00    -0.270 OA
ATOM     11  N   UNL     1       3.539  -2.818  -1.114  0.00  0.00    -0.263 N 
ATOM     12  C   UNL     1       2.806  -2.169  -0.199  0.00  0.00    +0.146 C 
ATOM     13  S   UNL     1       3.554  -1.736   1.279  0.00  0.00    -0.018 S 
ATOM     14  H   UNL     1       4.466  -3.025  -0.919  0.00  0.00    +0.157 HD
BRANCH   4  15
ATOM     15  C   UNL     1       0.803  -1.140   0.690  0.00  0.00    +0.143 C 
BRANCH  15  16
ATOM     16  C   UNL     1       0.950   0.370   0.490  0.00  0.00    +0.179 C 
BRANCH  16  18
ATOM     17  C   UNL     1       0.376   2.154  -1.004  0.00  0.00    +0.194 C 
ATOM     18  O   UNL     1       0.297   0.755  -0.721  0.00  0.00    -0.381 OA
ENDBRANCH  16  18
ENDBRANCH  15  16
ENDBRANCH   4  15
ENDBRANCH   2   8
ENDBRANCH   1   2
BRANCH   1  19
ATOM     19  C   UNL     1      -2.450  -3.036  -5.138  0.00  0.00    +0.066 C 
BRANCH  19  20
ATOM     20  C   UNL     1      -3.105  -3.410  -6.443  0.00  0.00    -0.033 C 
ATOM     21  C   UNL     1      -4.073  -4.337  -6.630  0.00  0.00    -0.000 A 
ATOM     22  C   UNL     1      -4.777  -5.239  -5.711  0.00  0.00    +0.010 A 
ATOM     23  C   UNL     1      -5.718  -6.075  -6.206  0.00  0.00    +0.001 A 
ATOM     24  C   UNL     1      -6.038  -6.101  -7.570  0.00  0.00    +0.002 A 
ATOM     25  C   UNL     1      -5.434  -5.302  -8.476  0.00  0.00    +0.026 A 
ATOM     26  C   UNL     1      -4.429  -4.383  -8.066  0.00  0.00    +0.043 A 
ATOM     27  N   UNL     1      -3.709  -3.519  -8.740  0.00  0.00    -0.380 N 
ATOM     28  C   UNL     1      -2.819  -2.821  -7.806  0.00  0.00    +0.145 C 
ATOM     29  H   UNL     1      -3.760  -3.364  -9.697  0.00  0.00    +0.160 HD
ENDBRANCH  19  20
BRANCH  19  30
ATOM     30  C   UNL     1      -2.694  -1.576  -4.854  0.00  0.00    -0.020 A 
ATOM     31  C   UNL     1      -2.251  -0.615  -5.744  0.00  0.00    +0.006 A 
ATOM     32  C   UNL     1      -2.475   0.724  -5.484  0.00  0.00    +0.000 A 
ATOM     33  C   UNL     1      -3.142   1.103  -4.334  0.00  0.00    +0.001 A 
ATOM     34  C   UNL     1      -3.586   0.143  -3.443  0.00  0.00    +0.020 A 
ATOM     35  C   UNL     1      -3.367  -1.198  -3.706  0.00  0.00    +0.045 A 
ATOM     36 CL   UNL     1      -3.930  -2.404  -2.592  0.00  0.00    -0.083 Cl
ENDBRANCH  19  30
ENDBRANCH   1  19
TORSDOF 8
