REMARK  Name = ZINC02764621
REMARK  6 active torsions:
REMARK  status: ('A' for Active; 'I' for Inactive)
REMARK    1  A    between atoms: C_1  and  C_2
REMARK    2  A    between atoms: C_5  and  N_9
REMARK    3  A    between atoms: C_10  and  C_12
REMARK    4  A    between atoms: C_15  and  C_17
REMARK    5  A    between atoms: C_17  and  N_18
REMARK    6  A    between atoms: C_19  and  C_27
REMARK                            x       y       z     vdW  Elec       q    Type
REMARK                         _______ _______ _______ _____ _____    ______ ____
ROOT
ATOM      1  C   UNL     1       1.072   1.906  -0.004  0.00  0.00    +0.190 A 
ATOM      2  C   UNL     1      -0.013   1.076   0.003  0.00  0.00    +0.055 A 
ATOM      3  C   UNL     1      -1.150   1.899   0.002  0.00  0.00    +0.047 A 
ATOM      4  C   UNL     1      -0.716   3.178   0.003  0.00  0.00    +0.127 A 
ATOM      5  O   UNL     1       0.624   3.179  -0.004  0.00  0.00    -0.453 OA
ENDROOT
BRANCH   1   7
ATOM      6  N   UNL     1       3.456   2.414  -0.018  0.00  0.00    -0.279 N 
ATOM      7  C   UNL     1       2.477   1.487  -0.011  0.00  0.00    +0.284 C 
ATOM      8  O   UNL     1       2.759   0.303  -0.011  0.00  0.00    -0.266 OA
ATOM      9  H   UNL     1       3.233   3.355  -0.085  0.00  0.00    +0.155 HD
BRANCH   6  14
ATOM     10  C   UNL     1       8.886   0.810   0.354  0.00  0.00    +0.047 C 
ATOM     11  C   UNL     1       7.444   1.236   0.255  0.00  0.00    -0.015 A 
ATOM     12  C   UNL     1       7.028   2.411   0.854  0.00  0.00    +0.008 A 
ATOM     13  C   UNL     1       5.708   2.806   0.761  0.00  0.00    +0.024 A 
ATOM     14  C   UNL     1       4.794   2.017   0.073  0.00  0.00    +0.036 A 
ATOM     15  C   UNL     1       5.212   0.838  -0.528  0.00  0.00    +0.062 A 
ATOM     16  C   UNL     1       6.537   0.449  -0.436  0.00  0.00    +0.128 A 
ATOM     17  F   UNL     1       6.946  -0.698  -1.020  0.00  0.00    -0.205 F 
ENDBRANCH   6  14
ENDBRANCH   1   7
BRANCH   4  18
ATOM     18  C   UNL     1      -1.593   4.403   0.006  0.00  0.00    +0.218 C 
BRANCH  18  19
ATOM     19  N   UNL     1      -1.871   4.802   1.388  0.00  0.00    -0.258 N 
ATOM     20  C   UNL     1      -2.912   4.386   2.141  0.00  0.00    +0.057 A 
ATOM     21  C   UNL     1      -2.808   4.980   3.353  0.00  0.00    +0.112 A 
ATOM     22  C   UNL     1      -1.669   5.793   3.337  0.00  0.00    +0.254 A 
ATOM     23  N   UNL     1      -1.107   5.686   2.160  0.00  0.00    -0.144 NA
ATOM     24  N   UNL     1      -1.183   6.628   4.458  0.00  0.00    +0.078 N 
ATOM     25  O   UNL     1      -0.174   7.297   4.327  0.00  0.00    -0.125 OA
ATOM     26  O   UNL     1      -1.793   6.646   5.512  0.00  0.00    -0.125 OA
ATOM     27 CL   UNL     1      -3.898   4.775   4.688  0.00  0.00    -0.078 Cl
ATOM     28  C   UNL     1      -3.995   3.430   1.710  0.00  0.00    +0.067 C 
ENDBRANCH  18  19
ENDBRANCH   4  18
TORSDOF 4
