REMARK  Name = ZINC10661581
REMARK  9 active torsions:
REMARK  status: ('A' for Active; 'I' for Inactive)
REMARK    1  A    between atoms: C_1  and  C_2
REMARK    2  A    between atoms: C_2  and  C_4
REMARK    3  A    between atoms: C_2  and  O_16
REMARK    4  A    between atoms: N_6  and  C_7
REMARK    5  A    between atoms: C_11  and  N_13
REMARK    6  A    between atoms: O_16  and  C_17
REMARK    7  A    between atoms: C_17  and  C_19
REMARK    8  A    between atoms: C_24  and  C_25
REMARK    9  A    between atoms: C_25  and  C_27
REMARK                            x       y       z     vdW  Elec       q    Type
REMARK                         _______ _______ _______ _____ _____    ______ ____
ROOT
ATOM      1  C   UNL     1       2.573   9.172   0.905  0.00  0.00    +0.341 C 
ATOM      2  O   UNL     1       1.635   9.732   1.435  0.00  0.00    -0.245 OA
ENDROOT
BRANCH   1   3
ATOM      3  C   UNL     1       3.946   9.687   1.096  0.00  0.00    +0.070 A 
ATOM      4  C   UNL     1       5.013   9.107   0.415  0.00  0.00    +0.016 A 
ATOM      5  C   UNL     1       6.293   9.596   0.594  0.00  0.00    +0.001 A 
ATOM      6  C   UNL     1       6.526  10.655   1.454  0.00  0.00    +0.001 A 
ATOM      7  C   UNL     1       5.481  11.239   2.143  0.00  0.00    +0.012 A 
ATOM      8  C   UNL     1       4.182  10.764   1.972  0.00  0.00    +0.036 A 
BRANCH   8   9
ATOM      9  C   UNL     1       3.060  11.386   2.707  0.00  0.00    +0.194 C 
ATOM     10  O   UNL     1       2.898  11.145   3.887  0.00  0.00    -0.287 OA
BRANCH   9  11
ATOM     11  C   UNL     1       2.135  12.299   2.007  0.00  0.00    +0.022 A 
ATOM     12  C   UNL     1       2.260  12.505   0.630  0.00  0.00    +0.013 A 
ATOM     13  C   UNL     1       1.390  13.355  -0.018  0.00  0.00    +0.021 A 
ATOM     14  C   UNL     1       0.400  14.013   0.693  0.00  0.00    +0.041 A 
ATOM     15  C   UNL     1       0.274  13.818   2.059  0.00  0.00    +0.021 A 
ATOM     16  C   UNL     1       1.135  12.966   2.719  0.00  0.00    +0.013 A 
ATOM     17 CL   UNL     1      -0.688  15.087  -0.130  0.00  0.00    -0.084 Cl
ENDBRANCH   9  11
ENDBRANCH   8   9
ENDBRANCH   1   3
BRANCH   1  18
ATOM     18  O   UNL     1       2.364   8.081   0.143  0.00  0.00    -0.449 OA
BRANCH  18  20
ATOM     19  C   UNL     1       0.354   8.314  -1.213  0.00  0.00    +0.062 C 
ATOM     20  C   UNL     1       0.991   7.631  -0.000  0.00  0.00    +0.259 C 
BRANCH  20  21
ATOM     21  C   UNL     1       0.969   6.137  -0.197  0.00  0.00    +0.258 C 
ATOM     22  O   UNL     1       2.009   5.513  -0.214  0.00  0.00    -0.271 OA
ATOM     23  N   UNL     1      -0.205   5.495  -0.353  0.00  0.00    -0.282 N 
ATOM     24  H   UNL     1      -1.030   6.001  -0.417  0.00  0.00    +0.155 HD
BRANCH  23  25
ATOM     25  C   UNL     1      -0.234   4.098  -0.424  0.00  0.00    +0.036 A 
ATOM     26  C   UNL     1       0.755   3.348   0.199  0.00  0.00    +0.023 A 
ATOM     27  C   UNL     1       0.724   1.970   0.127  0.00  0.00    +0.004 A 
ATOM     28  C   UNL     1      -0.291   1.335  -0.565  0.00  0.00    +0.033 A 
ATOM     29  C   UNL     1      -1.276   2.078  -1.191  0.00  0.00    +0.128 A 
ATOM     30  C   UNL     1      -1.253   3.457  -1.118  0.00  0.00    +0.056 A 
BRANCH  29  31
ATOM     31  N   UNL     1      -2.357   1.395  -1.935  0.00  0.00    +0.056 N 
ATOM     32  O   UNL     1      -2.380   0.179  -1.997  0.00  0.00    -0.126 OA
ATOM     33  O   UNL     1      -3.224   2.049  -2.487  0.00  0.00    -0.126 OA
ENDBRANCH  29  31
ENDBRANCH  23  25
ENDBRANCH  20  21
ENDBRANCH  18  20
ENDBRANCH   1  18
TORSDOF 8
