REMARK  Name = ZINC20097827
REMARK  11 active torsions:
REMARK  status: ('A' for Active; 'I' for Inactive)
REMARK    1  A    between atoms: C_1  and  C_2
REMARK    2  A    between atoms: C_5  and  N_8
REMARK    3  A    between atoms: C_9  and  C_11
REMARK    4  A    between atoms: C_11  and  S_12
REMARK    5  A    between atoms: S_12  and  C_14
REMARK    6  A    between atoms: C_14  and  C_15
REMARK    7  A    between atoms: N_17  and  C_18
REMARK    8  A    between atoms: N_17  and  C_24
REMARK    9  A    between atoms: C_24  and  C_26
REMARK   10  A    between atoms: C_24  and  C_27
REMARK   11  A    between atoms: N_29  and  C_30
REMARK                            x       y       z     vdW  Elec       q    Type
REMARK                         _______ _______ _______ _____ _____    ______ ____
ROOT
ATOM      1  C   UNL     1      -2.166  -0.289   1.077  0.00  0.00    +0.229 C 
ATOM      2  O   UNL     1      -1.769   0.398   1.994  0.00  0.00    -0.275 OA
ATOM      3  N   UNL     1      -1.375  -0.507   0.007  0.00  0.00    -0.286 N 
ENDROOT
BRANCH   3   4
ATOM      4  C   UNL     1      -0.001  -0.002  -0.003  0.00  0.00    +0.077 C 
ATOM      5  C   UNL     1      -0.015   1.519   0.168  0.00  0.00    +0.022 C 
ATOM      6  C   UNL     1       1.421   2.047   0.157  0.00  0.00    +0.002 C 
ATOM      7  C   UNL     1       2.206   1.412   1.307  0.00  0.00    +0.000 C 
ATOM      8  C   UNL     1       2.221  -0.108   1.136  0.00  0.00    +0.002 C 
ATOM      9  C   UNL     1       0.785  -0.636   1.147  0.00  0.00    +0.022 C 
ENDBRANCH   3   4
BRANCH   3  10
ATOM     10  C   UNL     1      -1.891  -1.250  -1.145  0.00  0.00    +0.159 C 
ATOM     11  C   UNL     1      -1.039  -2.501  -1.368  0.00  0.00    +0.038 C 
BRANCH  10  12
ATOM     12  C   UNL     1      -1.833  -0.378  -2.372  0.00  0.00    +0.234 C 
ATOM     13  O   UNL     1      -1.404   0.754  -2.292  0.00  0.00    -0.274 OA
ATOM     14  N   UNL     1      -2.259  -0.854  -3.559  0.00  0.00    -0.311 N 
ATOM     15  H   UNL     1      -2.649  -1.880  -3.631  0.00  0.00    +0.149 HD
BRANCH  14  16
ATOM     16  C   UNL     1      -2.203  -0.006  -4.752  0.00  0.00    +0.073 C 
ATOM     17  C   UNL     1      -3.458   0.866  -4.817  0.00  0.00    +0.022 C 
ATOM     18  C   UNL     1      -3.400   1.752  -6.064  0.00  0.00    +0.002 C 
ATOM     19  C   UNL     1      -3.324   0.871  -7.312  0.00  0.00    +0.000 C 
ATOM     20  C   UNL     1      -2.069  -0.001  -7.247  0.00  0.00    +0.002 C 
ATOM     21  C   UNL     1      -2.127  -0.887  -6.001  0.00  0.00    +0.022 C 
ENDBRANCH  14  16
ENDBRANCH  10  12
ENDBRANCH   3  10
BRANCH   1  22
ATOM     22  C   UNL     1      -3.543  -0.898   1.133  0.00  0.00    +0.200 C 
BRANCH  22  23
ATOM     23  S   UNL     1      -4.405  -0.308   2.616  0.00  0.00    +0.040 S 
ATOM     24  O   UNL     1      -4.578   1.100   2.535  0.00  0.00    -0.256 OA
BRANCH  23  25
ATOM     25  C   UNL     1      -6.024  -1.122   2.535  0.00  0.00    +0.200 C 
BRANCH  25  27
ATOM     26  N   UNL     1      -8.101  -1.197   3.877  0.00  0.00    -0.285 N 
ATOM     27  C   UNL     1      -6.852  -0.713   3.726  0.00  0.00    +0.230 C 
ATOM     28  O   UNL     1      -6.395   0.053   4.548  0.00  0.00    -0.274 OA
ATOM     29  H   UNL     1      -8.543  -1.833   3.096  0.00  0.00    +0.155 HD
BRANCH  26  34
ATOM     30  C   UNL     1     -11.077   0.041   8.546  0.00  0.00    +0.044 C 
ATOM     31  C   UNL     1     -10.287  -0.288   7.306  0.00  0.00    -0.050 A 
ATOM     32  C   UNL     1      -9.431   0.653   6.763  0.00  0.00    +0.005 A 
ATOM     33  C   UNL     1      -8.705   0.355   5.627  0.00  0.00    +0.023 A 
ATOM     34  C   UNL     1      -8.835  -0.892   5.029  0.00  0.00    +0.033 A 
ATOM     35  C   UNL     1      -9.699  -1.833   5.573  0.00  0.00    +0.023 A 
ATOM     36  C   UNL     1     -10.418  -1.531   6.713  0.00  0.00    +0.005 A 
ENDBRANCH  26  34
ENDBRANCH  25  27
ENDBRANCH  23  25
ENDBRANCH  22  23
ENDBRANCH   1  22
TORSDOF 9
