REMARK  Name = ZINC63889656
REMARK  7 active torsions:
REMARK  status: ('A' for Active; 'I' for Inactive)
REMARK    1  A    between atoms: C_1  and  C_2
REMARK    2  A    between atoms: C_6  and  C_14
REMARK    3  A    between atoms: C_12  and  C_13
REMARK    4  A    between atoms: C_14  and  N_15
REMARK    5  A    between atoms: N_15  and  C_16
REMARK    6  A    between atoms: C_18  and  C_23
REMARK    7  A    between atoms: C_21  and  C_22
REMARK                            x       y       z     vdW  Elec       q    Type
REMARK                         _______ _______ _______ _____ _____    ______ ____
ROOT
ATOM      1  C   UNL     1      -0.018   1.503   0.010  0.00  0.00    +0.044 C 
ATOM      2  C   UNL     1       0.002  -0.004   0.002  0.00  0.00    -0.044 A 
ATOM      3  C   UNL     1       0.006  -0.684  -1.207  0.00  0.00    +0.004 A 
ATOM      4  C   UNL     1       0.025  -2.050  -1.235  0.00  0.00    +0.012 A 
ATOM      5  C   UNL     1       0.040  -2.768  -0.035  0.00  0.00    +0.023 A 
ATOM      6  C   UNL     1       0.061  -4.234  -0.030  0.00  0.00    -0.013 A 
ATOM      7  C   UNL     1       0.077  -4.870   1.169  0.00  0.00    +0.097 A 
ATOM      8  C   UNL     1       0.072  -4.118   2.363  0.00  0.00    +0.338 A 
ATOM      9  O   UNL     1       0.086  -4.701   3.432  0.00  0.00    -0.245 OA
ATOM     10  O   UNL     1       0.053  -2.776   2.350  0.00  0.00    -0.422 OA
ATOM     11  C   UNL     1       0.037  -2.082   1.193  0.00  0.00    +0.142 A 
ATOM     12  C   UNL     1       0.023  -0.693   1.196  0.00  0.00    -0.005 A 
ATOM     13  C   UNL     1       0.025   0.059   2.502  0.00  0.00    +0.048 C 
ENDROOT
BRANCH   6  14
ATOM     14  C   UNL     1       0.066  -5.012  -1.320  0.00  0.00    +0.137 C 
BRANCH  14  15
ATOM     15  N   UNL     1      -1.311  -5.181  -1.793  0.00  0.00    -0.339 N 
ATOM     16  H   UNL     1      -2.048  -4.811  -1.283  0.00  0.00    +0.146 HD
BRANCH  15  17
ATOM     17  C   UNL     1      -1.562  -5.875  -2.979  0.00  0.00    +0.032 A 
ATOM     18  C   UNL     1      -0.508  -6.409  -3.706  0.00  0.00    +0.042 A 
ATOM     19  C   UNL     1      -0.764  -7.102  -4.890  0.00  0.00    +0.054 A 
ATOM     20  C   UNL     1      -2.080  -7.252  -5.334  0.00  0.00    +0.019 A 
ATOM     21  C   UNL     1      -3.121  -6.717  -4.604  0.00  0.00    +0.006 A 
ATOM     22  C   UNL     1      -2.867  -6.035  -3.428  0.00  0.00    -0.030 A 
ATOM     23  C   UNL     1      -4.010  -5.459  -2.633  0.00  0.00    +0.045 C 
BRANCH  19  24
ATOM     24  C   UNL     1       0.318  -7.656  -5.646  0.00  0.00    +0.099 C 
ATOM     25  N   UNL     1       1.176  -8.095  -6.247  0.00  0.00    -0.191 NA
ENDBRANCH  19  24
ENDBRANCH  15  17
ENDBRANCH  14  15
ENDBRANCH   6  14
TORSDOF 4
