REMARK  Name = ZINC64871175
REMARK  6 active torsions:
REMARK  status: ('A' for Active; 'I' for Inactive)
REMARK    1  A    between atoms: C_1  and  C_2
REMARK    2  A    between atoms: C_2  and  C_3
REMARK    3  A    between atoms: C_6  and  C_9
REMARK    4  A    between atoms: C_12  and  C_16
REMARK    5  A    between atoms: N_26  and  C_29
REMARK    6  A    between atoms: C_29  and  C_30
REMARK                            x       y       z     vdW  Elec       q    Type
REMARK                         _______ _______ _______ _____ _____    ______ ____
ROOT
ATOM      1  C   UNL     1      -7.803  -4.017  -1.412  0.00  0.00    -0.000 A 
ATOM      2  C   UNL     1      -8.336  -2.834  -1.901  0.00  0.00    +0.008 A 
ATOM      3  C   UNL     1      -9.526  -2.839  -2.598  0.00  0.00    +0.016 A 
ATOM      4  C   UNL     1     -10.192  -4.044  -2.809  0.00  0.00    +0.063 A 
ATOM      5  C   UNL     1      -9.651  -5.243  -2.313  0.00  0.00    +0.056 A 
ATOM      6  C   UNL     1      -8.451  -5.219  -1.620  0.00  0.00    +0.034 A 
ATOM      7  N   UNL     1     -10.336  -6.428  -2.539  0.00  0.00    -0.307 N 
ATOM      8  H   UNL     1      -9.975  -7.263  -2.203  0.00  0.00    +0.170 HD
ATOM      9  C   UNL     1     -11.495  -6.430  -3.219  0.00  0.00    +0.330 A 
ATOM     10  O   UNL     1     -12.065  -7.490  -3.396  0.00  0.00    -0.246 OA
ATOM     11  N   UNL     1     -12.052  -5.312  -3.712  0.00  0.00    -0.256 N 
ATOM     12  C   UNL     1     -11.466  -4.106  -3.547  0.00  0.00    +0.265 A 
ATOM     13  O   UNL     1     -11.976  -3.099  -3.997  0.00  0.00    -0.267 OA
ENDROOT
BRANCH   1  16
ATOM     14  C   UNL     1      -5.419  -2.005   0.043  0.00  0.00    +0.180 C 
ATOM     15  N   UNL     1      -5.662  -2.876  -1.131  0.00  0.00    -0.265 NA
ATOM     16  C   UNL     1      -6.502  -3.992  -0.653  0.00  0.00    +0.242 C 
ATOM     17  O   UNL     1      -6.752  -3.767   0.747  0.00  0.00    -0.274 OA
ATOM     18  N   UNL     1      -5.634  -2.910   1.204  0.00  0.00    -0.177 NA
ATOM     19  H   UNL     1      -6.124  -2.367  -1.870  0.00  0.00    +0.127 HD
ATOM     20  H   UNL     1      -5.890  -2.386   2.028  0.00  0.00    +0.156 HD
BRANCH  14  24
ATOM     21  C   UNL     1      -1.412  -0.526   0.013  0.00  0.00    -0.048 A 
ATOM     22  C   UNL     1      -2.051  -0.766   1.215  0.00  0.00    +0.004 A 
ATOM     23  C   UNL     1      -3.348  -1.244   1.225  0.00  0.00    +0.007 A 
ATOM     24  C   UNL     1      -4.006  -1.482   0.032  0.00  0.00    -0.014 A 
ATOM     25  C   UNL     1      -3.367  -1.241  -1.170  0.00  0.00    +0.007 A 
ATOM     26  C   UNL     1      -2.072  -0.758  -1.179  0.00  0.00    +0.004 A 
BRANCH  21  28
ATOM     27  C   UNL     1      -0.019   1.526   0.010  0.00  0.00    +0.009 C 
ATOM     28  C   UNL     1       0.002  -0.004   0.002  0.00  0.00    +0.032 C 
ENDBRANCH  21  28
ENDBRANCH  14  24
ENDBRANCH   1  16
BRANCH  11  29
ATOM     29  C   UNL     1     -13.319  -5.402  -4.442  0.00  0.00    +0.165 C 
BRANCH  29  30
ATOM     30  C   UNL     1     -14.466  -5.252  -3.477  0.00  0.00    -0.027 A 
ATOM     31  C   UNL     1     -15.002  -6.368  -2.862  0.00  0.00    +0.007 A 
ATOM     32  C   UNL     1     -16.055  -6.231  -1.977  0.00  0.00    +0.020 A 
ATOM     33  C   UNL     1     -16.572  -4.976  -1.706  0.00  0.00    +0.041 A 
ATOM     34  C   UNL     1     -16.035  -3.860  -2.322  0.00  0.00    +0.020 A 
ATOM     35  C   UNL     1     -14.979  -3.998  -3.203  0.00  0.00    +0.007 A 
ATOM     36 CL   UNL     1     -17.895  -4.804  -0.595  0.00  0.00    -0.084 Cl
ENDBRANCH  29  30
ENDBRANCH  11  29
TORSDOF 5
