REMARK  Name = ZINC67553497
REMARK  10 active torsions:
REMARK  status: ('A' for Active; 'I' for Inactive)
REMARK    1  A    between atoms: C_1  and  C_2
REMARK    2  A    between atoms: C_5  and  C_12
REMARK    3  A    between atoms: C_7  and  N_8
REMARK    4  A    between atoms: C_9  and  C_11
REMARK    5  A    between atoms: N_14  and  C_15
REMARK    6  A    between atoms: C_18  and  O_25
REMARK    7  A    between atoms: C_20  and  C_21
REMARK    8  A    between atoms: C_21  and  O_23
REMARK    9  A    between atoms: O_23  and  C_24
REMARK   10  A    between atoms: O_25  and  C_26
REMARK                            x       y       z     vdW  Elec       q    Type
REMARK                         _______ _______ _______ _____ _____    ______ ____
ROOT
ATOM      1  C   UNL     1      -0.146  -4.559   0.070  0.00  0.00    +0.248 C 
ATOM      2  O   UNL     1      -0.090  -5.099   1.157  0.00  0.00    -0.270 OA
ATOM      3  N   UNL     1      -0.212  -5.304  -1.051  0.00  0.00    -0.281 N 
ATOM      4  H   UNL     1      -0.175  -4.877  -1.921  0.00  0.00    +0.155 HD
ENDROOT
BRANCH   1   9
ATOM      5  C   UNL     1      -0.136   1.188  -0.307  0.00  0.00    +0.045 C 
ATOM      6  C   UNL     1      -0.139  -0.316  -0.207  0.00  0.00    -0.029 A 
ATOM      7  C   UNL     1      -0.205  -1.083  -1.355  0.00  0.00    +0.006 A 
ATOM      8  C   UNL     1      -0.208  -2.460  -1.271  0.00  0.00    +0.013 A 
ATOM      9  C   UNL     1      -0.143  -3.083  -0.023  0.00  0.00    +0.039 A 
ATOM     10  C   UNL     1      -0.076  -2.309   1.135  0.00  0.00    +0.036 A 
ATOM     11  C   UNL     1      -0.069  -0.926   1.039  0.00  0.00    +0.037 A 
BRANCH  11  12
ATOM     12  N   UNL     1       0.004  -0.145   2.198  0.00  0.00    -0.285 N 
ATOM     13  C   UNL     1      -0.604  -0.557   3.328  0.00  0.00    +0.214 C 
ATOM     14  O   UNL     1      -1.140  -1.645   3.366  0.00  0.00    -0.276 OA
ATOM     15  C   UNL     1      -0.617   0.332   4.545  0.00  0.00    +0.109 C 
ATOM     16  H   UNL     1       0.492   0.693   2.188  0.00  0.00    +0.155 HD
ENDBRANCH  11  12
ENDBRANCH   1   9
BRANCH   3  17
ATOM     17  C   UNL     1      -0.333  -6.689  -0.960  0.00  0.00    +0.048 A 
ATOM     18  C   UNL     1      -0.897  -7.266   0.170  0.00  0.00    +0.028 A 
ATOM     19  C   UNL     1      -1.018  -8.638   0.260  0.00  0.00    +0.047 A 
ATOM     20  C   UNL     1      -0.577  -9.452  -0.777  0.00  0.00    +0.121 A 
ATOM     21  C   UNL     1      -0.012  -8.893  -1.908  0.00  0.00    +0.062 A 
ATOM     22  C   UNL     1       0.109  -7.505  -2.012  0.00  0.00    +0.084 A 
BRANCH  22  23
ATOM     23  C   UNL     1       0.704  -6.902  -3.218  0.00  0.00    +0.341 C 
ATOM     24  O   UNL     1       0.900  -5.703  -3.264  0.00  0.00    -0.245 OA
BRANCH  23  25
ATOM     25  O   UNL     1       1.030  -7.679  -4.270  0.00  0.00    -0.464 OA
ATOM     26  C   UNL     1       1.603  -7.027  -5.405  0.00  0.00    +0.280 C 
ENDBRANCH  23  25
ENDBRANCH  22  23
BRANCH  20  27
ATOM     27  O   UNL     1      -0.699 -10.803  -0.677  0.00  0.00    -0.495 OA
ATOM     28  C   UNL     1      -1.291 -11.314   0.519  0.00  0.00    +0.277 C 
ENDBRANCH  20  27
ENDBRANCH   3  17
TORSDOF 6
