REMARK  Name = ZINC64700829
REMARK  7 active torsions:
REMARK  status: ('A' for Active; 'I' for Inactive)
REMARK    1  A    between atoms: C_1  and  C_2
REMARK    2  A    between atoms: C_2  and  C_3
REMARK    3  A    between atoms: C_7  and  N_9
REMARK    4  A    between atoms: C_10  and  C_12
REMARK    5  A    between atoms: C_12  and  S_13
REMARK    6  A    between atoms: S_13  and  C_14
REMARK    7  A    between atoms: C_24  and  C_26
REMARK                            x       y       z     vdW  Elec       q    Type
REMARK                         _______ _______ _______ _____ _____    ______ ____
ROOT
ATOM      1  C   UNL     1       8.470  -3.291  -4.714  0.00  0.00    +0.272 C 
ATOM      2  N   UNL     1       8.649  -4.233  -3.594  0.00  0.00    -0.163 NA
ATOM      3  N   UNL     1       9.605  -4.191  -2.817  0.00  0.00    -0.081 NA
ATOM      4  C   UNL     1      10.623  -3.300  -2.923  0.00  0.00    +0.276 C 
ATOM      5  O   UNL     1      11.487  -3.215  -2.083  0.00  0.00    -0.270 OA
ATOM      6  C   UNL     1      10.616  -2.427  -4.141  0.00  0.00    +0.193 C 
ATOM      7  N   UNL     1       9.176  -2.077  -4.365  0.00  0.00    -0.178 NA
ATOM      8  N   UNL     1       9.299  -1.032  -5.215  0.00  0.00    -0.274 N 
ATOM      9  C   UNL     1      10.346  -0.248  -4.674  0.00  0.00    +0.047 C 
ATOM     10  C   UNL     1      11.215  -1.055  -3.988  0.00  0.00    +0.027 C 
ATOM     11  H   UNL     1       8.783  -0.858  -6.018  0.00  0.00    +0.167 HD
ENDROOT
BRANCH   9  12
ATOM     12  C   UNL     1      10.491   1.217  -4.836  0.00  0.00    -0.003 A 
ATOM     13  C   UNL     1      11.573   1.881  -4.260  0.00  0.00    +0.012 A 
ATOM     14  C   UNL     1      11.703   3.246  -4.413  0.00  0.00    +0.039 A 
ATOM     15  C   UNL     1      10.760   3.957  -5.139  0.00  0.00    +0.123 A 
ATOM     16  C   UNL     1       9.683   3.301  -5.714  0.00  0.00    +0.039 A 
ATOM     17  C   UNL     1       9.548   1.936  -5.571  0.00  0.00    +0.012 A 
ATOM     18  F   UNL     1      10.892   5.293  -5.287  0.00  0.00    -0.205 F 
ENDBRANCH   9  12
BRANCH   1  19
ATOM     19  S   UNL     1       6.707  -2.936  -4.950  0.00  0.00    -0.107 S 
BRANCH  19  20
ATOM     20  C   UNL     1       6.181  -2.247  -3.356  0.00  0.00    +0.168 C 
BRANCH  20  22
ATOM     21  N   UNL     1       4.102  -1.375  -2.339  0.00  0.00    -0.285 N 
ATOM     22  C   UNL     1       4.715  -1.905  -3.416  0.00  0.00    +0.227 C 
ATOM     23  O   UNL     1       4.087  -2.106  -4.434  0.00  0.00    -0.275 OA
ATOM     24  H   UNL     1       4.619  -1.143  -1.552  0.00  0.00    +0.155 HD
BRANCH  21  29
ATOM     25  C   UNL     1       0.810   0.130  -1.692  0.00  0.00    -0.046 A 
ATOM     26  C   UNL     1      -0.014  -0.734  -2.390  0.00  0.00    +0.004 A 
ATOM     27  C   UNL     1       0.525  -1.809  -3.072  0.00  0.00    +0.002 A 
ATOM     28  C   UNL     1       1.889  -2.024  -3.057  0.00  0.00    +0.023 A 
ATOM     29  C   UNL     1       2.720  -1.159  -2.357  0.00  0.00    +0.034 A 
ATOM     30  C   UNL     1       2.175  -0.077  -1.677  0.00  0.00    +0.027 A 
BRANCH  25  32
ATOM     31  C   UNL     1       0.154   2.513  -1.881  0.00  0.00    +0.009 C 
ATOM     32  C   UNL     1       0.218   1.301  -0.951  0.00  0.00    +0.032 C 
ENDBRANCH  25  32
ENDBRANCH  21  29
ENDBRANCH  20  22
ENDBRANCH  19  20
ENDBRANCH   1  19
TORSDOF 6
