REMARK  Name = ZINC06244906
REMARK  11 active torsions:
REMARK  status: ('A' for Active; 'I' for Inactive)
REMARK    1  A    between atoms: C_1  and  C_2
REMARK    2  A    between atoms: C_5  and  C_38
REMARK    3  A    between atoms: C_9  and  C_14
REMARK    4  A    between atoms: C_14  and  C_16
REMARK    5  A    between atoms: C_14  and  N_69
REMARK    6  A    between atoms: N_20  and  C_21
REMARK    7  A    between atoms: C_21  and  C_22
REMARK    8  A    between atoms: C_22  and  O_23
REMARK    9  A    between atoms: O_23  and  C_24
REMARK   10  A    between atoms: N_27  and  C_30
REMARK   11  A    between atoms: C_35  and  C_36
REMARK                            x       y       z     vdW  Elec       q    Type
REMARK                         _______ _______ _______ _____ _____    ______ ____
ROOT
ATOM      1  C   UNL     1       3.592   1.627   3.727  0.00  0.00    +0.039 C 
ENDROOT
BRANCH   1  10
ATOM      2  C   UNL     1      -0.013   1.086   0.008  0.00  0.00    +0.044 C 
ATOM      3  C   UNL     1      -0.718   1.572   1.248  0.00  0.00    -0.041 A 
ATOM      4  C   UNL     1      -2.067   1.788   1.230  0.00  0.00    +0.004 A 
ATOM      5  C   UNL     1      -2.727   2.232   2.367  0.00  0.00    +0.005 A 
ATOM      6  C   UNL     1      -2.033   2.471   3.534  0.00  0.00    -0.026 A 
ATOM      7  C   UNL     1      -0.659   2.263   3.575  0.00  0.00    +0.052 A 
ATOM      8  C   UNL     1       0.006   1.809   2.420  0.00  0.00    +0.002 A 
ATOM      9  C   UNL     1       1.453   1.593   2.474  0.00  0.00    +0.018 A 
ATOM     10  C   UNL     1       2.103   1.839   3.638  0.00  0.00    +0.011 A 
ATOM     11  C   UNL     1       1.389   2.293   4.768  0.00  0.00    +0.251 A 
ATOM     12  O   UNL     1       1.992   2.509   5.805  0.00  0.00    -0.268 OA
ATOM     13  N   UNL     1       0.060   2.494   4.729  0.00  0.00    -0.322 N 
ATOM     14  H   UNL     1      -0.400   2.807   5.524  0.00  0.00    +0.169 HD
ATOM     15  C   UNL     1      -2.762   2.957   4.761  0.00  0.00    +0.046 C 
ENDBRANCH   1  10
BRANCH   1  21
ATOM     16  C   UNL     1       3.899   3.994   3.318  0.00  0.00    -0.058 C 
ATOM     17  C   UNL     1       4.523   5.273   3.881  0.00  0.00    +0.086 C 
ATOM     18  N   UNL     1       5.979   5.103   3.980  0.00  0.00    -0.333 N 
ATOM     19  C   UNL     1       6.316   3.971   4.855  0.00  0.00    +0.086 C 
ATOM     20  C   UNL     1       5.692   2.692   4.292  0.00  0.00    -0.058 C 
ATOM     21  N   UNL     1       4.226   2.868   4.218  0.00  0.00    +0.391 N 
ATOM     22  H   UNL     1       3.868   3.077   5.158  0.00  0.00    -0.080 HD
BRANCH  18  23
ATOM     23  C   UNL     1       6.591   6.277   4.423  0.00  0.00    +0.034 A 
ATOM     24  C   UNL     1       6.310   6.774   5.689  0.00  0.00    +0.043 A 
ATOM     25  C   UNL     1       6.921   7.934   6.125  0.00  0.00    +0.043 A 
ATOM     26  C   UNL     1       7.805   8.606   5.298  0.00  0.00    +0.020 A 
ATOM     27  C   UNL     1       8.082   8.116   4.036  0.00  0.00    +0.006 A 
ATOM     28  C   UNL     1       7.479   6.954   3.595  0.00  0.00    -0.029 A 
ATOM     29  C   UNL     1       7.782   6.422   2.219  0.00  0.00    +0.045 C 
ATOM     30 CL   UNL     1       6.575   8.554   7.710  0.00  0.00    -0.083 Cl
ENDBRANCH  18  23
ENDBRANCH   1  21
BRANCH   1  31
ATOM     31  C   UNL     1       3.883   0.511   4.698  0.00  0.00    +0.143 A 
ATOM     32  N   UNL     1       3.824   0.577   6.006  0.00  0.00    -0.115 NA
ATOM     33  N   UNL     1       4.140  -0.580   6.477  0.00  0.00    -0.023 NA
ATOM     34  N   UNL     1       4.407  -1.379   5.504  0.00  0.00    -0.044 NA
ATOM     35  N   UNL     1       4.260  -0.744   4.391  0.00  0.00    -0.228 N 
BRANCH  35  36
ATOM     36  C   UNL     1       4.465  -1.286   3.045  0.00  0.00    +0.175 C 
BRANCH  36  37
ATOM     37  C   UNL     1       5.920  -1.071   2.625  0.00  0.00    +0.183 C 
BRANCH  37  38
ATOM     38  O   UNL     1       6.120  -1.600   1.312  0.00  0.00    -0.381 OA
ATOM     39  C   UNL     1       7.454  -1.449   0.822  0.00  0.00    +0.194 C 
ENDBRANCH  37  38
ENDBRANCH  36  37
ENDBRANCH  35  36
ENDBRANCH   1  31
TORSDOF 7
