REMARK  Name = ZINC12414977
REMARK  11 active torsions:
REMARK  status: ('A' for Active; 'I' for Inactive)
REMARK    1  A    between atoms: C_1  and  C_2
REMARK    2  A    between atoms: C_5  and  C_8
REMARK    3  A    between atoms: C_10  and  C_13
REMARK    4  A    between atoms: C_14  and  C_34
REMARK    5  A    between atoms: C_16  and  C_33
REMARK    6  A    between atoms: N_17  and  C_20
REMARK    7  A    between atoms: C_20  and  C_21
REMARK    8  A    between atoms: N_23  and  C_24
REMARK    9  A    between atoms: C_26  and  C_32
REMARK   10  A    between atoms: C_29  and  O_30
REMARK   11  A    between atoms: O_30  and  C_31
REMARK                            x       y       z     vdW  Elec       q    Type
REMARK                         _______ _______ _______ _____ _____    ______ ____
ROOT
ATOM      1  C   UNL     1       3.108   9.428   1.637  0.00  0.00    +0.107 A 
ATOM      2  C   UNL     1       2.778  10.140   0.489  0.00  0.00    -0.031 A 
ATOM      3  C   UNL     1       2.733   9.468  -0.734  0.00  0.00    +0.025 A 
ATOM      4  C   UNL     1       3.014   8.142  -0.793  0.00  0.00    +0.020 A 
ATOM      5  N   UNL     1       3.330   7.441   0.323  0.00  0.00    -0.303 N 
ATOM      6  C   UNL     1       3.388   8.041   1.527  0.00  0.00    +0.265 A 
ATOM      7  O   UNL     1       3.679   7.395   2.519  0.00  0.00    -0.267 OA
ATOM      8  C   UNL     1       2.966   7.435  -2.123  0.00  0.00    +0.063 C 
ATOM      9  C   UNL     1       2.474  11.614   0.564  0.00  0.00    +0.045 C 
ENDROOT
BRANCH   1  12
ATOM     10  C   UNL     1       3.393  10.539   5.014  0.00  0.00    +0.202 A 
ATOM     11  N   UNL     1       3.466   9.544   4.107  0.00  0.00    -0.187 NA
ATOM     12  C   UNL     1       3.167  10.101   2.946  0.00  0.00    +0.264 A 
ATOM     13  O   UNL     1       2.932  11.401   3.188  0.00  0.00    -0.332 OA
ATOM     14  N   UNL     1       3.060  11.630   4.372  0.00  0.00    -0.056 NA
BRANCH  10  19
ATOM     15  C   UNL     1       4.366  10.075  10.672  0.00  0.00    +0.044 C 
ATOM     16  C   UNL     1       4.112  10.197   9.191  0.00  0.00    -0.050 A 
ATOM     17  C   UNL     1       3.767  11.422   8.650  0.00  0.00    +0.004 A 
ATOM     18  C   UNL     1       3.532  11.538   7.295  0.00  0.00    +0.012 A 
ATOM     19  C   UNL     1       3.644  10.420   6.472  0.00  0.00    +0.022 A 
ATOM     20  C   UNL     1       3.987   9.187   7.024  0.00  0.00    +0.012 A 
ATOM     21  C   UNL     1       4.225   9.083   8.379  0.00  0.00    +0.004 A 
ENDBRANCH  10  19
ENDBRANCH   1  12
BRANCH   5  22
ATOM     22  C   UNL     1       3.620   6.009   0.216  0.00  0.00    +0.221 C 
BRANCH  22  23
ATOM     23  C   UNL     1       5.108   5.806   0.085  0.00  0.00    +0.237 C 
ATOM     24  O   UNL     1       5.852   6.763   0.081  0.00  0.00    -0.274 OA
ATOM     25  N   UNL     1       5.611   4.561  -0.027  0.00  0.00    -0.281 N 
ATOM     26  H   UNL     1       5.012   3.800  -0.088  0.00  0.00    +0.155 HD
BRANCH  25  27
ATOM     27  C   UNL     1       6.998   4.365  -0.056  0.00  0.00    +0.076 A 
ATOM     28  C   UNL     1       7.820   5.302  -0.666  0.00  0.00    +0.030 A 
ATOM     29  C   UNL     1       9.187   5.106  -0.694  0.00  0.00    -0.048 A 
ATOM     30  C   UNL     1       9.741   3.982  -0.110  0.00  0.00    +0.007 A 
ATOM     31  C   UNL     1       8.928   3.041   0.495  0.00  0.00    +0.048 A 
ATOM     32  C   UNL     1       7.555   3.230   0.527  0.00  0.00    +0.141 A 
ATOM     33  C   UNL     1      10.079   6.125  -1.356  0.00  0.00    +0.044 C 
BRANCH  32  34
ATOM     34  O   UNL     1       6.755   2.308   1.127  0.00  0.00    -0.493 OA
ATOM     35  C   UNL     1       7.396   1.169   1.704  0.00  0.00    +0.277 C 
ENDBRANCH  32  34
ENDBRANCH  25  27
ENDBRANCH  22  23
ENDBRANCH   5  22
TORSDOF 6
