REMARK  Name = ZINC38984209
REMARK  6 active torsions:
REMARK  status: ('A' for Active; 'I' for Inactive)
REMARK    1  A    between atoms: C_1  and  C_2
REMARK    2  A    between atoms: C_2  and  C_3
REMARK    3  A    between atoms: C_8  and  N_9
REMARK    4  A    between atoms: N_9  and  C_10
REMARK    5  A    between atoms: N_13  and  S_14
REMARK    6  A    between atoms: S_14  and  C_17
REMARK                            x       y       z     vdW  Elec       q    Type
REMARK                         _______ _______ _______ _____ _____    ______ ____
ROOT
ATOM      1  C   UNL     1      -2.047  -0.600   3.743  0.00  0.00    +0.237 C 
ATOM      2  C   UNL     1      -3.251  -1.444   3.391  0.00  0.00    +0.192 C 
ATOM      3  N   UNL     1      -3.102  -2.595   2.805  0.00  0.00    -0.110 NA
ATOM      4  N   UNL     1      -4.477  -0.987   3.693  0.00  0.00    -0.226 NA
ATOM      5  C   UNL     1      -4.654   0.175   4.287  0.00  0.00    +0.089 A 
ATOM      6  C   UNL     1      -5.964   0.626   4.591  0.00  0.00    +0.030 A 
ATOM      7  C   UNL     1      -6.151   1.817   5.199  0.00  0.00    +0.002 A 
ATOM      8  C   UNL     1      -5.088   2.663   5.559  0.00  0.00    +0.002 A 
ATOM      9  C   UNL     1      -3.802   2.330   5.315  0.00  0.00    +0.027 A 
ATOM     10  C   UNL     1      -3.512   1.048   4.656  0.00  0.00    +0.063 A 
ATOM     11  N   UNL     1      -2.284   0.693   4.405  0.00  0.00    -0.359 N 
ATOM     12  H   UNL     1      -1.542   1.268   4.649  0.00  0.00    +0.162 HD
ENDROOT
BRANCH   3  13
ATOM     13  S   UNL     1      -4.429  -3.509   2.426  0.00  0.00    +0.103 S 
ATOM     14  O   UNL     1      -5.017  -3.903   3.659  0.00  0.00    -0.146 OA
ATOM     15  O   UNL     1      -5.149  -2.789   1.435  0.00  0.00    -0.146 OA
BRANCH  13  16
ATOM     16  C   UNL     1      -3.845  -4.981   1.654  0.00  0.00    +0.141 A 
ATOM     17  C   UNL     1      -4.036  -6.180   2.252  0.00  0.00    +0.031 A 
ATOM     18  C   UNL     1      -3.587  -7.365   1.670  0.00  0.00    +0.004 A 
ATOM     19  C   UNL     1      -2.941  -7.368   0.481  0.00  0.00    +0.031 A 
ATOM     20  C   UNL     1      -2.704  -6.147  -0.206  0.00  0.00    +0.102 A 
ATOM     21  C   UNL     1      -3.178  -4.908   0.401  0.00  0.00    +0.127 A 
ATOM     22  N   UNL     1      -2.906  -3.828  -0.333  0.00  0.00    -0.189 NA
ATOM     23  S   UNL     1      -2.141  -4.371  -1.639  0.00  0.00    +0.117 S 
ATOM     24  N   UNL     1      -2.090  -5.957  -1.374  0.00  0.00    -0.191 NA
ENDBRANCH  13  16
ENDBRANCH   3  13
BRANCH   1  25
ATOM     25  N   UNL     1      -1.307  -0.339   2.506  0.00  0.00    -0.318 N 
ATOM     26  H   UNL     1      -1.768   0.016   1.730  0.00  0.00    +0.148 HD
BRANCH  25  32
ATOM     27  C   UNL     1       0.739  -0.489   1.234  0.00  0.00    -0.027 A 
ATOM     28  C   UNL     1       2.095  -0.745   1.177  0.00  0.00    +0.005 A 
ATOM     29  C   UNL     1       2.779  -1.121   2.318  0.00  0.00    +0.000 A 
ATOM     30  C   UNL     1       2.108  -1.241   3.522  0.00  0.00    +0.002 A 
ATOM     31  C   UNL     1       0.752  -0.986   3.587  0.00  0.00    +0.023 A 
ATOM     32  C   UNL     1       0.063  -0.603   2.442  0.00  0.00    +0.032 A 
BRANCH  27  34
ATOM     33  C   UNL     1      -0.084   1.446  -0.079  0.00  0.00    +0.009 C 
ATOM     34  C   UNL     1      -0.005  -0.080  -0.011  0.00  0.00    +0.033 C 
ENDBRANCH  27  34
ENDBRANCH  25  32
ENDBRANCH   1  25
TORSDOF 5
