REMARK  Name = ZINC39688696
REMARK  11 active torsions:
REMARK  status: ('A' for Active; 'I' for Inactive)
REMARK    1  A    between atoms: C_1  and  C_2
REMARK    2  A    between atoms: C_2  and  C_3
REMARK    3  A    between atoms: C_3  and  C_4
REMARK    4  A    between atoms: C_4  and  C_5
REMARK    5  A    between atoms: C_5  and  C_7
REMARK    6  A    between atoms: C_5  and  C_8
REMARK    7  A    between atoms: C_12  and  C_21
REMARK    8  A    between atoms: N_23  and  C_24
REMARK    9  A    between atoms: C_24  and  C_26
REMARK   10  A    between atoms: C_24  and  C_27
REMARK   11  A    between atoms: C_27  and  C_28
REMARK                            x       y       z     vdW  Elec       q    Type
REMARK                         _______ _______ _______ _____ _____    ______ ____
ROOT
ATOM      1  C   UNL     1       0.555  -4.103   2.432  0.00  0.00    +0.218 C 
ATOM      2  O   UNL     1       0.253  -2.931   2.359  0.00  0.00    -0.275 OA
ATOM      3  N   UNL     1       1.219  -4.562   3.511  0.00  0.00    -0.300 N 
ATOM      4  C   UNL     1       1.585  -3.816   4.738  0.00  0.00    +0.121 C 
ATOM      5  C   UNL     1       1.359  -4.822   5.889  0.00  0.00    +0.100 C 
ATOM      6  C   UNL     1       1.470  -6.206   5.228  0.00  0.00    -0.004 C 
ATOM      7  C   UNL     1       1.743  -5.930   3.742  0.00  0.00    +0.115 C 
ATOM      8  C   UNL     1       2.623  -6.994   5.841  0.00  0.00    -0.010 C 
ATOM      9  C   UNL     1       2.676  -8.387   5.208  0.00  0.00    -0.082 C 
ATOM     10  N   UNL     1       1.405  -9.082   5.442  0.00  0.00    +0.379 N 
ATOM     11  C   UNL     1       0.313  -8.366   4.770  0.00  0.00    -0.082 C 
ATOM     12  C   UNL     1       0.160  -6.972   5.384  0.00  0.00    -0.010 C 
ATOM     13  H   UNL     1       1.464 -10.021   5.077  0.00  0.00    -0.086 HD
ATOM     14  H   UNL     1       1.220  -9.119   6.433  0.00  0.00    -0.086 HD
ENDROOT
BRANCH   5  15
ATOM     15  C   UNL     1      -0.010  -4.633   6.490  0.00  0.00    +0.218 C 
ATOM     16  O   UNL     1      -0.918  -4.208   5.808  0.00  0.00    -0.275 OA
ATOM     17  N   UNL     1      -0.225  -4.936   7.785  0.00  0.00    -0.312 N 
ATOM     18  H   UNL     1       0.517  -5.205   8.350  0.00  0.00    +0.149 HD
BRANCH  17  19
ATOM     19  C   UNL     1      -1.578  -4.857   8.341  0.00  0.00    +0.074 C 
ATOM     20  C   UNL     1      -2.332  -6.152   8.032  0.00  0.00    +0.028 C 
BRANCH  19  21
ATOM     21  C   UNL     1      -1.496  -4.664   9.857  0.00  0.00    +0.057 C 
BRANCH  21  22
ATOM     22  C   UNL     1      -0.868  -3.329  10.160  0.00  0.00    -0.045 A 
ATOM     23  C   UNL     1       0.504  -3.226  10.301  0.00  0.00    +0.006 A 
ATOM     24  C   UNL     1       1.081  -2.002  10.579  0.00  0.00    +0.038 A 
ATOM     25  C   UNL     1       0.285  -0.877  10.716  0.00  0.00    +0.123 A 
ATOM     26  C   UNL     1      -1.088  -0.981  10.574  0.00  0.00    +0.038 A 
ATOM     27  C   UNL     1      -1.663  -2.205  10.291  0.00  0.00    +0.006 A 
ATOM     28  F   UNL     1       0.849   0.320  10.987  0.00  0.00    -0.205 F 
ENDBRANCH  21  22
ENDBRANCH  19  21
ENDBRANCH  17  19
ENDBRANCH   5  15
BRANCH   1  29
ATOM     29  C   UNL     1       0.189  -5.046   1.315  0.00  0.00    +0.072 C 
ATOM     30  C   UNL     1       1.324  -5.090   0.290  0.00  0.00    +0.017 C 
BRANCH  29  31
ATOM     31  C   UNL     1      -1.093  -4.559   0.636  0.00  0.00    +0.012 C 
BRANCH  31  32
ATOM     32  C   UNL     1      -1.539  -5.586  -0.408  0.00  0.00    +0.000 C 
BRANCH  32  34
ATOM     33  C   UNL     1      -3.311  -6.166  -2.070  0.00  0.00    +0.004 C 
ATOM     34  C   UNL     1      -2.865  -5.140  -1.027  0.00  0.00    -0.003 C 
ENDBRANCH  32  34
ENDBRANCH  31  32
ENDBRANCH  29  31
ENDBRANCH   1  29
TORSDOF 8
