REMARK  Name = ZINC65258703
REMARK  5 active torsions:
REMARK  status: ('A' for Active; 'I' for Inactive)
REMARK    1  A    between atoms: C_1  and  C_2
REMARK    2  A    between atoms: C_2  and  N_3
REMARK    3  A    between atoms: N_3  and  C_4
REMARK    4  A    between atoms: N_3  and  S_11
REMARK    5  A    between atoms: S_11  and  C_14
REMARK                            x       y       z     vdW  Elec       q    Type
REMARK                         _______ _______ _______ _____ _____    ______ ____
ROOT
ATOM      1  S   UNL     1       2.322  -0.861   1.097  0.00  0.00    +0.076 S 
ATOM      2  O   UNL     1       2.586  -1.786   2.143  0.00  0.00    -0.150 OA
ATOM      3  O   UNL     1       2.594  -1.155  -0.266  0.00  0.00    -0.150 OA
ENDROOT
BRANCH   1   4
ATOM      4  C   UNL     1       3.218   0.606   1.484  0.00  0.00    +0.127 A 
ATOM      5  C   UNL     1       3.635   1.583   0.569  0.00  0.00    +0.061 A 
ATOM      6  C   UNL     1       4.290   2.540   1.289  0.00  0.00    +0.106 A 
ATOM      7  N   UNL     1       4.283   2.166   2.618  0.00  0.00    -0.341 N 
ATOM      8  C   UNL     1       3.620   0.994   2.721  0.00  0.00    +0.115 A 
ATOM      9  C   UNL     1       4.906   2.954   3.682  0.00  0.00    +0.123 C 
ATOM     10  C   UNL     1       6.434   2.873   3.564  0.00  0.00    +0.040 C 
ATOM     11  C   UNL     1       6.844   2.999   2.098  0.00  0.00    +0.106 C 
ATOM     12  N   UNL     1       6.141   4.055   1.386  0.00  0.00    -0.310 N 
ATOM     13  C   UNL     1       4.929   3.791   0.838  0.00  0.00    +0.261 C 
ATOM     14  O   UNL     1       4.404   4.534   0.030  0.00  0.00    -0.269 OA
ATOM     15  H   UNL     1       6.534   4.938   1.305  0.00  0.00    +0.149 HD
ENDBRANCH   1   4
BRANCH   1  16
ATOM     16  N   UNL     1       0.711  -0.489   1.189  0.00  0.00    -0.203 N 
BRANCH  16  17
ATOM     17  C   UNL     1       0.026  -0.639   2.399  0.00  0.00    +0.051 A 
ATOM     18  C   UNL     1       0.719  -0.579   3.601  0.00  0.00    +0.027 A 
ATOM     19  C   UNL     1       0.041  -0.726   4.796  0.00  0.00    +0.040 A 
ATOM     20  C   UNL     1      -1.328  -0.934   4.795  0.00  0.00    +0.124 A 
ATOM     21  C   UNL     1      -2.020  -0.994   3.597  0.00  0.00    +0.040 A 
ATOM     22  C   UNL     1      -1.347  -0.842   2.401  0.00  0.00    +0.027 A 
ATOM     23  F   UNL     1      -1.989  -1.078   5.964  0.00  0.00    -0.205 F 
ENDBRANCH  16  17
BRANCH  16  25
ATOM     24  C   UNL     1      -0.019   1.526   0.010  0.00  0.00    +0.026 C 
ATOM     25  C   UNL     1       0.002  -0.004   0.002  0.00  0.00    +0.128 C 
ENDBRANCH  16  25
ENDBRANCH   1  16
TORSDOF 4
