REMARK  Name = ZINC12149591
REMARK  8 active torsions:
REMARK  status: ('A' for Active; 'I' for Inactive)
REMARK    1  A    between atoms: C_1  and  C_2
REMARK    2  A    between atoms: C_4  and  C_7
REMARK    3  A    between atoms: C_7  and  C_9
REMARK    4  A    between atoms: C_7  and  N_10
REMARK    5  A    between atoms: C_21  and  N_56
REMARK    6  A    between atoms: C_25  and  C_26
REMARK    7  A    between atoms: C_25  and  N_56
REMARK    8  A    between atoms: C_26  and  C_27
REMARK                            x       y       z     vdW  Elec       q    Type
REMARK                         _______ _______ _______ _____ _____    ______ ____
ROOT
ATOM      1  N   UNL     1       1.457   5.602   1.158  0.00  0.00    -0.290 N 
ATOM      2  C   UNL     1       2.791   5.822   1.066  0.00  0.00    +0.203 A 
ATOM      3  N   UNL     1       3.642   4.905   0.661  0.00  0.00    -0.230 NA
ATOM      4  C   UNL     1       3.148   3.715   0.333  0.00  0.00    +0.116 A 
ATOM      5  C   UNL     1       1.775   3.389   0.396  0.00  0.00    +0.076 A 
ATOM      6  C   UNL     1       0.880   4.418   0.843  0.00  0.00    +0.263 A 
ATOM      7  O   UNL     1      -0.322   4.239   0.933  0.00  0.00    -0.267 OA
ATOM      8  C   UNL     1       1.419   2.038  -0.001  0.00  0.00    -0.023 A 
ATOM      9  C   UNL     1       2.434   1.232  -0.389  0.00  0.00    -0.006 A 
ATOM     10  S   UNL     1       3.898   2.226  -0.246  0.00  0.00    -0.073 S 
ATOM     11  C   UNL     1       2.339  -0.192  -0.842  0.00  0.00    +0.027 C 
ATOM     12  C   UNL     1       0.869  -0.506  -1.156  0.00  0.00    -0.067 C 
ATOM     13  C   UNL     1       0.002  -0.004   0.002  0.00  0.00    -0.011 C 
ATOM     14  C   UNL     1      -0.019   1.525   0.010  0.00  0.00    +0.035 C 
ENDROOT
BRANCH  12  15
ATOM     15  N   UNL     1       0.693  -1.963  -1.301  0.00  0.00    +0.381 N 
ATOM     16  H   UNL     1      -0.277  -2.211  -1.077  0.00  0.00    -0.086 HD
ATOM     17  H   UNL     1       1.328  -2.447  -0.655  0.00  0.00    -0.086 HD
BRANCH  15  18
ATOM     18  C   UNL     1       0.995  -2.381  -2.684  0.00  0.00    -0.077 C 
BRANCH  18  19
ATOM     19  C   UNL     1       0.804  -3.894  -2.803  0.00  0.00    +0.017 C 
BRANCH  19  20
ATOM     20  C   UNL     1       1.111  -4.329  -4.213  0.00  0.00    -0.031 A 
ATOM     21  C   UNL     1       2.338  -4.891  -4.512  0.00  0.00    +0.005 A 
ATOM     22  C   UNL     1       2.619  -5.289  -5.806  0.00  0.00    +0.000 A 
ATOM     23  C   UNL     1       1.673  -5.127  -6.801  0.00  0.00    +0.001 A 
ATOM     24  C   UNL     1       0.446  -4.566  -6.503  0.00  0.00    +0.020 A 
ATOM     25  C   UNL     1       0.162  -4.171  -5.207  0.00  0.00    +0.044 A 
ATOM     26 CL   UNL     1      -1.382  -3.472  -4.831  0.00  0.00    -0.083 Cl
ENDBRANCH  19  20
ENDBRANCH  18  19
ENDBRANCH  15  18
ENDBRANCH  12  15
BRANCH   1  27
ATOM     27  C   UNL     1       0.600   6.696   1.621  0.00  0.00    +0.137 C 
ATOM     28  C   UNL     1       1.025   7.116   3.030  0.00  0.00    +0.038 C 
BRANCH  27  32
ATOM     29  C   UNL     1       3.106   9.403  -1.758  0.00  0.00    +0.073 C 
ATOM     30  C   UNL     1       1.948   9.053  -0.858  0.00  0.00    +0.076 A 
ATOM     31  N   UNL     1       1.820   8.035  -0.038  0.00  0.00    -0.247 NA
ATOM     32  C   UNL     1       0.732   7.869   0.685  0.00  0.00    +0.071 A 
ATOM     33  C   UNL     1      -0.269   8.778   0.564  0.00  0.00    +0.072 A 
ATOM     34  S   UNL     1       0.443   9.890  -0.641  0.00  0.00    -0.080 S 
ENDBRANCH  27  32
ENDBRANCH   1  27
TORSDOF 6
