REMARK  Name = ZINC09645046
REMARK  8 active torsions:
REMARK  status: ('A' for Active; 'I' for Inactive)
REMARK    1  A    between atoms: C_1  and  C_2
REMARK    2  A    between atoms: C_2  and  C_3
REMARK    3  A    between atoms: C_2  and  C_4
REMARK    4  A    between atoms: C_2  and  C_5
REMARK    5  A    between atoms: C_7  and  N_10
REMARK    6  A    between atoms: C_11  and  C_13
REMARK    7  A    between atoms: C_13  and  S_14
REMARK    8  A    between atoms: S_14  and  C_15
REMARK                            x       y       z     vdW  Elec       q    Type
REMARK                         _______ _______ _______ _____ _____    ______ ____
ROOT
ATOM      1  N   UNL     1      -0.011   0.966   0.007  0.00  0.00    -0.254 N 
ATOM      2  C   UNL     1      -1.187   1.624   0.017  0.00  0.00    +0.230 C 
ATOM      3  O   UNL     1      -1.204   2.836   0.023  0.00  0.00    -0.274 OA
ATOM      4  H   UNL     1       0.002  -0.004   0.002  0.00  0.00    +0.158 HD
ENDROOT
BRANCH   1   7
ATOM      5  C   UNL     1       3.277   2.293  -0.017  0.00  0.00    +0.091 A 
ATOM      6  C   UNL     1       2.443   1.157  -0.015  0.00  0.00    +0.092 A 
ATOM      7  C   UNL     1       1.181   1.676  -0.000  0.00  0.00    +0.224 A 
ATOM      8  O   UNL     1       1.323   3.011  -0.000  0.00  0.00    -0.339 OA
ATOM      9  N   UNL     1       2.489   3.331  -0.004  0.00  0.00    -0.081 NA
BRANCH   5  11
ATOM     10  C   UNL     1       5.283   1.944  -1.432  0.00  0.00    +0.017 C 
ATOM     11  C   UNL     1       4.784   2.306  -0.032  0.00  0.00    +0.008 C 
ATOM     12  C   UNL     1       5.286   3.701   0.345  0.00  0.00    +0.017 C 
ATOM     13  C   UNL     1       5.312   1.284   0.978  0.00  0.00    +0.017 C 
ENDBRANCH   5  11
ENDBRANCH   1   7
BRANCH   2  14
ATOM     14  C   UNL     1      -2.482   0.853   0.018  0.00  0.00    +0.172 C 
BRANCH  14  15
ATOM     15  S   UNL     1      -3.874   2.010   0.031  0.00  0.00    -0.096 S 
BRANCH  15  16
ATOM     16  C   UNL     1      -5.218   0.872   0.032  0.00  0.00    +0.109 A 
ATOM     17  C   UNL     1      -6.561   1.343   0.041  0.00  0.00    +0.040 A 
ATOM     18  C   UNL     1      -7.068   2.704   0.051  0.00  0.00    +0.020 A 
ATOM     19  C   UNL     1      -8.393   2.909   0.059  0.00  0.00    +0.048 A 
ATOM     20  S   UNL     1      -9.070   1.259   0.052  0.00  0.00    -0.077 S 
ATOM     21  C   UNL     1      -7.554   0.339   0.040  0.00  0.00    +0.112 A 
ATOM     22  N   UNL     1      -7.238  -0.941   0.031  0.00  0.00    -0.228 NA
ATOM     23  C   UNL     1      -5.974  -1.317   0.023  0.00  0.00    +0.223 A 
ATOM     24  N   UNL     1      -4.992  -0.433   0.018  0.00  0.00    -0.229 NA
ENDBRANCH  15  16
ENDBRANCH  14  15
ENDBRANCH   2  14
TORSDOF 5
