REMARK  Name = ZINC01228691
REMARK  7 active torsions:
REMARK  status: ('A' for Active; 'I' for Inactive)
REMARK    1  A    between atoms: C_3  and  N_20
REMARK    2  A    between atoms: C_6  and  C_7
REMARK    3  A    between atoms: C_7  and  C_9
REMARK    4  A    between atoms: C_7  and  O_19
REMARK    5  A    between atoms: C_9  and  C_11
REMARK    6  A    between atoms: C_11  and  C_13
REMARK    7  A    between atoms: C_11  and  O_17
REMARK                            x       y       z     vdW  Elec       q    Type
REMARK                         _______ _______ _______ _____ _____    ______ ____
ROOT
ATOM      1  C   UNL     1       2.457   0.982  -0.026  0.00  0.00    +0.161 C 
ENDROOT
BRANCH   1   7
ATOM      2  C   UNL     1      -0.046   0.961  -0.034  0.00  0.00    +0.008 A 
ATOM      3  C   UNL     1      -1.265   1.612  -0.027  0.00  0.00    +0.033 A 
ATOM      4  C   UNL     1      -1.311   2.993   0.013  0.00  0.00    +0.126 A 
ATOM      5  C   UNL     1      -0.138   3.723   0.035  0.00  0.00    +0.033 A 
ATOM      6  C   UNL     1       1.082   3.072   0.023  0.00  0.00    +0.008 A 
ATOM      7  C   UNL     1       1.128   1.691  -0.012  0.00  0.00    -0.018 A 
BRANCH   4   8
ATOM      8  N   UNL     1      -2.617   3.690   0.027  0.00  0.00    +0.056 N 
ATOM      9  O   UNL     1      -2.657   4.907   0.058  0.00  0.00    -0.126 OA
ATOM     10  O   UNL     1      -3.651   3.046   0.008  0.00  0.00    -0.126 OA
ENDBRANCH   4   8
ENDBRANCH   1   7
BRANCH   1  11
ATOM     11  C   UNL     1       3.029   0.998  -1.445  0.00  0.00    +0.122 C 
ATOM     12 BR   UNL     1       3.273   2.859  -2.031  0.00  0.00    -0.082 Br
BRANCH  11  13
ATOM     13  C   UNL     1       4.379   0.278  -1.459  0.00  0.00    +0.181 C 
BRANCH  13  14
ATOM     14  C   UNL     1       4.872   0.146  -2.902  0.00  0.00    +0.217 C 
ATOM     15 CL   UNL     1       5.233   1.784  -3.565  0.00  0.00    -0.081 Cl
ATOM     16 CL   UNL     1       6.368  -0.859  -2.936  0.00  0.00    -0.081 Cl
ATOM     17 CL   UNL     1       3.595  -0.640  -3.903  0.00  0.00    -0.081 Cl
ENDBRANCH  13  14
BRANCH  13  18
ATOM     18  O   UNL     1       4.231  -1.023  -0.886  0.00  0.00    -0.386 OA
ATOM     19  H   UNL     1       3.601  -1.589  -1.352  0.00  0.00    +0.210 HD
ENDBRANCH  13  18
ENDBRANCH  11  13
ENDBRANCH   1  11
BRANCH   1  20
ATOM     20  O   UNL     1       3.361   1.645   0.860  0.00  0.00    -0.386 OA
ATOM     21  H   UNL     1       3.529   2.570   0.631  0.00  0.00    +0.210 HD
ENDBRANCH   1  20
TORSDOF 7
