REMARK  Name = ZINC39688585
REMARK  7 active torsions:
REMARK  status: ('A' for Active; 'I' for Inactive)
REMARK    1  A    between atoms: C_1  and  C_2
REMARK    2  A    between atoms: C_6  and  C_9
REMARK    3  A    between atoms: C_13  and  C_22
REMARK    4  A    between atoms: N_24  and  C_25
REMARK    5  A    between atoms: C_25  and  C_27
REMARK    6  A    between atoms: C_25  and  C_28
REMARK    7  A    between atoms: C_28  and  C_29
REMARK                            x       y       z     vdW  Elec       q    Type
REMARK                         _______ _______ _______ _____ _____    ______ ____
ROOT
ATOM      1  C   UNL     1      -0.227  -2.417   2.137  0.00  0.00    +0.252 C 
ATOM      2  O   UNL     1       0.910  -2.566   2.543  0.00  0.00    -0.270 OA
ATOM      3  N   UNL     1      -1.262  -2.927   2.833  0.00  0.00    -0.296 N 
ATOM      4  C   UNL     1      -2.704  -2.855   2.498  0.00  0.00    +0.121 C 
ATOM      5  C   UNL     1      -3.264  -4.243   2.883  0.00  0.00    +0.100 C 
ATOM      6  C   UNL     1      -2.284  -4.781   3.940  0.00  0.00    -0.004 C 
ATOM      7  C   UNL     1      -1.216  -3.690   4.103  0.00  0.00    +0.115 C 
ATOM      8  C   UNL     1      -3.009  -5.014   5.262  0.00  0.00    -0.010 C 
ATOM      9  C   UNL     1      -2.028  -5.604   6.279  0.00  0.00    -0.082 C 
ATOM     10  N   UNL     1      -1.488  -6.869   5.765  0.00  0.00    +0.379 N 
ATOM     11  C   UNL     1      -0.714  -6.622   4.542  0.00  0.00    -0.082 C 
ATOM     12  C   UNL     1      -1.639  -6.075   3.452  0.00  0.00    -0.010 C 
ATOM     13  H   UNL     1      -0.889  -7.285   6.462  0.00  0.00    -0.086 HD
ATOM     14  H   UNL     1      -2.248  -7.498   5.558  0.00  0.00    -0.086 HD
ENDROOT
BRANCH   1  20
ATOM     15  C   UNL     1      -1.128   1.877  -0.246  0.00  0.00    +0.047 C 
ATOM     16  C   UNL     1      -0.907   0.386  -0.271  0.00  0.00    -0.014 A 
ATOM     17  C   UNL     1      -0.933  -0.295  -1.475  0.00  0.00    +0.009 A 
ATOM     18  C   UNL     1      -0.731  -1.662  -1.510  0.00  0.00    +0.039 A 
ATOM     19  C   UNL     1      -0.501  -2.361  -0.339  0.00  0.00    +0.138 A 
ATOM     20  C   UNL     1      -0.472  -1.680   0.883  0.00  0.00    +0.107 A 
ATOM     21  C   UNL     1      -0.671  -0.295   0.908  0.00  0.00    +0.141 A 
ATOM     22  F   UNL     1      -0.640   0.372   2.082  0.00  0.00    -0.204 F 
ATOM     23  F   UNL     1      -0.304  -3.697  -0.375  0.00  0.00    -0.205 F 
ENDBRANCH   1  20
BRANCH   5  24
ATOM     24  C   UNL     1      -3.292  -5.150   1.680  0.00  0.00    +0.218 C 
ATOM     25  O   UNL     1      -2.422  -5.067   0.838  0.00  0.00    -0.275 OA
ATOM     26  N   UNL     1      -4.283  -6.052   1.539  0.00  0.00    -0.312 N 
ATOM     27  H   UNL     1      -4.978  -6.118   2.212  0.00  0.00    +0.149 HD
BRANCH  26  28
ATOM     28  C   UNL     1      -4.310  -6.934   0.369  0.00  0.00    +0.074 C 
ATOM     29  C   UNL     1      -4.997  -6.216  -0.794  0.00  0.00    +0.028 C 
BRANCH  28  30
ATOM     30  C   UNL     1      -5.083  -8.209   0.709  0.00  0.00    +0.057 C 
BRANCH  30  31
ATOM     31  C   UNL     1      -4.341  -8.979   1.771  0.00  0.00    -0.045 A 
ATOM     32  C   UNL     1      -3.395  -9.919   1.409  0.00  0.00    +0.006 A 
ATOM     33  C   UNL     1      -2.713 -10.625   2.382  0.00  0.00    +0.038 A 
ATOM     34  C   UNL     1      -2.978 -10.390   3.720  0.00  0.00    +0.123 A 
ATOM     35  C   UNL     1      -3.926  -9.448   4.082  0.00  0.00    +0.038 A 
ATOM     36  C   UNL     1      -4.603  -8.739   3.108  0.00  0.00    +0.006 A 
ATOM     37  F   UNL     1      -2.312 -11.080   4.672  0.00  0.00    -0.205 F 
ENDBRANCH  30  31
ENDBRANCH  28  30
ENDBRANCH  26  28
ENDBRANCH   5  24
TORSDOF 5
