REMARK  Name = ZINC64446965
REMARK  5 active torsions:
REMARK  status: ('A' for Active; 'I' for Inactive)
REMARK    1  A    between atoms: C_2  and  C_23
REMARK    2  A    between atoms: C_3  and  N_22
REMARK    3  A    between atoms: C_6  and  C_8
REMARK    4  A    between atoms: C_8  and  N_9
REMARK    5  A    between atoms: C_10  and  C_12
REMARK                            x       y       z     vdW  Elec       q    Type
REMARK                         _______ _______ _______ _____ _____    ______ ____
ROOT
ATOM      1  N   UNL     1       1.396  -4.138  -0.034  0.00  0.00    -0.306 N 
ATOM      2  C   UNL     1       0.680  -5.280  -0.034  0.00  0.00    +0.220 C 
ATOM      3  O   UNL     1      -0.532  -5.235  -0.021  0.00  0.00    -0.275 OA
ATOM      4  H   UNL     1       2.366  -4.173  -0.044  0.00  0.00    +0.149 HD
ENDROOT
BRANCH   2   5
ATOM      5  C   UNL     1       1.385  -6.611  -0.048  0.00  0.00    +0.048 C 
ATOM      6  C   UNL     1       2.249  -6.718  -1.306  0.00  0.00    +0.019 C 
ATOM      7  C   UNL     1       2.965  -8.070  -1.321  0.00  0.00    -0.009 C 
ATOM      8  C   UNL     1       1.929  -9.195  -1.317  0.00  0.00    +0.007 C 
ATOM      9  C   UNL     1       1.065  -9.089  -0.059  0.00  0.00    -0.009 C 
ATOM     10  C   UNL     1       0.349  -7.737  -0.044  0.00  0.00    +0.019 C 
ATOM     11  C   UNL     1       1.954  -9.209   1.181  0.00  0.00    +0.007 C 
ATOM     12  C   UNL     1       2.990  -8.084   1.177  0.00  0.00    -0.009 C 
ATOM     13  C   UNL     1       3.853  -8.190  -0.081  0.00  0.00    +0.007 C 
ATOM     14  C   UNL     1       2.274  -6.731   1.192  0.00  0.00    +0.019 C 
ENDBRANCH   2   5
BRANCH   1  15
ATOM     15  C   UNL     1       0.711  -2.843  -0.020  0.00  0.00    +0.205 C 
BRANCH  15  21
ATOM     16  C   UNL     1      -0.016   1.298   0.009  0.00  0.00    +0.155 A 
ATOM     17  C   UNL     1       1.321   1.765  -0.001  0.00  0.00    +0.111 A 
ATOM     18  C   UNL     1       2.145   0.645  -0.015  0.00  0.00    +0.140 A 
ATOM     19  N   UNL     1       1.329  -0.448  -0.013  0.00  0.00    -0.184 N 
ATOM     20  N   UNL     1       0.002  -0.004   0.002  0.00  0.00    -0.169 NA
ATOM     21  C   UNL     1       1.731  -1.734  -0.024  0.00  0.00    +0.266 C 
ATOM     22  O   UNL     1       2.910  -1.998  -0.037  0.00  0.00    -0.269 OA
BRANCH  18  23
ATOM     23  N   UNL     1       3.523   0.640  -0.029  0.00  0.00    -0.342 N 
ATOM     24  H   UNL     1       4.011   1.479  -0.029  0.00  0.00    +0.144 HD
ATOM     25  H   UNL     1       4.005  -0.202  -0.038  0.00  0.00    +0.144 HD
ENDBRANCH  18  23
BRANCH  17  26
ATOM     26  C   UNL     1       1.744   3.133   0.002  0.00  0.00    +0.104 C 
ATOM     27  N   UNL     1       2.080   4.218   0.004  0.00  0.00    -0.191 NA
ENDBRANCH  17  26
ENDBRANCH  15  21
ENDBRANCH   1  15
TORSDOF 5
