REMARK  Name = ZINC65818358
REMARK  4 active torsions:
REMARK  status: ('A' for Active; 'I' for Inactive)
REMARK    1  A    between atoms: C_6  and  C_7
REMARK    2  A    between atoms: C_7  and  C_8
REMARK    3  A    between atoms: C_7  and  N_11
REMARK    4  A    between atoms: N_14  and  C_15
REMARK                            x       y       z     vdW  Elec       q    Type
REMARK                         _______ _______ _______ _____ _____    ______ ____
ROOT
ATOM      1  N   UNL     1      -2.367  -0.091  -0.732  0.00  0.00    -0.292 N 
ATOM      2  C   UNL     1      -3.380  -0.783  -1.290  0.00  0.00    +0.304 C 
ATOM      3  O   UNL     1      -3.594  -1.930  -0.947  0.00  0.00    -0.252 OA
ATOM      4  N   UNL     1      -4.155  -0.205  -2.229  0.00  0.00    -0.269 N 
ATOM      5  H   UNL     1      -2.196   0.824  -1.006  0.00  0.00    +0.151 HD
ATOM      6  H   UNL     1      -4.035   0.732  -2.447  0.00  0.00    +0.156 HD
ENDROOT
BRANCH   4   7
ATOM      7  C   UNL     1      -5.130  -0.954  -2.886  0.00  0.00    +0.036 A 
ATOM      8  C   UNL     1      -4.910  -2.302  -3.145  0.00  0.00    +0.024 A 
ATOM      9  C   UNL     1      -5.870  -3.055  -3.795  0.00  0.00    +0.015 A 
ATOM     10  C   UNL     1      -7.061  -2.463  -4.192  0.00  0.00    +0.049 A 
ATOM     11  C   UNL     1      -7.288  -1.095  -3.930  0.00  0.00    +0.051 A 
ATOM     12  C   UNL     1      -6.325  -0.349  -3.275  0.00  0.00    +0.037 A 
ATOM     13  C   UNL     1      -8.629  -0.797  -4.477  0.00  0.00    +0.251 C 
ATOM     14  O   UNL     1      -9.184   0.283  -4.447  0.00  0.00    -0.270 OA
ATOM     15  N   UNL     1      -9.132  -1.924  -5.014  0.00  0.00    -0.248 N 
ATOM     16  C   UNL     1      -8.269  -2.948  -4.886  0.00  0.00    +0.251 C 
ATOM     17  O   UNL     1      -8.454  -4.083  -5.278  0.00  0.00    -0.270 OA
ATOM     18  H   UNL     1     -10.002  -1.989  -5.438  0.00  0.00    +0.158 HD
ENDBRANCH   4   7
BRANCH   1  19
ATOM     19  C   UNL     1      -1.524  -0.719   0.288  0.00  0.00    +0.108 C 
BRANCH  19  25
ATOM     20  C   UNL     1      -0.083   1.323   0.165  0.00  0.00    +0.009 A 
ATOM     21  C   UNL     1       1.153   1.941   0.181  0.00  0.00    +0.050 A 
ATOM     22  C   UNL     1       2.305   1.186   0.339  0.00  0.00    +0.162 A 
ATOM     23  C   UNL     1       2.213  -0.193   0.485  0.00  0.00    +0.162 A 
ATOM     24  C   UNL     1       0.970  -0.807   0.467  0.00  0.00    +0.055 A 
ATOM     25  C   UNL     1      -0.175  -0.049   0.307  0.00  0.00    -0.023 A 
ATOM     26  O   UNL     1       3.331  -0.952   0.649  0.00  0.00    -0.485 OA
ATOM     27  C   UNL     1       4.578  -0.348   0.289  0.00  0.00    +0.270 C 
ATOM     28  C   UNL     1       4.616   1.066   0.885  0.00  0.00    +0.270 C 
ATOM     29  O   UNL     1       3.516   1.808   0.348  0.00  0.00    -0.485 OA
ENDBRANCH  19  25
BRANCH  19  30
ATOM     30  C   UNL     1      -2.187  -0.571   1.659  0.00  0.00    +0.014 C 
ATOM     31  C   UNL     1      -2.354  -1.836   2.503  0.00  0.00    +0.006 C 
ATOM     32  C   UNL     1      -3.574  -1.189   1.844  0.00  0.00    +0.006 C 
ENDBRANCH  19  30
ENDBRANCH   1  19
TORSDOF 4
