REMARK  Name = ZINC55305520
REMARK  9 active torsions:
REMARK  status: ('A' for Active; 'I' for Inactive)
REMARK    1  A    between atoms: C_1  and  C_2
REMARK    2  A    between atoms: C_2  and  C_4
REMARK    3  A    between atoms: C_2  and  N_26
REMARK    4  A    between atoms: N_6  and  C_7
REMARK    5  A    between atoms: C_10  and  N_13
REMARK    6  A    between atoms: C_14  and  C_16
REMARK    7  A    between atoms: C_16  and  C_17
REMARK    8  A    between atoms: C_16  and  C_18
REMARK    9  A    between atoms: C_16  and  C_19
REMARK                            x       y       z     vdW  Elec       q    Type
REMARK                         _______ _______ _______ _____ _____    ______ ____
ROOT
ATOM      1  C   UNL     1       2.564  -0.560  -2.671  0.00  0.00    +0.034 A 
ATOM      2  C   UNL     1       1.817  -1.276  -3.597  0.00  0.00    +0.025 A 
ATOM      3  C   UNL     1       2.390  -1.673  -4.788  0.00  0.00    +0.025 A 
ATOM      4  C   UNL     1       3.715  -1.357  -5.060  0.00  0.00    +0.034 A 
ATOM      5  C   UNL     1       4.463  -0.641  -4.134  0.00  0.00    +0.025 A 
ATOM      6  C   UNL     1       3.887  -0.239  -2.945  0.00  0.00    +0.025 A 
ENDROOT
BRANCH   1   9
ATOM      7  C   UNL     1       2.325   1.023  -0.910  0.00  0.00    +0.242 C 
ATOM      8  O   UNL     1       3.194   1.700  -1.416  0.00  0.00    -0.273 OA
ATOM      9  N   UNL     1       1.982  -0.158  -1.462  0.00  0.00    -0.284 N 
ATOM     10  H   UNL     1       1.333  -0.729  -1.022  0.00  0.00    +0.155 HD
BRANCH   7  12
ATOM     11  C   UNL     1       1.844   0.491   1.464  0.00  0.00    +0.042 C 
ATOM     12  C   UNL     1       1.627   1.502   0.337  0.00  0.00    +0.191 C 
BRANCH  12  13
ATOM     13  N   UNL     1       2.175   2.802   0.735  0.00  0.00    -0.240 N 
ATOM     14  C   UNL     1       3.274   3.019   1.478  0.00  0.00    +0.219 A 
ATOM     15  N   UNL     1       3.426   4.312   1.609  0.00  0.00    -0.223 NA
ATOM     16  C   UNL     1       2.448   4.949   0.966  0.00  0.00    +0.245 A 
ATOM     17  N   UNL     1       1.660   4.067   0.410  0.00  0.00    -0.158 NA
ENDBRANCH  12  13
ENDBRANCH   7  12
ENDBRANCH   1   9
BRANCH   4  18
ATOM     18  N   UNL     1       4.297  -1.760  -6.269  0.00  0.00    -0.285 N 
ATOM     19  C   UNL     1       5.595  -2.119  -6.305  0.00  0.00    +0.227 C 
ATOM     20  O   UNL     1       6.280  -2.018  -5.309  0.00  0.00    -0.275 OA
ATOM     21  H   UNL     1       3.766  -1.780  -7.080  0.00  0.00    +0.155 HD
BRANCH  19  22
ATOM     22  C   UNL     1       6.196  -2.648  -7.582  0.00  0.00    +0.066 C 
ATOM     23  C   UNL     1       5.376  -3.843  -8.074  0.00  0.00    +0.025 C 
ATOM     24  C   UNL     1       6.184  -1.548  -8.645  0.00  0.00    +0.025 C 
BRANCH  22  25
ATOM     25  C   UNL     1       7.616  -3.084  -7.326  0.00  0.00    -0.033 A 
ATOM     26  C   UNL     1       8.010  -4.372  -7.638  0.00  0.00    +0.006 A 
ATOM     27  C   UNL     1       9.312  -4.772  -7.404  0.00  0.00    +0.020 A 
ATOM     28  C   UNL     1      10.221  -3.884  -6.858  0.00  0.00    +0.041 A 
ATOM     29  C   UNL     1       9.826  -2.595  -6.545  0.00  0.00    +0.020 A 
ATOM     30  C   UNL     1       8.525  -2.195  -6.785  0.00  0.00    +0.006 A 
ATOM     31 CL   UNL     1      11.856  -4.386  -6.563  0.00  0.00    -0.084 Cl
ENDBRANCH  22  25
ENDBRANCH  19  22
ENDBRANCH   4  18
TORSDOF 6
