REMARK  Name = ZINC39628609
REMARK  8 active torsions:
REMARK  status: ('A' for Active; 'I' for Inactive)
REMARK    1  A    between atoms: C_1  and  C_2
REMARK    2  A    between atoms: N_8  and  C_9
REMARK    3  A    between atoms: C_9  and  C_10
REMARK    4  A    between atoms: C_10  and  C_11
REMARK    5  A    between atoms: C_11  and  N_12
REMARK    6  A    between atoms: C_13  and  C_15
REMARK    7  A    between atoms: C_26  and  C_28
REMARK    8  A    between atoms: C_31  and  C_33
REMARK                            x       y       z     vdW  Elec       q    Type
REMARK                         _______ _______ _______ _____ _____    ______ ____
ROOT
ATOM      1  C   UNL     1       1.377  -0.187   8.511  0.00  0.00    +0.100 C 
ATOM      2  C   UNL     1       1.286  -1.713   8.739  0.00  0.00    +0.121 C 
ATOM      3  N   UNL     1       1.229  -1.868  10.212  0.00  0.00    -0.294 N 
ATOM      4  C   UNL     1       0.364  -0.754  10.667  0.00  0.00    +0.115 C 
ATOM      5  C   UNL     1       0.769   0.439   9.777  0.00  0.00    -0.004 C 
ATOM      6  C   UNL     1      -0.458   1.271   9.419  0.00  0.00    -0.010 C 
ATOM      7  C   UNL     1      -1.010   1.930  10.687  0.00  0.00    -0.082 C 
ATOM      8  N   UNL     1       0.024   2.780  11.288  0.00  0.00    +0.379 N 
ATOM      9  C   UNL     1       1.163   1.958  11.714  0.00  0.00    -0.082 C 
ATOM     10  C   UNL     1       1.807   1.300  10.490  0.00  0.00    -0.010 C 
ATOM     11  C   UNL     1       1.829  -2.809  10.967  0.00  0.00    +0.282 C 
ATOM     12  O   UNL     1       1.685  -2.803  12.176  0.00  0.00    -0.267 OA
ATOM     13  H   UNL     1       0.336   3.459  10.609  0.00  0.00    -0.086 HD
ATOM     14  H   UNL     1      -0.360   3.261  12.088  0.00  0.00    -0.086 HD
ENDROOT
BRANCH  11  15
ATOM     15  C   UNL     1       2.656  -3.840  10.334  0.00  0.00    +0.190 A 
ATOM     16  C   UNL     1       3.318  -4.858  10.983  0.00  0.00    +0.055 A 
ATOM     17  C   UNL     1       3.978  -5.602  10.000  0.00  0.00    +0.050 A 
ATOM     18  C   UNL     1       3.699  -5.017   8.799  0.00  0.00    +0.136 A 
ATOM     19  O   UNL     1       2.897  -3.960   9.011  0.00  0.00    -0.450 OA
BRANCH  18  20
ATOM     20  C   UNL     1       4.191  -5.473   7.484  0.00  0.00    +0.017 A 
ATOM     21  C   UNL     1       5.014  -6.599   7.395  0.00  0.00    +0.014 A 
ATOM     22  C   UNL     1       5.470  -7.021   6.165  0.00  0.00    +0.039 A 
ATOM     23  C   UNL     1       5.114  -6.330   5.016  0.00  0.00    +0.123 A 
ATOM     24  C   UNL     1       4.298  -5.213   5.098  0.00  0.00    +0.039 A 
ATOM     25  C   UNL     1       3.831  -4.785   6.323  0.00  0.00    +0.014 A 
ATOM     26  F   UNL     1       5.564  -6.748   3.813  0.00  0.00    -0.205 F 
ENDBRANCH  18  20
ENDBRANCH  11  15
BRANCH   1  28
ATOM     27  N   UNL     1       0.938   1.292   6.577  0.00  0.00    -0.315 N 
ATOM     28  C   UNL     1       0.579   0.209   7.295  0.00  0.00    +0.218 C 
ATOM     29  O   UNL     1      -0.386  -0.446   6.963  0.00  0.00    -0.275 OA
ATOM     30  H   UNL     1       1.710   1.816   6.843  0.00  0.00    +0.149 HD
BRANCH  27  31
ATOM     31  C   UNL     1       0.162   1.677   5.396  0.00  0.00    +0.102 C 
BRANCH  31  32
ATOM     32  C   UNL     1       0.777   2.931   4.769  0.00  0.00    +0.000 C 
BRANCH  32  33
ATOM     33  C   UNL     1      -0.033   3.333   3.535  0.00  0.00    -0.077 C 
BRANCH  33  40
ATOM     34  C   UNL     1      -1.710   5.237   2.331  0.00  0.00    -0.013 C 
ATOM     35  C   UNL     1      -0.288   4.991   1.822  0.00  0.00    -0.072 C 
ATOM     36  C   UNL     1       0.278   6.290   1.244  0.00  0.00    -0.016 C 
ATOM     37  C   UNL     1       1.701   6.038   0.736  0.00  0.00    -0.003 C 
ATOM     38  C   UNL     1       2.554   5.493   1.885  0.00  0.00    -0.019 C 
ATOM     39  C   UNL     1       1.903   4.224   2.439  0.00  0.00    -0.078 C 
ATOM     40  N   UNL     1       0.557   4.537   2.933  0.00  0.00    +0.381 N 
ATOM     41  H   UNL     1       0.615   5.264   3.629  0.00  0.00    -0.081 HD
ENDBRANCH  33  40
ENDBRANCH  32  33
ENDBRANCH  31  32
ENDBRANCH  27  31
ENDBRANCH   1  28
TORSDOF 7
