REMARK  Name = ZINC14546510
REMARK  6 active torsions:
REMARK  status: ('A' for Active; 'I' for Inactive)
REMARK    1  A    between atoms: C_4  and  C_7
REMARK    2  A    between atoms: C_7  and  C_8
REMARK    3  A    between atoms: C_8  and  N_9
REMARK    4  A    between atoms: N_9  and  S_10
REMARK    5  A    between atoms: S_10  and  C_13
REMARK    6  A    between atoms: C_26  and  C_29
REMARK                            x       y       z     vdW  Elec       q    Type
REMARK                         _______ _______ _______ _____ _____    ______ ____
ROOT
ATOM      1  C   UNL     1      -5.092   5.955   0.320  0.00  0.00    +0.106 A 
ATOM      2  C   UNL     1      -5.135   5.580  -1.011  0.00  0.00    +0.030 A 
ATOM      3  C   UNL     1      -4.602   4.366  -1.397  0.00  0.00    +0.025 A 
ATOM      4  C   UNL     1      -4.028   3.526  -0.451  0.00  0.00    +0.031 A 
ATOM      5  C   UNL     1      -3.983   3.898   0.884  0.00  0.00    -0.018 A 
ATOM      6  C   UNL     1      -4.521   5.122   1.260  0.00  0.00    +0.034 A 
ATOM      7  C   UNL     1      -3.378   3.026   1.938  0.00  0.00    +0.049 C 
ATOM      8  C   UNL     1      -2.028   3.544   2.374  0.00  0.00    -0.023 C 
ATOM      9  C   UNL     1      -1.219   2.544   2.628  0.00  0.00    -0.030 C 
ATOM     10  C   UNL     1      -1.923   1.220   2.401  0.00  0.00    +0.033 C 
ATOM     11  C   UNL     1      -3.093   1.594   1.444  0.00  0.00    +0.029 C 
ATOM     12  C   UNL     1      -2.524   1.637   0.023  0.00  0.00    +0.108 C 
ATOM     13  N   UNL     1      -3.491   2.300  -0.857  0.00  0.00    -0.336 N 
ATOM     14  H   UNL     1      -3.753   1.898  -1.700  0.00  0.00    +0.147 HD
ENDROOT
BRANCH  12  15
ATOM     15  C   UNL     1      -1.229   2.407   0.021  0.00  0.00    +0.010 A 
ATOM     16  C   UNL     1      -0.065   1.807   0.468  0.00  0.00    +0.047 A 
ATOM     17  C   UNL     1       1.122   2.516   0.471  0.00  0.00    +0.020 A 
ATOM     18  C   UNL     1       1.147   3.824   0.023  0.00  0.00    +0.003 A 
ATOM     19  C   UNL     1      -0.014   4.423  -0.428  0.00  0.00    +0.020 A 
ATOM     20  C   UNL     1      -1.202   3.714  -0.432  0.00  0.00    +0.047 A 
ATOM     21 CL   UNL     1      -2.660   4.466  -0.999  0.00  0.00    -0.083 Cl
ATOM     22 CL   UNL     1      -0.097   0.165   1.031  0.00  0.00    -0.083 Cl
ENDBRANCH  12  15
BRANCH   1  23
ATOM     23  S   UNL     1      -5.769   7.504   0.816  0.00  0.00    +0.058 S 
ATOM     24  O   UNL     1      -5.117   7.862   2.027  0.00  0.00    -0.153 OA
ATOM     25  O   UNL     1      -5.755   8.340  -0.332  0.00  0.00    -0.153 OA
BRANCH  23  26
ATOM     26  N   UNL     1      -7.360   7.244   1.194  0.00  0.00    -0.190 NA
ATOM     27  H   UNL     1      -8.059   7.658   0.663  0.00  0.00    +0.148 HD
BRANCH  26  28
ATOM     28  C   UNL     1      -7.713   6.389   2.330  0.00  0.00    +0.110 C 
BRANCH  28  29
ATOM     29  C   UNL     1      -9.183   6.606   2.694  0.00  0.00    +0.052 C 
BRANCH  29  33
ATOM     30  C   UNL     1     -10.214   4.114   6.007  0.00  0.00    +0.000 A 
ATOM     31  C   UNL     1      -9.730   5.390   6.226  0.00  0.00    +0.000 A 
ATOM     32  C   UNL     1      -9.397   6.197   5.154  0.00  0.00    +0.003 A 
ATOM     33  C   UNL     1      -9.547   5.727   3.863  0.00  0.00    -0.046 A 
ATOM     34  C   UNL     1     -10.034   4.452   3.643  0.00  0.00    +0.003 A 
ATOM     35  C   UNL     1     -10.364   3.644   4.715  0.00  0.00    +0.000 A 
ENDBRANCH  29  33
ENDBRANCH  28  29
ENDBRANCH  26  28
ENDBRANCH  23  26
ENDBRANCH   1  23
TORSDOF 6
