REMARK  Name = ZINC04671843
REMARK  8 active torsions:
REMARK  status: ('A' for Active; 'I' for Inactive)
REMARK    1  A    between atoms: C_1  and  C_2
REMARK    2  A    between atoms: C_2  and  C_21
REMARK    3  A    between atoms: N_3  and  N_4
REMARK    4  A    between atoms: C_5  and  C_7
REMARK    5  A    between atoms: C_7  and  C_8
REMARK    6  A    between atoms: C_7  and  C_14
REMARK    7  A    between atoms: C_7  and  O_20
REMARK    8  A    between atoms: C_24  and  N_27
REMARK                            x       y       z     vdW  Elec       q    Type
REMARK                         _______ _______ _______ _____ _____    ______ ____
ROOT
ATOM      1  N   UNL     1       0.335  -0.272   0.486  0.00  0.00    -0.204 N 
ATOM      2  C   UNL     1      -0.911  -0.782   0.459  0.00  0.00    +0.273 C 
ATOM      3  O   UNL     1      -1.854  -0.101   0.804  0.00  0.00    -0.270 OA
ATOM      4  H   UNL     1       1.089  -0.817   0.210  0.00  0.00    +0.177 HD
ENDROOT
BRANCH   1   7
ATOM      5  C   UNL     1       2.914   0.691   0.508  0.00  0.00    +0.068 C 
ATOM      6  C   UNL     1       1.744   1.538   0.937  0.00  0.00    +0.063 C 
ATOM      7  N   UNL     1       0.544   1.047   0.912  0.00  0.00    -0.184 NA
BRANCH   6   8
ATOM      8  C   UNL     1       1.963   2.926   1.385  0.00  0.00    -0.002 A 
ATOM      9  C   UNL     1       3.255   3.457   1.420  0.00  0.00    +0.012 A 
ATOM     10  C   UNL     1       3.452   4.757   1.835  0.00  0.00    +0.033 A 
ATOM     11  C   UNL     1       2.375   5.532   2.228  0.00  0.00    +0.126 A 
ATOM     12  C   UNL     1       1.093   5.011   2.202  0.00  0.00    +0.033 A 
ATOM     13  C   UNL     1       0.881   3.714   1.784  0.00  0.00    +0.012 A 
BRANCH  11  14
ATOM     14  N   UNL     1       2.595   6.925   2.679  0.00  0.00    +0.056 N 
ATOM     15  O   UNL     1       1.649   7.609   3.026  0.00  0.00    -0.126 OA
ATOM     16  O   UNL     1       3.722   7.386   2.703  0.00  0.00    -0.126 OA
ENDBRANCH  11  14
ENDBRANCH   6   8
ENDBRANCH   1   7
BRANCH   2  17
ATOM     17  C   UNL     1      -1.135  -2.201   0.001  0.00  0.00    +0.194 C 
BRANCH  17  18
ATOM     18  C   UNL     1      -0.930  -3.141   1.160  0.00  0.00    -0.003 A 
ATOM     19  C   UNL     1      -1.391  -2.800   2.418  0.00  0.00    +0.007 A 
ATOM     20  C   UNL     1      -1.208  -3.665   3.480  0.00  0.00    +0.000 A 
ATOM     21  C   UNL     1      -0.553  -4.867   3.287  0.00  0.00    +0.000 A 
ATOM     22  C   UNL     1      -0.087  -5.206   2.031  0.00  0.00    +0.000 A 
ATOM     23  C   UNL     1      -0.276  -4.343   0.967  0.00  0.00    +0.007 A 
ENDBRANCH  17  18
BRANCH  17  24
ATOM     24  C   UNL     1      -2.542  -2.344  -0.519  0.00  0.00    -0.003 A 
ATOM     25  C   UNL     1      -3.616  -2.188   0.338  0.00  0.00    +0.007 A 
ATOM     26  C   UNL     1      -4.906  -2.315  -0.141  0.00  0.00    +0.000 A 
ATOM     27  C   UNL     1      -5.124  -2.608  -1.474  0.00  0.00    +0.000 A 
ATOM     28  C   UNL     1      -4.050  -2.769  -2.330  0.00  0.00    +0.000 A 
ATOM     29  C   UNL     1      -2.760  -2.637  -1.853  0.00  0.00    +0.007 A 
ENDBRANCH  17  24
BRANCH  17  30
ATOM     30  O   UNL     1      -0.208  -2.517  -1.039  0.00  0.00    -0.371 OA
ATOM     31  H   UNL     1      -0.283  -1.950  -1.819  0.00  0.00    +0.212 HD
ENDBRANCH  17  30
ENDBRANCH   2  17
TORSDOF 7
