REMARK  Name = ZINC63386532
REMARK  9 active torsions:
REMARK  status: ('A' for Active; 'I' for Inactive)
REMARK    1  A    between atoms: C_1  and  O_2
REMARK    2  A    between atoms: O_2  and  C_3
REMARK    3  A    between atoms: C_9  and  C_12
REMARK    4  A    between atoms: C_12  and  C_13
REMARK    5  A    between atoms: C_13  and  N_14
REMARK    6  A    between atoms: C_15  and  C_17
REMARK    7  A    between atoms: C_23  and  C_25
REMARK    8  A    between atoms: C_25  and  N_26
REMARK    9  A    between atoms: C_27  and  C_29
REMARK                            x       y       z     vdW  Elec       q    Type
REMARK                         _______ _______ _______ _____ _____    ______ ____
ROOT
ATOM      1  C   UNL     1      -2.367  -8.584  -0.999  0.00  0.00    +0.078 C 
ATOM      2  C   UNL     1      -1.330  -9.701  -1.135  0.00  0.00    +0.032 C 
ATOM      3  C   UNL     1      -1.768 -10.905  -0.296  0.00  0.00    +0.108 C 
ATOM      4  N   UNL     1      -3.127 -11.292  -0.698  0.00  0.00    -0.300 N 
ATOM      5  C   UNL     1      -4.184 -10.270  -0.690  0.00  0.00    +0.108 C 
ATOM      6  C   UNL     1      -3.718  -9.073  -1.525  0.00  0.00    +0.032 C 
ATOM      7  C   UNL     1      -3.400 -12.559  -1.066  0.00  0.00    +0.233 C 
ATOM      8  O   UNL     1      -2.519 -13.393  -1.068  0.00  0.00    -0.274 OA
ENDROOT
BRANCH   1  10
ATOM      9  N   UNL     1      -0.752  -6.781  -1.509  0.00  0.00    -0.315 N 
ATOM     10  C   UNL     1      -1.922  -7.385  -1.796  0.00  0.00    +0.216 C 
ATOM     11  O   UNL     1      -2.617  -6.964  -2.697  0.00  0.00    -0.276 OA
ATOM     12  H   UNL     1      -0.196  -7.118  -0.789  0.00  0.00    +0.149 HD
BRANCH   9  13
ATOM     13  C   UNL     1      -0.319  -5.616  -2.284  0.00  0.00    +0.108 C 
BRANCH  13  14
ATOM     14  C   UNL     1       1.031  -5.126  -1.758  0.00  0.00    +0.052 C 
BRANCH  14  21
ATOM     15  C   UNL     1       0.606  -0.607  -1.056  0.00  0.00    +0.121 A 
ATOM     16  C   UNL     1       1.172   0.195  -2.062  0.00  0.00    +0.047 A 
ATOM     17  C   UNL     1       1.790  -0.325  -3.144  0.00  0.00    +0.029 A 
ATOM     18  C   UNL     1       1.886  -1.780  -3.299  0.00  0.00    +0.043 A 
ATOM     19  N   UNL     1       2.419  -2.528  -4.232  0.00  0.00    -0.380 N 
ATOM     20  C   UNL     1       2.222  -3.937  -3.871  0.00  0.00    +0.144 C 
ATOM     21  C   UNL     1       1.476  -3.927  -2.555  0.00  0.00    -0.040 C 
ATOM     22  C   UNL     1       1.290  -2.626  -2.239  0.00  0.00    +0.002 A 
ATOM     23  C   UNL     1       0.646  -1.960  -1.102  0.00  0.00    +0.055 A 
ATOM     24  H   UNL     1       2.869  -2.205  -5.029  0.00  0.00    +0.160 HD
BRANCH  15  26
ATOM     25  C   UNL     1      -0.017   1.425   0.010  0.00  0.00    +0.277 C 
ATOM     26  O   UNL     1       0.002  -0.004   0.002  0.00  0.00    -0.495 OA
ENDBRANCH  15  26
ENDBRANCH  14  21
ENDBRANCH  13  14
ENDBRANCH   9  13
ENDBRANCH   1  10
BRANCH   7  27
ATOM     27  C   UNL     1      -4.799 -12.940  -1.476  0.00  0.00    +0.200 C 
BRANCH  27  28
ATOM     28  N   UNL     1      -4.835 -14.362  -1.828  0.00  0.00    -0.303 N 
ATOM     29  C   UNL     1      -5.991 -14.928  -2.227  0.00  0.00    +0.244 C 
ATOM     30  O   UNL     1      -7.004 -14.260  -2.295  0.00  0.00    -0.270 OA
ATOM     31  H   UNL     1      -4.027 -14.895  -1.774  0.00  0.00    +0.150 HD
BRANCH  29  32
ATOM     32  C   UNL     1      -6.027 -16.363  -2.583  0.00  0.00    +0.037 A 
ATOM     33  C   UNL     1      -4.867 -17.135  -2.501  0.00  0.00    +0.013 A 
ATOM     34  C   UNL     1      -4.907 -18.473  -2.833  0.00  0.00    +0.001 A 
ATOM     35  C   UNL     1      -6.094 -19.050  -3.248  0.00  0.00    +0.000 A 
ATOM     36  C   UNL     1      -7.247 -18.291  -3.332  0.00  0.00    +0.001 A 
ATOM     37  C   UNL     1      -7.222 -16.953  -2.997  0.00  0.00    +0.013 A 
ENDBRANCH  29  32
ENDBRANCH  27  28
ENDBRANCH   7  27
TORSDOF 8
