REMARK  Name = ZINC20836613
REMARK  10 active torsions:
REMARK  status: ('A' for Active; 'I' for Inactive)
REMARK    1  A    between atoms: C_1  and  C_2
REMARK    2  A    between atoms: C_5  and  N_9
REMARK    3  A    between atoms: C_6  and  C_8
REMARK    4  A    between atoms: N_9  and  S_10
REMARK    5  A    between atoms: S_10  and  C_13
REMARK    6  A    between atoms: C_16  and  N_19
REMARK    7  A    between atoms: C_20  and  C_22
REMARK    8  A    between atoms: C_22  and  S_23
REMARK    9  A    between atoms: S_23  and  C_24
REMARK   10  A    between atoms: N_29  and  N_30
REMARK                            x       y       z     vdW  Elec       q    Type
REMARK                         _______ _______ _______ _____ _____    ______ ____
ROOT
ATOM      1  N   UNL     1       1.697   5.441   4.567  0.00  0.00    -0.285 N 
ATOM      2  C   UNL     1       2.766   5.402   5.386  0.00  0.00    +0.227 C 
ATOM      3  O   UNL     1       3.627   4.564   5.220  0.00  0.00    -0.275 OA
ATOM      4  H   UNL     1       0.879   6.151   4.763  0.00  0.00    +0.155 HD
ENDROOT
BRANCH   1   8
ATOM      5  C   UNL     1       1.485   2.874   1.292  0.00  0.00    +0.109 A 
ATOM      6  C   UNL     1       0.972   4.155   1.200  0.00  0.00    +0.030 A 
ATOM      7  C   UNL     1       1.036   5.006   2.285  0.00  0.00    +0.025 A 
ATOM      8  C   UNL     1       1.626   4.579   3.467  0.00  0.00    +0.034 A 
ATOM      9  C   UNL     1       2.146   3.295   3.555  0.00  0.00    +0.025 A 
ATOM     10  C   UNL     1       2.074   2.446   2.468  0.00  0.00    +0.030 A 
BRANCH   5  11
ATOM     11  S   UNL     1       1.396   1.788  -0.092  0.00  0.00    +0.072 S 
ATOM     12  O   UNL     1       2.439   0.837   0.070  0.00  0.00    -0.150 OA
ATOM     13  O   UNL     1       1.288   2.610  -1.246  0.00  0.00    -0.150 OA
BRANCH  11  14
ATOM     14  N   UNL     1      -0.029   0.955   0.030  0.00  0.00    -0.216 N 
ATOM     15  H   UNL     1      -0.020  -0.142   0.112  0.00  0.00    +0.174 HD
BRANCH  14  20
ATOM     16  C   UNL     1      -4.962   3.753   0.029  0.00  0.00    +0.044 C 
ATOM     17  C   UNL     1      -3.651   3.010   0.030  0.00  0.00    -0.050 A 
ATOM     18  C   UNL     1      -2.600   3.463  -0.747  0.00  0.00    +0.005 A 
ATOM     19  C   UNL     1      -1.398   2.784  -0.749  0.00  0.00    +0.025 A 
ATOM     20  C   UNL     1      -1.244   1.644   0.031  0.00  0.00    +0.051 A 
ATOM     21  C   UNL     1      -2.303   1.189   0.806  0.00  0.00    -0.028 A 
ATOM     22  C   UNL     1      -3.501   1.876   0.808  0.00  0.00    +0.008 A 
ATOM     23  C   UNL     1      -2.142  -0.049   1.650  0.00  0.00    +0.046 C 
ENDBRANCH  14  20
ENDBRANCH  11  14
ENDBRANCH   5  11
ENDBRANCH   1   8
BRANCH   2  24
ATOM     24  C   UNL     1       2.892   6.399   6.509  0.00  0.00    +0.173 C 
BRANCH  24  25
ATOM     25  S   UNL     1       4.427   6.088   7.425  0.00  0.00    -0.075 S 
BRANCH  25  26
ATOM     26  C   UNL     1       4.427   7.319   8.686  0.00  0.00    +0.211 A 
ATOM     27  N   UNL     1       5.391   7.492   9.639  0.00  0.00    -0.186 NA
ATOM     28  C   UNL     1       5.024   8.548  10.424  0.00  0.00    +0.232 A 
ATOM     29  N   UNL     1       3.881   9.008   9.976  0.00  0.00    -0.245 N 
ATOM     30  N   UNL     1       3.505   8.233   8.872  0.00  0.00    -0.144 NA
ATOM     31  N   UNL     1       5.736   9.047  11.507  0.00  0.00    -0.205 N 
ATOM     32  H   UNL     1       6.690   8.583  11.798  0.00  0.00    +0.177 HD
ATOM     33  H   UNL     1       3.401   9.864  10.472  0.00  0.00    +0.192 HD
BRANCH  31  34
ATOM     34  N   UNL     1       5.240  10.141  12.228  0.00  0.00    -0.189 NA
ATOM     35  C   UNL     1       5.897  10.600  13.226  0.00  0.00    +0.037 C 
ATOM     36  C   UNL     1       7.214  10.071  13.754  0.00  0.00    +0.052 C 
ATOM     37  C   UNL     1       7.596  10.949  14.964  0.00  0.00    +0.006 C 
ATOM     38  C   UNL     1       6.238  11.525  15.441  0.00  0.00    +0.006 C 
ATOM     39  C   UNL     1       5.496  11.773  14.104  0.00  0.00    +0.052 C 
ENDBRANCH  31  34
ENDBRANCH  25  26
ENDBRANCH  24  25
ENDBRANCH   2  24
TORSDOF 8
