REMARK  Name = ZINC23646477
REMARK  13 active torsions:
REMARK  status: ('A' for Active; 'I' for Inactive)
REMARK    1  A    between atoms: C_1  and  C_2
REMARK    2  A    between atoms: C_4  and  C_22
REMARK    3  A    between atoms: C_6  and  C_21
REMARK    4  A    between atoms: C_7  and  C_8
REMARK    5  A    between atoms: C_8  and  C_9
REMARK    6  A    between atoms: C_9  and  N_10
REMARK    7  A    between atoms: C_11  and  C_13
REMARK    8  A    between atoms: C_13  and  O_14
REMARK    9  A    between atoms: O_14  and  C_15
REMARK   10  A    between atoms: C_17  and  C_20
REMARK   11  A    between atoms: C_22  and  C_23
REMARK   12  A    between atoms: C_22  and  C_24
REMARK   13  A    between atoms: C_22  and  C_25
REMARK                            x       y       z     vdW  Elec       q    Type
REMARK                         _______ _______ _______ _____ _____    ______ ____
ROOT
ATOM      1  C   UNL     1      -3.289   7.905   0.061  0.00  0.00    +0.054 C 
ENDROOT
BRANCH   1   8
ATOM      2  C   UNL     1      -4.564   8.620  -2.431  0.00  0.00    +0.044 C 
ATOM      3  C   UNL     1      -5.223   8.968  -1.121  0.00  0.00    -0.047 A 
ATOM      4  C   UNL     1      -6.439   9.625  -1.111  0.00  0.00    +0.007 A 
ATOM      5  C   UNL     1      -7.040   9.949   0.091  0.00  0.00    -0.041 A 
ATOM      6  C   UNL     1      -6.428   9.611   1.283  0.00  0.00    +0.007 A 
ATOM      7  C   UNL     1      -5.214   8.950   1.274  0.00  0.00    -0.047 A 
ATOM      8  C   UNL     1      -4.613   8.626   0.072  0.00  0.00    -0.040 A 
ATOM      9  C   UNL     1      -4.546   8.582   2.573  0.00  0.00    +0.044 C 
BRANCH   5  10
ATOM     10  C   UNL     1      -8.364  10.669   0.101  0.00  0.00    -0.013 C 
ATOM     11  C   UNL     1      -8.211  12.006   0.830  0.00  0.00    +0.015 C 
ATOM     12  C   UNL     1      -8.818  10.922  -1.338  0.00  0.00    +0.015 C 
ATOM     13  C   UNL     1      -9.406   9.812   0.822  0.00  0.00    +0.015 C 
ENDBRANCH   5  10
ENDBRANCH   1   8
BRANCH   1  14
ATOM     14  C   UNL     1      -3.531   6.394   0.054  0.00  0.00    +0.109 C 
BRANCH  14  15
ATOM     15  N   UNL     1      -2.245   5.694   0.044  0.00  0.00    -0.312 N 
ATOM     16  C   UNL     1      -2.211   4.346   0.037  0.00  0.00    +0.251 C 
ATOM     17  O   UNL     1      -3.246   3.714   0.038  0.00  0.00    -0.272 OA
ATOM     18  H   UNL     1      -1.306   6.267   0.043  0.00  0.00    +0.149 HD
BRANCH  16  19
ATOM     19  C   UNL     1      -0.888   3.626   0.026  0.00  0.00    +0.326 C 
BRANCH  19  20
ATOM     20  O   UNL     1      -1.114   2.215   0.020  0.00  0.00    -0.465 OA
BRANCH  20  21
ATOM     21  C   UNL     1      -0.017   1.415   0.010  0.00  0.00    +0.255 A 
ATOM     22  C   UNL     1       0.002  -0.004   0.002  0.00  0.00    +0.114 A 
ATOM     23  C   UNL     1       1.319  -0.312  -0.012  0.00  0.00    +0.138 A 
ATOM     24  O   UNL     1       1.985   0.851  -0.012  0.00  0.00    -0.356 OA
ATOM     25  N   UNL     1       1.232   1.797   0.000  0.00  0.00    -0.040 NA
ATOM     26  C   UNL     1       1.921  -1.694  -0.026  0.00  0.00    +0.089 C 
ENDBRANCH  20  21
ENDBRANCH  19  20
ENDBRANCH  16  19
ENDBRANCH  14  15
ENDBRANCH   1  14
TORSDOF 7
