REMARK  Name = ZINC22818375
REMARK  10 active torsions:
REMARK  status: ('A' for Active; 'I' for Inactive)
REMARK    1  A    between atoms: C_1  and  C_2
REMARK    2  A    between atoms: C_2  and  C_3
REMARK    3  A    between atoms: C_3  and  C_4
REMARK    4  A    between atoms: C_3  and  C_5
REMARK    5  A    between atoms: C_3  and  N_6
REMARK    6  A    between atoms: C_7  and  C_9
REMARK    7  A    between atoms: C_9  and  N_10
REMARK    8  A    between atoms: N_13  and  C_16
REMARK    9  A    between atoms: C_16  and  C_17
REMARK   10  A    between atoms: C_25  and  N_27
REMARK                            x       y       z     vdW  Elec       q    Type
REMARK                         _______ _______ _______ _____ _____    ______ ____
ROOT
ATOM      1  N   UNL     1       2.029  -4.603  -3.502  0.00  0.00    -0.292 NA
ATOM      2  C   UNL     1       3.452  -4.238  -3.475  0.00  0.00    +0.100 C 
ATOM      3  C   UNL     1       4.113  -4.678  -4.784  0.00  0.00    +0.100 C 
ATOM      4  N   UNL     1       3.948  -6.129  -4.949  0.00  0.00    -0.293 NA
ATOM      5  C   UNL     1       2.525  -6.494  -4.975  0.00  0.00    +0.100 C 
ATOM      6  C   UNL     1       1.864  -6.054  -3.667  0.00  0.00    +0.100 C 
ENDROOT
BRANCH   1   7
ATOM      7  C   UNL     1       1.341  -4.130  -2.293  0.00  0.00    +0.180 C 
BRANCH   7   9
ATOM      8  N   UNL     1       0.738  -1.962  -1.265  0.00  0.00    -0.309 N 
ATOM      9  C   UNL     1       1.321  -2.623  -2.285  0.00  0.00    +0.228 C 
ATOM     10  O   UNL     1       1.829  -2.004  -3.196  0.00  0.00    -0.274 OA
ATOM     11  H   UNL     1       0.332  -2.457  -0.536  0.00  0.00    +0.149 HD
BRANCH   8  12
ATOM     12  C   UNL     1       0.718  -0.497  -1.257  0.00  0.00    +0.029 C 
ATOM     13  C   UNL     1      -0.022   0.009  -2.496  0.00  0.00    +0.031 C 
ATOM     14  C   UNL     1       2.154   0.032  -1.268  0.00  0.00    +0.031 C 
BRANCH  12  16
ATOM     15  C   UNL     1      -0.019   1.526   0.010  0.00  0.00    +0.006 C 
ATOM     16  C   UNL     1       0.002  -0.004   0.002  0.00  0.00    +0.022 C 
ENDBRANCH  12  16
ENDBRANCH   8  12
ENDBRANCH   7   9
ENDBRANCH   1   7
BRANCH   4  17
ATOM     17  C   UNL     1       4.636  -6.603  -6.158  0.00  0.00    +0.160 C 
BRANCH  17  18
ATOM     18  C   UNL     1       4.656  -8.109  -6.166  0.00  0.00    +0.146 A 
ATOM     19  N   UNL     1       5.666  -8.725  -5.598  0.00  0.00    -0.231 NA
ATOM     20  C   UNL     1       5.724 -10.065  -5.582  0.00  0.00    +0.076 A 
ATOM     21  C   UNL     1       6.786 -10.756  -4.984  0.00  0.00    +0.028 A 
ATOM     22  C   UNL     1       6.795 -12.119  -4.996  0.00  0.00    +0.002 A 
ATOM     23  C   UNL     1       5.763 -12.838  -5.595  0.00  0.00    +0.001 A 
ATOM     24  C   UNL     1       4.715 -12.197  -6.186  0.00  0.00    +0.013 A 
ATOM     25  C   UNL     1       4.675 -10.798  -6.190  0.00  0.00    +0.040 A 
ATOM     26  C   UNL     1       3.613 -10.077  -6.787  0.00  0.00    +0.127 A 
ATOM     27  N   UNL     1       3.652  -8.752  -6.741  0.00  0.00    -0.216 NA
BRANCH  26  28
ATOM     28  N   UNL     1       2.564 -10.733  -7.394  0.00  0.00    -0.343 N 
ATOM     29  H   UNL     1       2.547 -11.703  -7.417  0.00  0.00    +0.144 HD
ATOM     30  H   UNL     1       1.843 -10.226  -7.799  0.00  0.00    +0.144 HD
ENDBRANCH  26  28
ENDBRANCH  17  18
ENDBRANCH   4  17
TORSDOF 7
