REMARK  Name = ZINC39674173
REMARK  11 active torsions:
REMARK  status: ('A' for Active; 'I' for Inactive)
REMARK    1  A    between atoms: C_1  and  C_2
REMARK    2  A    between atoms: C_4  and  C_9
REMARK    3  A    between atoms: C_5  and  C_8
REMARK    4  A    between atoms: C_9  and  C_11
REMARK    5  A    between atoms: C_9  and  N_12
REMARK    6  A    between atoms: C_13  and  C_15
REMARK    7  A    between atoms: C_26  and  C_28
REMARK    8  A    between atoms: C_30  and  O_36
REMARK    9  A    between atoms: C_32  and  O_34
REMARK   10  A    between atoms: O_34  and  C_35
REMARK   11  A    between atoms: O_36  and  C_37
REMARK                            x       y       z     vdW  Elec       q    Type
REMARK                         _______ _______ _______ _____ _____    ______ ____
ROOT
ATOM      1  C   UNL     1      -2.565  -1.597  -5.204  0.00  0.00    +0.100 C 
ATOM      2  C   UNL     1      -3.457  -2.734  -4.657  0.00  0.00    +0.121 C 
ATOM      3  N   UNL     1      -4.227  -3.205  -5.832  0.00  0.00    -0.296 N 
ATOM      4  C   UNL     1      -3.253  -3.172  -6.949  0.00  0.00    +0.115 C 
ATOM      5  C   UNL     1      -2.433  -1.888  -6.709  0.00  0.00    -0.004 C 
ATOM      6  C   UNL     1      -0.971  -2.121  -7.076  0.00  0.00    -0.010 C 
ATOM      7  C   UNL     1      -0.858  -2.350  -8.586  0.00  0.00    -0.082 C 
ATOM      8  N   UNL     1      -1.383  -1.180  -9.301  0.00  0.00    +0.379 N 
ATOM      9  C   UNL     1      -2.814  -1.019  -9.014  0.00  0.00    -0.082 C 
ATOM     10  C   UNL     1      -3.009  -0.734  -7.523  0.00  0.00    -0.010 C 
ATOM     11  C   UNL     1      -5.522  -3.578  -5.875  0.00  0.00    +0.247 C 
ATOM     12  O   UNL     1      -6.226  -3.446  -4.893  0.00  0.00    -0.270 OA
ATOM     13  H   UNL     1      -0.887  -0.354  -9.002  0.00  0.00    -0.086 HD
ATOM     14  H   UNL     1      -1.252  -1.308 -10.293  0.00  0.00    -0.086 HD
ENDROOT
BRANCH  11  15
ATOM     15  C   UNL     1      -6.085  -4.148  -7.118  0.00  0.00    +0.044 A 
ATOM     16  C   UNL     1      -5.240  -4.707  -8.077  0.00  0.00    +0.059 A 
ATOM     17  C   UNL     1      -5.773  -5.241  -9.239  0.00  0.00    +0.124 A 
ATOM     18  C   UNL     1      -7.144  -5.219  -9.450  0.00  0.00    +0.091 A 
ATOM     19  C   UNL     1      -7.987  -4.665  -8.499  0.00  0.00    +0.124 A 
ATOM     20  C   UNL     1      -7.464  -4.134  -7.332  0.00  0.00    +0.059 A 
BRANCH  19  21
ATOM     21  O   UNL     1      -9.330  -4.646  -8.711  0.00  0.00    -0.495 OA
ATOM     22  C   UNL     1      -9.802  -5.215  -9.934  0.00  0.00    +0.277 C 
ENDBRANCH  19  21
BRANCH  17  23
ATOM     23  O   UNL     1      -4.950  -5.785 -10.175  0.00  0.00    -0.495 OA
ATOM     24  C   UNL     1      -5.566  -6.317 -11.349  0.00  0.00    +0.277 C 
ENDBRANCH  17  23
ENDBRANCH  11  15
BRANCH   1  26
ATOM     25  N   UNL     1      -0.466  -0.506  -4.484  0.00  0.00    -0.309 N 
ATOM     26  C   UNL     1      -1.212  -1.627  -4.543  0.00  0.00    +0.219 C 
ATOM     27  O   UNL     1      -0.793  -2.660  -4.065  0.00  0.00    -0.275 OA
ATOM     28  H   UNL     1      -0.800   0.320  -4.866  0.00  0.00    +0.149 HD
BRANCH  25  29
ATOM     29  C   UNL     1       0.851  -0.535  -3.841  0.00  0.00    +0.100 C 
ATOM     30  C   UNL     1       1.901  -1.004  -4.850  0.00  0.00    +0.033 C 
BRANCH  29  33
ATOM     31  C   UNL     1       2.219   2.070  -5.294  0.00  0.00    +0.039 C 
ATOM     32  C   UNL     1       1.211   2.143  -4.146  0.00  0.00    +0.154 C 
ATOM     33  C   UNL     1       1.203   0.847  -3.355  0.00  0.00    -0.001 C 
ATOM     34  C   UNL     1       1.580   1.216  -2.129  0.00  0.00    +0.063 C 
ATOM     35  N   UNL     1       1.812   2.547  -2.078  0.00  0.00    -0.159 NA
ATOM     36  N   UNL     1       1.630   3.142  -3.148  0.00  0.00    -0.180 NA
ATOM     37  C   UNL     1       1.729   0.277  -0.960  0.00  0.00    +0.067 C 
ENDBRANCH  29  33
ENDBRANCH  25  29
ENDBRANCH   1  26
TORSDOF 6
