REMARK  Name = ZINC49657341
REMARK  10 active torsions:
REMARK  status: ('A' for Active; 'I' for Inactive)
REMARK    1  A    between atoms: C_1  and  C_2
REMARK    2  A    between atoms: C_5  and  C_37
REMARK    3  A    between atoms: C_6  and  O_8
REMARK    4  A    between atoms: O_8  and  C_9
REMARK    5  A    between atoms: C_9  and  C_10
REMARK    6  A    between atoms: C_10  and  C_11
REMARK    7  A    between atoms: C_11  and  O_12
REMARK    8  A    between atoms: O_12  and  C_13
REMARK    9  A    between atoms: C_16  and  C_19
REMARK   10  A    between atoms: C_29  and  C_31
REMARK                            x       y       z     vdW  Elec       q    Type
REMARK                         _______ _______ _______ _____ _____    ______ ____
ROOT
ATOM      1  C   UNL     1       0.068  -0.633  12.243  0.00  0.00    +0.024 C 
ATOM      2  C   UNL     1      -0.599  -1.238  13.285  0.00  0.00    +0.079 C 
ATOM      3  C   UNL     1      -0.724  -0.586  14.620  0.00  0.00    +0.132 C 
ATOM      4  N   UNL     1      -0.817   0.707  14.782  0.00  0.00    -0.385 N 
ATOM      5  N   UNL     1      -0.733  -1.504  15.693  0.00  0.00    -0.153 N 
ATOM      6  C   UNL     1      -1.120  -2.799  15.419  0.00  0.00    +0.181 C 
ATOM      7  N   UNL     1      -1.396  -3.319  14.249  0.00  0.00    -0.152 NA
ATOM      8  C   UNL     1      -1.236  -2.570  13.138  0.00  0.00    +0.273 C 
ATOM      9  O   UNL     1      -1.599  -2.975  12.046  0.00  0.00    -0.268 OA
ATOM     10  S   UNL     1      -1.117  -3.540  17.030  0.00  0.00    -0.033 S 
ATOM     11  C   UNL     1      -0.511  -2.125  17.939  0.00  0.00    +0.131 C 
ATOM     12  N   UNL     1      -0.397  -1.219  16.999  0.00  0.00    -0.164 NA
ATOM     13  H   UNL     1      -0.806   1.294  14.010  0.00  0.00    +0.157 HD
ATOM     14  H   UNL     1      -0.897   1.079  15.674  0.00  0.00    +0.157 HD
ENDROOT
BRANCH   1  18
ATOM     15  C   UNL     1       0.816  -2.783   8.681  0.00  0.00    +0.121 A 
ATOM     16  C   UNL     1       0.507  -1.428   8.620  0.00  0.00    +0.046 A 
ATOM     17  C   UNL     1       0.264  -0.728   9.768  0.00  0.00    +0.011 A 
ATOM     18  C   UNL     1       0.326  -1.378  11.009  0.00  0.00    -0.024 A 
ATOM     19  C   UNL     1       0.638  -2.745  11.064  0.00  0.00    +0.011 A 
ATOM     20  C   UNL     1       0.873  -3.435   9.909  0.00  0.00    +0.046 A 
BRANCH  15  21
ATOM     21  O   UNL     1       1.056  -3.473   7.538  0.00  0.00    -0.492 OA
BRANCH  21  22
ATOM     22  C   UNL     1       0.981  -2.744   6.312  0.00  0.00    +0.232 C 
BRANCH  22  23
ATOM     23  C   UNL     1       1.279  -3.682   5.141  0.00  0.00    +0.082 C 
BRANCH  23  24
ATOM     24  C   UNL     1       1.199  -2.901   3.828  0.00  0.00    +0.232 C 
BRANCH  24  25
ATOM     25  O   UNL     1       1.478  -3.777   2.734  0.00  0.00    -0.492 OA
BRANCH  25  31
ATOM     26  C   UNL     1       0.804   0.117  -0.131  0.00  0.00    +0.044 C 
ATOM     27  C   UNL     1       1.123  -1.344   0.052  0.00  0.00    -0.047 A 
ATOM     28  C   UNL     1       1.383  -2.137  -1.051  0.00  0.00    +0.004 A 
ATOM     29  C   UNL     1       1.676  -3.478  -0.887  0.00  0.00    +0.007 A 
ATOM     30  C   UNL     1       1.708  -4.030   0.380  0.00  0.00    -0.009 A 
ATOM     31  C   UNL     1       1.447  -3.237   1.487  0.00  0.00    +0.124 A 
ATOM     32  C   UNL     1       1.159  -1.889   1.320  0.00  0.00    +0.049 A 
ATOM     33  C   UNL     1       2.026  -5.492   0.558  0.00  0.00    +0.047 C 
ENDBRANCH  25  31
ENDBRANCH  24  25
ENDBRANCH  23  24
ENDBRANCH  22  23
ENDBRANCH  21  22
ENDBRANCH  15  21
ENDBRANCH   1  18
BRANCH  11  34
ATOM     34  C   UNL     1      -0.213  -2.007  19.384  0.00  0.00    +0.027 A 
ATOM     35  C   UNL     1      -0.394  -3.100  20.239  0.00  0.00    +0.013 A 
ATOM     36  C   UNL     1      -0.101  -2.938  21.582  0.00  0.00    +0.020 A 
ATOM     37  C   UNL     1       0.357  -1.712  22.032  0.00  0.00    +0.111 A 
ATOM     38  N   UNL     1       0.517  -0.700  21.202  0.00  0.00    -0.263 NA
ATOM     39  C   UNL     1       0.258  -0.806  19.915  0.00  0.00    +0.121 A 
ENDBRANCH  11  34
TORSDOF 8
