REMARK  Name = ZINC45618314
REMARK  8 active torsions:
REMARK  status: ('A' for Active; 'I' for Inactive)
REMARK    1  A    between atoms: C_1  and  C_2
REMARK    2  A    between atoms: C_2  and  C_4
REMARK    3  A    between atoms: C_2  and  S_20
REMARK    4  A    between atoms: C_10  and  C_15
REMARK    5  A    between atoms: S_20  and  C_21
REMARK    6  A    between atoms: C_21  and  C_23
REMARK    7  A    between atoms: C_21  and  C_24
REMARK    8  A    between atoms: N_26  and  C_27
REMARK                            x       y       z     vdW  Elec       q    Type
REMARK                         _______ _______ _______ _____ _____    ______ ____
ROOT
ATOM      1  C   UNL     1      -1.458   1.377  -1.011  0.00  0.00    +0.027 C 
ATOM      2  C   UNL     1      -1.010  -0.057  -0.720  0.00  0.00    +0.110 C 
ENDROOT
BRANCH   2   3
ATOM      3  C   UNL     1      -0.010  -0.051   0.408  0.00  0.00    +0.124 A 
ATOM      4  N   UNL     1      -0.342   0.525   1.591  0.00  0.00    -0.309 N 
ATOM      5  H   UNL     1      -1.219   0.927   1.695  0.00  0.00    +0.170 HD
ATOM      6  C   UNL     1       0.521   0.551   2.623  0.00  0.00    +0.260 A 
ATOM      7  O   UNL     1       0.208   1.072   3.680  0.00  0.00    -0.267 OA
ATOM      8  C   UNL     1       1.813  -0.043   2.462  0.00  0.00    +0.083 A 
ATOM      9  C   UNL     1       2.909  -0.142   3.419  0.00  0.00    +0.039 A 
ATOM     10  C   UNL     1       4.056  -0.759   3.035  0.00  0.00    +0.059 A 
ATOM     11  S   UNL     1       3.719  -1.244   1.353  0.00  0.00    -0.076 S 
ATOM     12  C   UNL     1       2.067  -0.615   1.204  0.00  0.00    +0.116 A 
ATOM     13  N   UNL     1       1.159  -0.606   0.232  0.00  0.00    -0.225 NA
BRANCH   9  14
ATOM     14  C   UNL     1       2.775   0.418   4.779  0.00  0.00    +0.136 A 
ATOM     15  C   UNL     1       3.059  -0.230   5.941  0.00  0.00    +0.050 A 
ATOM     16  C   UNL     1       2.788   0.676   6.987  0.00  0.00    +0.042 A 
ATOM     17  C   UNL     1       2.357   1.818   6.419  0.00  0.00    +0.196 A 
ATOM     18  O   UNL     1       2.356   1.661   5.084  0.00  0.00    -0.463 OA
ENDBRANCH   9  14
ENDBRANCH   2   3
BRANCH   2  19
ATOM     19  S   UNL     1      -0.243  -0.764  -2.204  0.00  0.00    -0.137 S 
BRANCH  19  20
ATOM     20  C   UNL     1      -0.018  -2.515  -1.790  0.00  0.00    +0.130 C 
ATOM     21  C   UNL     1      -1.386  -3.188  -1.659  0.00  0.00    +0.029 C 
BRANCH  20  22
ATOM     22  C   UNL     1       0.771  -3.192  -2.881  0.00  0.00    +0.230 C 
ATOM     23  O   UNL     1       0.837  -2.690  -3.983  0.00  0.00    -0.274 OA
ATOM     24  N   UNL     1       1.405  -4.355  -2.632  0.00  0.00    -0.282 N 
ATOM     25  H   UNL     1       1.311  -4.783  -1.766  0.00  0.00    +0.155 HD
BRANCH  24  26
ATOM     26  C   UNL     1       2.198  -4.947  -3.623  0.00  0.00    +0.070 A 
ATOM     27  C   UNL     1       3.060  -4.166  -4.383  0.00  0.00    +0.064 A 
ATOM     28  C   UNL     1       3.841  -4.753  -5.360  0.00  0.00    +0.022 A 
ATOM     29  C   UNL     1       3.766  -6.116  -5.582  0.00  0.00    +0.003 A 
ATOM     30  C   UNL     1       2.909  -6.896  -4.827  0.00  0.00    +0.022 A 
ATOM     31  C   UNL     1       2.129  -6.317  -3.844  0.00  0.00    +0.064 A 
ATOM     32 CL   UNL     1       1.060  -7.298  -2.892  0.00  0.00    -0.082 Cl
ATOM     33 CL   UNL     1       3.154  -2.455  -4.106  0.00  0.00    -0.082 Cl
ENDBRANCH  24  26
ENDBRANCH  20  22
ENDBRANCH  19  20
ENDBRANCH   2  19
TORSDOF 6
