REMARK  Name = ZINC08692066
REMARK  11 active torsions:
REMARK  status: ('A' for Active; 'I' for Inactive)
REMARK    1  A    between atoms: C_1  and  C_2
REMARK    2  A    between atoms: C_2  and  C_17
REMARK    3  A    between atoms: N_3  and  N_4
REMARK    4  A    between atoms: C_5  and  C_7
REMARK    5  A    between atoms: C_7  and  C_9
REMARK    6  A    between atoms: C_7  and  O_15
REMARK    7  A    between atoms: O_15  and  C_16
REMARK    8  A    between atoms: C_30  and  C_33
REMARK    9  A    between atoms: C_36  and  C_39
REMARK   10  A    between atoms: C_39  and  O_41
REMARK   11  A    between atoms: O_41  and  C_42
REMARK                            x       y       z     vdW  Elec       q    Type
REMARK                         _______ _______ _______ _____ _____    ______ ____
ROOT
ATOM      1  C   UNL     1      -0.148  -1.125  -0.947  0.00  0.00    -0.002 A 
ATOM      2  C   UNL     1      -0.125  -0.305  -2.079  0.00  0.00    +0.011 A 
ATOM      3  C   UNL     1      -0.088  -0.868  -3.334  0.00  0.00    +0.024 A 
ATOM      4  C   UNL     1      -0.071  -2.251  -3.489  0.00  0.00    +0.031 A 
ATOM      5  C   UNL     1      -0.083  -3.072  -2.353  0.00  0.00    -0.019 A 
ATOM      6  C   UNL     1      -0.122  -2.514  -1.098  0.00  0.00    +0.015 A 
ATOM      7  C   UNL     1      -0.024  -4.534  -2.568  0.00  0.00    +0.049 C 
ATOM      8  C   UNL     1      -0.597  -5.494  -1.589  0.00  0.00    -0.023 C 
ATOM      9  C   UNL     1      -1.024  -6.566  -2.246  0.00  0.00    -0.030 C 
ATOM     10  C   UNL     1      -0.795  -6.384  -3.748  0.00  0.00    +0.033 C 
ATOM     11  C   UNL     1      -0.825  -4.858  -3.865  0.00  0.00    +0.029 C 
ATOM     12  C   UNL     1      -0.018  -4.253  -5.000  0.00  0.00    +0.105 C 
ATOM     13  N   UNL     1      -0.056  -2.791  -4.780  0.00  0.00    -0.336 N 
ATOM     14  H   UNL     1      -0.070  -2.195  -5.545  0.00  0.00    +0.147 HD
ENDROOT
BRANCH  12  15
ATOM     15  C   UNL     1       1.402  -4.753  -4.953  0.00  0.00    -0.027 A 
ATOM     16  C   UNL     1       1.747  -5.913  -5.624  0.00  0.00    +0.006 A 
ATOM     17  C   UNL     1       3.045  -6.376  -5.586  0.00  0.00    +0.015 A 
ATOM     18  C   UNL     1       4.014  -5.671  -4.868  0.00  0.00    +0.059 A 
ATOM     19  C   UNL     1       3.659  -4.501  -4.193  0.00  0.00    +0.015 A 
ATOM     20  C   UNL     1       2.358  -4.046  -4.244  0.00  0.00    +0.006 A 
BRANCH  18  21
ATOM     21  C   UNL     1       5.406  -6.162  -4.822  0.00  0.00    +0.339 C 
ATOM     22  O   UNL     1       5.711  -7.180  -5.410  0.00  0.00    -0.245 OA
BRANCH  21  23
ATOM     23  O   UNL     1       6.338  -5.479  -4.128  0.00  0.00    -0.464 OA
ATOM     24  C   UNL     1       7.665  -6.011  -4.127  0.00  0.00    +0.280 C 
ENDBRANCH  21  23
ENDBRANCH  18  21
ENDBRANCH  12  15
BRANCH   1  26
ATOM     25  C   UNL     1      -0.223   0.972   0.558  0.00  0.00    +0.068 C 
ATOM     26  C   UNL     1      -0.195  -0.527   0.400  0.00  0.00    +0.063 C 
ATOM     27  N   UNL     1      -0.211  -1.291   1.449  0.00  0.00    -0.184 NA
BRANCH  27  28
ATOM     28  N   UNL     1      -0.255  -0.722   2.729  0.00  0.00    -0.204 N 
ATOM     29  C   UNL     1      -0.273  -1.515   3.818  0.00  0.00    +0.266 C 
ATOM     30  O   UNL     1      -0.250  -2.721   3.691  0.00  0.00    -0.271 OA
ATOM     31  H   UNL     1      -0.274   0.242   2.831  0.00  0.00    +0.177 HD
BRANCH  29  32
ATOM     32  C   UNL     1      -0.320  -0.904   5.195  0.00  0.00    +0.235 C 
BRANCH  32  33
ATOM     33  C   UNL     1       0.949  -0.131   5.445  0.00  0.00    -0.010 A 
ATOM     34  C   UNL     1       2.103  -0.797   5.813  0.00  0.00    +0.006 A 
ATOM     35  C   UNL     1       3.268  -0.088   6.042  0.00  0.00    +0.000 A 
ATOM     36  C   UNL     1       3.278   1.288   5.904  0.00  0.00    +0.000 A 
ATOM     37  C   UNL     1       2.124   1.954   5.535  0.00  0.00    +0.000 A 
ATOM     38  C   UNL     1       0.961   1.244   5.301  0.00  0.00    +0.006 A 
ENDBRANCH  32  33
BRANCH  32  39
ATOM     39  O   UNL     1      -0.448  -1.939   6.172  0.00  0.00    -0.366 OA
ATOM     40  C   UNL     1      -1.800  -2.277   6.487  0.00  0.00    +0.195 C 
ENDBRANCH  32  39
ENDBRANCH  29  32
ENDBRANCH  27  28
ENDBRANCH   1  26
TORSDOF 8
