REMARK  Name = ZINC03641206
REMARK  4 active torsions:
REMARK  status: ('A' for Active; 'I' for Inactive)
REMARK    1  A    between atoms: C_5  and  N_7
REMARK    2  A    between atoms: C_16  and  C_20
REMARK    3  A    between atoms: C_16  and  N_24
REMARK    4  A    between atoms: C_25  and  C_27
REMARK                            x       y       z     vdW  Elec       q    Type
REMARK                         _______ _______ _______ _____ _____    ______ ____
ROOT
ATOM      1  N   UNL     1       1.838   0.598  -0.437  0.00  0.00    -0.247 N 
ATOM      2  C   UNL     1       0.658   1.299  -0.283  0.00  0.00    +0.125 A 
ATOM      3  C   UNL     1       0.726   2.649  -0.106  0.00  0.00    +0.097 A 
ATOM      4  C   UNL     1       1.968   3.296  -0.084  0.00  0.00    +0.262 A 
ATOM      5  O   UNL     1       2.031   4.503   0.073  0.00  0.00    -0.267 OA
ATOM      6  N   UNL     1       3.094   2.569  -0.238  0.00  0.00    -0.274 N 
ATOM      7  H   UNL     1       3.986   3.021  -0.223  0.00  0.00    +0.173 HD
ATOM      8  C   UNL     1       3.020   1.236  -0.412  0.00  0.00    +0.335 A 
ATOM      9  O   UNL     1       4.045   0.597  -0.551  0.00  0.00    -0.246 OA
ATOM     10  C   UNL     1      -0.697   3.138   0.033  0.00  0.00    +0.240 C 
ATOM     11  C   UNL     1      -1.521   1.873  -0.100  0.00  0.00    +0.256 C 
ATOM     12  O   UNL     1      -2.729   1.786  -0.056  0.00  0.00    -0.272 OA
ATOM     13  N   UNL     1      -0.646   0.867  -0.274  0.00  0.00    -0.269 N 
ATOM     14  H   UNL     1      -0.907  -0.061  -0.385  0.00  0.00    +0.156 HD
ENDROOT
BRANCH   1  19
ATOM     15  C   UNL     1       1.688  -2.690  -2.081  0.00  0.00    +0.002 A 
ATOM     16  C   UNL     1       1.732  -3.534  -0.987  0.00  0.00    +0.003 A 
ATOM     17  C   UNL     1       1.810  -3.012   0.291  0.00  0.00    +0.040 A 
ATOM     18  C   UNL     1       1.851  -1.641   0.477  0.00  0.00    +0.147 A 
ATOM     19  C   UNL     1       1.802  -0.791  -0.622  0.00  0.00    +0.088 A 
ATOM     20  C   UNL     1       1.723  -1.321  -1.902  0.00  0.00    +0.029 A 
ATOM     21  F   UNL     1       1.933  -1.131   1.725  0.00  0.00    -0.203 F 
ENDBRANCH   1  19
BRANCH  10  22
ATOM     22  C   UNL     1      -0.912   3.786   1.402  0.00  0.00    +0.424 C 
ATOM     23  F   UNL     1      -0.132   4.943   1.498  0.00  0.00    -0.167 F 
ATOM     24  F   UNL     1      -2.263   4.120   1.552  0.00  0.00    -0.167 F 
ATOM     25  F   UNL     1      -0.540   2.887   2.407  0.00  0.00    -0.167 F 
ENDBRANCH  10  22
BRANCH  10  26
ATOM     26  N   UNL     1      -1.024   4.081  -1.040  0.00  0.00    -0.287 N 
ATOM     27  C   UNL     1      -0.872   3.716  -2.328  0.00  0.00    +0.245 C 
ATOM     28  O   UNL     1      -0.549   2.576  -2.602  0.00  0.00    -0.270 OA
ATOM     29  H   UNL     1      -1.352   4.968  -0.823  0.00  0.00    +0.151 HD
BRANCH  27  30
ATOM     30  C   UNL     1      -1.096   4.703  -3.409  0.00  0.00    +0.040 A 
ATOM     31  C   UNL     1      -1.473   6.017  -3.116  0.00  0.00    +0.033 A 
ATOM     32  C   UNL     1      -1.667   6.906  -4.155  0.00  0.00    +0.111 A 
ATOM     33  N   UNL     1      -1.512   6.527  -5.408  0.00  0.00    -0.263 NA
ATOM     34  C   UNL     1      -1.163   5.297  -5.729  0.00  0.00    +0.111 A 
ATOM     35  C   UNL     1      -0.943   4.345  -4.752  0.00  0.00    +0.033 A 
ENDBRANCH  27  30
ENDBRANCH  10  26
TORSDOF 4
