REMARK  Name = ZINC20968924
REMARK  11 active torsions:
REMARK  status: ('A' for Active; 'I' for Inactive)
REMARK    1  A    between atoms: C_1  and  C_2
REMARK    2  A    between atoms: C_2  and  C_3
REMARK    3  A    between atoms: C_2  and  C_4
REMARK    4  A    between atoms: C_4  and  N_5
REMARK    5  A    between atoms: C_6  and  N_29
REMARK    6  A    between atoms: C_7  and  N_14
REMARK    7  A    between atoms: N_14  and  C_15
REMARK    8  A    between atoms: C_15  and  C_16
REMARK    9  A    between atoms: C_16  and  C_17
REMARK   10  A    between atoms: C_16  and  C_18
REMARK   11  A    between atoms: C_19  and  C_21
REMARK                            x       y       z     vdW  Elec       q    Type
REMARK                         _______ _______ _______ _____ _____    ______ ____
ROOT
ATOM      1  N   UNL     1       1.863   0.081   0.781  0.00  0.00    -0.280 N 
ATOM      2  C   UNL     1       1.550  -0.692   1.875  0.00  0.00    +0.127 A 
ATOM      3  C   UNL     1       0.767  -1.816   1.704  0.00  0.00    +0.140 A 
ATOM      4  C   UNL     1       0.312  -2.137   0.412  0.00  0.00    +0.277 A 
ATOM      5  O   UNL     1      -0.381  -3.124   0.232  0.00  0.00    -0.266 OA
ATOM      6  N   UNL     1       0.647  -1.345  -0.626  0.00  0.00    -0.273 N 
ATOM      7  H   UNL     1       0.299  -1.592  -1.640  0.00  0.00    +0.173 HD
ATOM      8  C   UNL     1       1.407  -0.252  -0.440  0.00  0.00    +0.331 A 
ATOM      9  O   UNL     1       1.690   0.448  -1.394  0.00  0.00    -0.246 OA
ENDROOT
BRANCH   3  10
ATOM     10  N   UNL     1       0.429  -2.628   2.806  0.00  0.00    -0.260 N 
ATOM     11  C   UNL     1      -0.267  -2.110   3.837  0.00  0.00    +0.253 C 
ATOM     12  O   UNL     1      -0.561  -2.811   4.787  0.00  0.00    -0.270 OA
BRANCH  11  13
ATOM     13  C   UNL     1      -0.673  -0.690   3.815  0.00  0.00    +0.057 A 
ATOM     14  C   UNL     1      -0.906  -0.046   2.598  0.00  0.00    +0.014 A 
ATOM     15  C   UNL     1      -1.286   1.280   2.583  0.00  0.00    +0.002 A 
ATOM     16  C   UNL     1      -1.437   1.974   3.770  0.00  0.00    +0.021 A 
ATOM     17  C   UNL     1      -1.208   1.344   4.981  0.00  0.00    +0.060 A 
ATOM     18  C   UNL     1      -0.832   0.014   5.011  0.00  0.00    +0.071 A 
ATOM     19 CL   UNL     1      -0.552  -0.778   6.530  0.00  0.00    -0.081 Cl
ATOM     20 CL   UNL     1      -1.400   2.224   6.465  0.00  0.00    -0.082 Cl
ENDBRANCH  11  13
BRANCH  10  21
ATOM     21  C   UNL     1       0.834  -4.036   2.830  0.00  0.00    +0.117 C 
BRANCH  21  22
ATOM     22  C   UNL     1       2.271  -4.144   3.345  0.00  0.00    +0.001 C 
ATOM     23  C   UNL     1       2.341  -3.613   4.777  0.00  0.00    +0.009 C 
ATOM     24  C   UNL     1       2.712  -5.609   3.321  0.00  0.00    +0.009 C 
ENDBRANCH  21  22
ENDBRANCH  10  21
ENDBRANCH   3  10
BRANCH   2  25
ATOM     25  N   UNL     1       2.011  -0.349   3.124  0.00  0.00    -0.343 N 
ATOM     26  H   UNL     1       1.757  -0.972   3.994  0.00  0.00    +0.144 HD
ATOM     27  H   UNL     1       2.635   0.548   3.252  0.00  0.00    +0.144 HD
ENDBRANCH   2  25
BRANCH   1  28
ATOM     28  C   UNL     1       2.692   1.277   0.948  0.00  0.00    +0.131 C 
BRANCH  28  30
ATOM     29  C   UNL     1       5.024   2.168   0.835  0.00  0.00    +0.009 C 
ATOM     30  C   UNL     1       4.167   0.902   0.785  0.00  0.00    +0.003 C 
ATOM     31  C   UNL     1       4.581  -0.040   1.918  0.00  0.00    +0.009 C 
ENDBRANCH  28  30
ENDBRANCH   1  28
TORSDOF 7
