REMARK  Name = ZINC16651143
REMARK  12 active torsions:
REMARK  status: ('A' for Active; 'I' for Inactive)
REMARK    1  A    between atoms: C_1  and  C_2
REMARK    2  A    between atoms: C_5  and  N_9
REMARK    3  A    between atoms: C_7  and  C_8
REMARK    4  A    between atoms: N_12  and  C_13
REMARK    5  A    between atoms: N_12  and  C_20
REMARK    6  A    between atoms: C_13  and  C_14
REMARK    7  A    between atoms: C_20  and  C_21
REMARK    8  A    between atoms: N_23  and  C_24
REMARK    9  A    between atoms: N_23  and  C_34
REMARK   10  A    between atoms: C_24  and  C_25
REMARK   11  A    between atoms: C_34  and  C_35
REMARK   12  A    between atoms: C_38  and  C_40
REMARK                            x       y       z     vdW  Elec       q    Type
REMARK                         _______ _______ _______ _____ _____    ______ ____
ROOT
ATOM      1  C   UNL     1      -3.814   0.933   3.644  0.00  0.00    +0.205 C 
ENDROOT
BRANCH   1   5
ATOM      2  N   UNL     1      -1.057   3.352   3.388  0.00  0.00    -0.269 N 
ATOM      3  C   UNL     1      -1.920   2.446   3.889  0.00  0.00    +0.307 C 
ATOM      4  O   UNL     1      -1.835   2.104   5.053  0.00  0.00    -0.252 OA
ATOM      5  N   UNL     1      -2.876   1.918   3.100  0.00  0.00    -0.274 N 
ATOM      6  H   UNL     1      -1.081   3.575   2.444  0.00  0.00    +0.156 HD
BRANCH   2  11
ATOM      7  C   UNL     1       2.714   5.867   6.801  0.00  0.00    +0.044 C 
ATOM      8  C   UNL     1       1.712   5.199   5.894  0.00  0.00    -0.047 A 
ATOM      9  C   UNL     1       1.358   3.879   6.110  0.00  0.00    +0.005 A 
ATOM     10  C   UNL     1       0.441   3.265   5.282  0.00  0.00    +0.023 A 
ATOM     11  C   UNL     1      -0.127   3.973   4.230  0.00  0.00    +0.035 A 
ATOM     12  C   UNL     1       0.236   5.295   4.012  0.00  0.00    +0.027 A 
ATOM     13  C   UNL     1       1.149   5.906   4.848  0.00  0.00    -0.046 A 
ATOM     14  C   UNL     1       1.537   7.344   4.617  0.00  0.00    +0.044 C 
ENDBRANCH   2  11
BRANCH   5  15
ATOM     15  C   UNL     1      -2.979   2.330   1.698  0.00  0.00    +0.141 C 
BRANCH  15  16
ATOM     16  C   UNL     1      -2.116   1.410   0.832  0.00  0.00    +0.136 C 
ATOM     17  C   UNL     1      -2.209   1.826  -0.653  0.00  0.00    +0.035 C 
ATOM     18  C   UNL     1      -0.780   1.598  -1.197  0.00  0.00    +0.031 C 
ATOM     19  C   UNL     1       0.006   1.071   0.024  0.00  0.00    +0.160 C 
ATOM     20  O   UNL     1      -0.718   1.562   1.173  0.00  0.00    -0.375 OA
ENDBRANCH  15  16
ENDBRANCH   5  15
ENDBRANCH   1   5
BRANCH   1  21
ATOM     21  C   UNL     1      -3.251  -0.452   3.459  0.00  0.00    +0.234 C 
ATOM     22  O   UNL     1      -2.172  -0.602   2.925  0.00  0.00    -0.274 OA
ATOM     23  N   UNL     1      -3.946  -1.525   3.887  0.00  0.00    -0.289 N 
BRANCH  23  24
ATOM     24  C   UNL     1      -3.398  -2.872   3.707  0.00  0.00    +0.143 C 
BRANCH  24  25
ATOM     25  C   UNL     1      -2.571  -3.243   4.911  0.00  0.00    -0.026 A 
ATOM     26  C   UNL     1      -1.220  -2.953   4.935  0.00  0.00    +0.009 A 
ATOM     27  C   UNL     1      -0.457  -3.287   6.039  0.00  0.00    +0.050 A 
ATOM     28  C   UNL     1      -1.045  -3.923   7.120  0.00  0.00    +0.166 A 
ATOM     29  C   UNL     1      -2.405  -4.220   7.093  0.00  0.00    +0.167 A 
ATOM     30  C   UNL     1      -3.164  -3.878   5.986  0.00  0.00    +0.054 A 
ATOM     31  O   UNL     1      -2.740  -4.840   8.263  0.00  0.00    -0.453 OA
ATOM     32  C   UNL     1      -1.660  -4.554   9.172  0.00  0.00    +0.466 C 
ATOM     33  O   UNL     1      -0.527  -4.357   8.306  0.00  0.00    -0.453 OA
ENDBRANCH  24  25
ENDBRANCH  23  24
BRANCH  23  34
ATOM     34  C   UNL     1      -5.248  -1.344   4.532  0.00  0.00    +0.182 C 
BRANCH  34  35
ATOM     35  C   UNL     1      -6.335  -1.372   3.488  0.00  0.00    +0.122 A 
ATOM     36  C   UNL     1      -6.991  -2.468   3.066  0.00  0.00    +0.046 A 
ATOM     37  C   UNL     1      -7.917  -2.039   2.088  0.00  0.00    +0.045 A 
ATOM     38  C   UNL     1      -7.771  -0.707   1.971  0.00  0.00    +0.102 A 
ATOM     39  O   UNL     1      -6.816  -0.308   2.826  0.00  0.00    -0.463 OA
ATOM     40  C   UNL     1      -8.553   0.188   1.043  0.00  0.00    +0.086 C 
ENDBRANCH  34  35
ENDBRANCH  23  34
ENDBRANCH   1  21
TORSDOF 9
