REMARK  Name = ZINC40800356
REMARK  7 active torsions:
REMARK  status: ('A' for Active; 'I' for Inactive)
REMARK    1  A    between atoms: C_1  and  C_2
REMARK    2  A    between atoms: C_2  and  C_3
REMARK    3  A    between atoms: C_2  and  N_4
REMARK    4  A    between atoms: C_5  and  C_7
REMARK    5  A    between atoms: C_11  and  N_12
REMARK    6  A    between atoms: C_13  and  C_15
REMARK    7  A    between atoms: N_19  and  C_20
REMARK                            x       y       z     vdW  Elec       q    Type
REMARK                         _______ _______ _______ _____ _____    ______ ____
ROOT
ATOM      1  C   UNL     1      -2.992  -2.310  -0.511  0.00  0.00    +0.069 A 
ATOM      2  C   UNL     1      -3.885  -2.100  -1.638  0.00  0.00    -0.023 A 
ATOM      3  C   UNL     1      -5.114  -2.635  -1.476  0.00  0.00    -0.004 A 
ATOM      4  S   UNL     1      -5.069  -3.389   0.123  0.00  0.00    -0.077 S 
ATOM      5  C   UNL     1      -3.491  -3.023   0.568  0.00  0.00    +0.085 A 
ATOM      6  C   UNL     1      -6.251  -2.587  -2.450  0.00  0.00    +0.043 C 
ATOM      7  C   UNL     1      -5.938  -1.515  -3.505  0.00  0.00    +0.005 C 
ATOM      8  C   UNL     1      -4.506  -1.719  -4.008  0.00  0.00    +0.005 C 
ATOM      9  C   UNL     1      -3.510  -1.349  -2.908  0.00  0.00    +0.037 C 
ENDROOT
BRANCH   1  11
ATOM     10  N   UNL     1      -1.359  -0.564  -0.036  0.00  0.00    -0.309 N 
ATOM     11  C   UNL     1      -1.620  -1.796  -0.518  0.00  0.00    +0.247 C 
ATOM     12  O   UNL     1      -0.715  -2.481  -0.959  0.00  0.00    -0.270 OA
ATOM     13  H   UNL     1      -2.080  -0.018   0.315  0.00  0.00    +0.149 HD
BRANCH  10  15
ATOM     14  C   UNL     1      -0.016   1.480  -0.056  0.00  0.00    +0.027 C 
ATOM     15  C   UNL     1       0.013  -0.050  -0.043  0.00  0.00    +0.067 C 
ATOM     16  C   UNL     1       0.745  -0.536   1.210  0.00  0.00    +0.027 C 
ENDBRANCH  10  15
ENDBRANCH   1  11
BRANCH   5  17
ATOM     17  N   UNL     1      -2.840  -3.354   1.744  0.00  0.00    -0.274 N 
ATOM     18  C   UNL     1      -3.484  -4.059   2.696  0.00  0.00    +0.265 C 
ATOM     19  O   UNL     1      -4.665  -4.320   2.565  0.00  0.00    -0.268 OA
ATOM     20  H   UNL     1      -1.920  -3.080   1.883  0.00  0.00    +0.156 HD
BRANCH  18  21
ATOM     21  C   UNL     1      -2.759  -4.511   3.891  0.00  0.00    +0.106 A 
ATOM     22  C   UNL     1      -1.471  -4.204   4.196  0.00  0.00    +0.044 A 
ATOM     23  C   UNL     1      -1.156  -4.832   5.424  0.00  0.00    +0.036 A 
ATOM     24  C   UNL     1      -2.309  -5.527   5.838  0.00  0.00    +0.052 A 
ATOM     25  N   UNL     1      -3.281  -5.314   4.889  0.00  0.00    -0.339 N 
ATOM     26  C   UNL     1      -4.643  -5.851   4.927  0.00  0.00    +0.149 C 
ATOM     27  C   UNL     1      -2.286  -6.245   7.030  0.00  0.00    +0.026 A 
ATOM     28  C   UNL     1      -1.142  -6.274   7.795  0.00  0.00    +0.005 A 
ATOM     29  C   UNL     1      -0.002  -5.590   7.392  0.00  0.00    +0.039 A 
ATOM     30  C   UNL     1       0.001  -4.872   6.217  0.00  0.00    +0.133 A 
ATOM     31  F   UNL     1       1.113  -4.210   5.829  0.00  0.00    -0.205 F 
ENDBRANCH  18  21
ENDBRANCH   5  17
TORSDOF 4
