REMARK  Name = ZINC35557599
REMARK  7 active torsions:
REMARK  status: ('A' for Active; 'I' for Inactive)
REMARK    1  A    between atoms: C_1  and  C_2
REMARK    2  A    between atoms: N_4  and  C_5
REMARK    3  A    between atoms: C_8  and  N_11
REMARK    4  A    between atoms: N_11  and  S_12
REMARK    5  A    between atoms: S_12  and  C_15
REMARK    6  A    between atoms: C_17  and  C_20
REMARK    7  A    between atoms: C_22  and  C_25
REMARK                            x       y       z     vdW  Elec       q    Type
REMARK                         _______ _______ _______ _____ _____    ______ ____
ROOT
ATOM      1  S   UNL     1      -0.271  -7.109  -2.382  0.00  0.00    +0.098 S 
ATOM      2  O   UNL     1      -1.476  -6.797  -3.066  0.00  0.00    -0.148 OA
ATOM      3  O   UNL     1       1.010  -6.920  -2.968  0.00  0.00    -0.148 OA
ENDROOT
BRANCH   1   4
ATOM      4  C   UNL     1      -0.372  -8.810  -1.933  0.00  0.00    +0.148 A 
ATOM      5  C   UNL     1      -1.472  -9.578  -1.764  0.00  0.00    +0.048 A 
ATOM      6  C   UNL     1      -1.250 -10.908  -1.403  0.00  0.00    +0.031 A 
ATOM      7  C   UNL     1       0.037 -11.326  -1.251  0.00  0.00    +0.058 A 
ATOM      8  S   UNL     1       0.948  -9.957  -1.594  0.00  0.00    -0.076 S 
BRANCH   6   9
ATOM      9  C   UNL     1      -2.383 -11.839  -1.191  0.00  0.00    +0.203 A 
ATOM     10  N   UNL     1      -2.280 -13.133  -0.838  0.00  0.00    -0.191 NA
ATOM     11  C   UNL     1      -3.466 -13.663  -0.736  0.00  0.00    +0.231 A 
ATOM     12  O   UNL     1      -4.377 -12.724  -1.021  0.00  0.00    -0.337 OA
ATOM     13  N   UNL     1      -3.654 -11.537  -1.311  0.00  0.00    -0.056 NA
BRANCH  11  14
ATOM     14  C   UNL     1      -3.762 -15.092  -0.361  0.00  0.00    +0.078 C 
ATOM     15  C   UNL     1      -4.595 -15.768  -1.469  0.00  0.00    +0.013 C 
ATOM     16  C   UNL     1      -5.577 -16.686  -0.700  0.00  0.00    +0.001 C 
ATOM     17  C   UNL     1      -5.938 -15.835   0.543  0.00  0.00    +0.001 C 
ATOM     18  C   UNL     1      -4.615 -15.135   0.919  0.00  0.00    +0.013 C 
ENDBRANCH  11  14
ENDBRANCH   6   9
ENDBRANCH   1   4
BRANCH   1  19
ATOM     19  N   UNL     1      -0.283  -6.231  -0.978  0.00  0.00    -0.097 NA
BRANCH  19  23
ATOM     20  C   UNL     1      -0.071  -2.071  -1.121  0.00  0.00    +0.033 A 
ATOM     21  C   UNL     1      -0.152  -2.720   0.104  0.00  0.00    +0.025 A 
ATOM     22  C   UNL     1      -0.222  -4.098   0.151  0.00  0.00    +0.028 A 
ATOM     23  C   UNL     1      -0.212  -4.835  -1.026  0.00  0.00    +0.074 A 
ATOM     24  C   UNL     1      -0.131  -4.185  -2.251  0.00  0.00    +0.028 A 
ATOM     25  C   UNL     1      -0.066  -2.807  -2.298  0.00  0.00    +0.025 A 
BRANCH  20  29
ATOM     26  C   UNL     1      -0.617   1.507  -2.165  0.00  0.00    +0.109 C 
ATOM     27  C   UNL     1      -0.604  -0.000  -2.169  0.00  0.00    +0.214 C 
ATOM     28  O   UNL     1      -1.137  -0.609  -3.073  0.00  0.00    -0.276 OA
ATOM     29  N   UNL     1       0.000  -0.672  -1.169  0.00  0.00    -0.286 N 
ATOM     30  H   UNL     1       0.484  -0.187  -0.482  0.00  0.00    +0.155 HD
ENDBRANCH  20  29
ENDBRANCH  19  23
ENDBRANCH   1  19
TORSDOF 6
