REMARK  Name = ZINC31873724
REMARK  7 active torsions:
REMARK  status: ('A' for Active; 'I' for Inactive)
REMARK    1  A    between atoms: C_1  and  C_2
REMARK    2  A    between atoms: C_2  and  C_3
REMARK    3  A    between atoms: C_2  and  N_4
REMARK    4  A    between atoms: N_4  and  S_5
REMARK    5  A    between atoms: S_5  and  C_8
REMARK    6  A    between atoms: C_12  and  C_14
REMARK    7  A    between atoms: N_16  and  C_17
REMARK                            x       y       z     vdW  Elec       q    Type
REMARK                         _______ _______ _______ _____ _____    ______ ____
ROOT
ATOM      1  C   UNL     1       6.116  -0.908   0.258  0.00  0.00    +0.106 A 
ATOM      2  C   UNL     1       6.137  -2.289   0.355  0.00  0.00    +0.031 A 
ATOM      3  C   UNL     1       4.955  -3.007   0.363  0.00  0.00    +0.041 A 
ATOM      4  C   UNL     1       3.742  -2.348   0.280  0.00  0.00    +0.136 A 
ATOM      5  C   UNL     1       3.715  -0.953   0.176  0.00  0.00    +0.074 A 
ATOM      6  C   UNL     1       4.915  -0.237   0.168  0.00  0.00    +0.044 A 
ATOM      7  F   UNL     1       2.588  -3.049   0.294  0.00  0.00    -0.205 F 
ENDROOT
BRANCH   5   8
ATOM      8  C   UNL     1       2.425  -0.241   0.080  0.00  0.00    +0.251 C 
ATOM      9  O   UNL     1       1.383  -0.868   0.087  0.00  0.00    -0.270 OA
ATOM     10  N   UNL     1       2.403   1.103  -0.015  0.00  0.00    -0.279 N 
ATOM     11  H   UNL     1       3.346   1.665  -0.095  0.00  0.00    +0.155 HD
BRANCH  10  12
ATOM     12  C   UNL     1       1.180   1.785  -0.011  0.00  0.00    +0.072 A 
ATOM     13  C   UNL     1       0.064   1.215  -0.608  0.00  0.00    +0.029 A 
ATOM     14  C   UNL     1      -1.141   1.890  -0.609  0.00  0.00    +0.043 A 
ATOM     15  C   UNL     1      -1.242   3.132  -0.004  0.00  0.00    +0.161 A 
ATOM     16  C   UNL     1      -0.130   3.706   0.594  0.00  0.00    +0.195 A 
ATOM     17  C   UNL     1       1.081   3.034   0.591  0.00  0.00    +0.182 A 
ATOM     18  F   UNL     1       2.165   3.592   1.174  0.00  0.00    -0.200 F 
ATOM     19  F   UNL     1      -0.228   4.920   1.178  0.00  0.00    -0.199 F 
ATOM     20  F   UNL     1      -2.423   3.788  -0.002  0.00  0.00    -0.202 F 
ENDBRANCH  10  12
ENDBRANCH   5   8
BRANCH   1  21
ATOM     21  S   UNL     1       7.629  -0.005   0.249  0.00  0.00    +0.059 S 
ATOM     22  O   UNL     1       8.634  -0.901  -0.205  0.00  0.00    -0.153 OA
ATOM     23  O   UNL     1       7.360   1.230  -0.399  0.00  0.00    -0.153 OA
BRANCH  21  24
ATOM     24  N   UNL     1       7.993   0.355   1.824  0.00  0.00    -0.187 NA
ATOM     25  H   UNL     1       7.845   1.383   2.188  0.00  0.00    +0.148 HD
BRANCH  24  27
ATOM     26  C   UNL     1       9.362  -0.245   3.759  0.00  0.00    +0.025 C 
ATOM     27  C   UNL     1       8.296  -0.721   2.770  0.00  0.00    +0.070 C 
ATOM     28  C   UNL     1       7.026  -1.102   3.534  0.00  0.00    +0.025 C 
ENDBRANCH  24  27
ENDBRANCH  21  24
ENDBRANCH   1  21
TORSDOF 5
