REMARK  Name = ZINC04151708
REMARK  10 active torsions:
REMARK  status: ('A' for Active; 'I' for Inactive)
REMARK    1  A    between atoms: C_1  and  O_2
REMARK    2  A    between atoms: O_2  and  C_3
REMARK    3  A    between atoms: C_3  and  C_5
REMARK    4  A    between atoms: C_5  and  C_7
REMARK    5  A    between atoms: C_5  and  N_14
REMARK    6  A    between atoms: C_7  and  C_8
REMARK    7  A    between atoms: C_15  and  C_17
REMARK    8  A    between atoms: C_20  and  N_32
REMARK    9  A    between atoms: C_25  and  C_27
REMARK   10  A    between atoms: N_35  and  C_36
REMARK                            x       y       z     vdW  Elec       q    Type
REMARK                         _______ _______ _______ _____ _____    ______ ____
ROOT
ATOM      1  C   UNL     1       0.250  -4.003  -2.952  0.00  0.00    +0.163 C 
ATOM      2  C   UNL     1      -0.891  -4.466  -3.863  0.00  0.00    +0.054 C 
ATOM      3  C   UNL     1      -1.486  -5.764  -3.304  0.00  0.00    +0.078 C 
ATOM      4  C   UNL     1      -0.412  -6.853  -3.280  0.00  0.00    +0.041 C 
ATOM      5  C   UNL     1       0.735  -6.414  -2.363  0.00  0.00    +0.110 C 
ATOM      6  N   UNL     1       1.218  -5.099  -2.807  0.00  0.00    -0.291 N 
ATOM      7  C   UNL     1       2.523  -4.902  -3.075  0.00  0.00    +0.202 C 
ATOM      8  O   UNL     1       2.910  -3.812  -3.441  0.00  0.00    -0.277 OA
ENDROOT
BRANCH   7   9
ATOM      9  C   UNL     1       3.504  -6.037  -2.922  0.00  0.00    +0.016 C 
ATOM     10  C   UNL     1       3.436  -6.959  -4.153  0.00  0.00    -0.009 C 
ATOM     11  C   UNL     1       4.861  -6.939  -4.752  0.00  0.00    -0.020 C 
ATOM     12  C   UNL     1       5.735  -6.502  -3.550  0.00  0.00    -0.082 C 
ATOM     13  N   UNL     1       4.875  -5.527  -2.864  0.00  0.00    +0.387 N 
ATOM     14  H   UNL     1       5.170  -5.425  -1.886  0.00  0.00    -0.085 HD
ATOM     15  H   UNL     1       4.931  -4.617  -3.336  0.00  0.00    -0.085 HD
ENDBRANCH   7   9
BRANCH   3  16
ATOM     16  N   UNL     1      -2.599  -6.195  -4.154  0.00  0.00    -0.296 N 
ATOM     17  C   UNL     1      -3.577  -6.969  -3.642  0.00  0.00    +0.304 C 
ATOM     18  O   UNL     1      -3.536  -7.309  -2.476  0.00  0.00    -0.253 OA
ATOM     19  N   UNL     1      -4.601  -7.365  -4.424  0.00  0.00    -0.269 N 
ATOM     20  H   UNL     1      -2.632  -5.924  -5.084  0.00  0.00    +0.151 HD
ATOM     21  H   UNL     1      -4.669  -7.040  -5.335  0.00  0.00    +0.156 HD
BRANCH  19  22
ATOM     22  C   UNL     1      -5.565  -8.246  -3.921  0.00  0.00    +0.037 A 
ATOM     23  C   UNL     1      -5.949  -8.171  -2.588  0.00  0.00    +0.023 A 
ATOM     24  C   UNL     1      -6.901  -9.040  -2.094  0.00  0.00    +0.005 A 
ATOM     25  C   UNL     1      -7.473  -9.987  -2.924  0.00  0.00    +0.038 A 
ATOM     26  C   UNL     1      -7.093 -10.066  -4.253  0.00  0.00    +0.125 A 
ATOM     27  C   UNL     1      -6.144  -9.193  -4.755  0.00  0.00    +0.061 A 
ATOM     28  F   UNL     1      -7.654 -10.992  -5.062  0.00  0.00    -0.205 F 
ENDBRANCH  19  22
ENDBRANCH   3  16
BRANCH   1  30
ATOM     29  N   UNL     1      -0.884  -2.433  -1.413  0.00  0.00    -0.301 N 
ATOM     30  C   UNL     1      -0.302  -3.634  -1.599  0.00  0.00    +0.234 C 
ATOM     31  O   UNL     1      -0.223  -4.418  -0.677  0.00  0.00    -0.274 OA
ATOM     32  H   UNL     1      -0.947  -1.806  -2.150  0.00  0.00    +0.150 HD
BRANCH  29  33
ATOM     33  C   UNL     1      -1.420  -2.074  -0.098  0.00  0.00    +0.182 C 
BRANCH  33  34
ATOM     34  C   UNL     1      -2.821  -2.612   0.037  0.00  0.00    +0.327 C 
ATOM     35  O   UNL     1      -3.321  -3.231  -0.873  0.00  0.00    -0.249 OA
BRANCH  34  37
ATOM     36  C   UNL     1      -4.859  -2.949   1.226  0.00  0.00    +0.280 C 
ATOM     37  O   UNL     1      -3.515  -2.403   1.167  0.00  0.00    -0.467 OA
ENDBRANCH  34  37
ENDBRANCH  33  34
BRANCH  33  38
ATOM     38  C   UNL     1      -1.442  -0.551   0.046  0.00  0.00    +0.037 C 
BRANCH  38  39
ATOM     39  C   UNL     1      -0.009  -0.017   0.034  0.00  0.00    -0.009 C 
ATOM     40  C   UNL     1      -0.034   1.513   0.052  0.00  0.00    +0.003 C 
ATOM     41  C   UNL     1       1.399   2.047   0.040  0.00  0.00    +0.000 C 
ATOM     42  C   UNL     1       2.145   1.535   1.274  0.00  0.00    +0.000 C 
ATOM     43  C   UNL     1       2.170   0.006   1.256  0.00  0.00    +0.000 C 
ATOM     44  C   UNL     1       0.737  -0.529   1.268  0.00  0.00    +0.003 C 
ENDBRANCH  38  39
ENDBRANCH  33  38
ENDBRANCH  29  33
ENDBRANCH   1  30
TORSDOF 9
