REMARK  Name = ZINC60190972
REMARK  3 active torsions:
REMARK  status: ('A' for Active; 'I' for Inactive)
REMARK    1  A    between atoms: C_7  and  C_15
REMARK    2  A    between atoms: N_17  and  C_18
REMARK    3  A    between atoms: C_21  and  N_25
REMARK                            x       y       z     vdW  Elec       q    Type
REMARK                         _______ _______ _______ _____ _____    ______ ____
ROOT
ATOM      1  C   UNL     1       0.004   1.379   0.003  0.00  0.00    +0.001 A 
ATOM      2  C   UNL     1       1.193   2.085   0.005  0.00  0.00    +0.004 A 
ATOM      3  C   UNL     1       2.397   1.411  -0.001  0.00  0.00    +0.046 A 
ATOM      4  C   UNL     1       2.417   0.020  -0.008  0.00  0.00    +0.133 A 
ATOM      5  C   UNL     1       1.225  -0.685  -0.009  0.00  0.00    +0.011 A 
ATOM      6  C   UNL     1       0.021  -0.003  -0.005  0.00  0.00    +0.008 A 
ATOM      7  C   UNL     1       1.220  -2.189  -0.014  0.00  0.00    +0.142 C 
ATOM      8  C   UNL     1       2.562  -2.723  -0.439  0.00  0.00    +0.011 A 
ATOM      9  C   UNL     1       2.667  -4.038  -0.854  0.00  0.00    +0.008 A 
ATOM     10  C   UNL     1       3.890  -4.547  -1.247  0.00  0.00    +0.001 A 
ATOM     11  C   UNL     1       5.014  -3.742  -1.226  0.00  0.00    +0.004 A 
ATOM     12  C   UNL     1       4.915  -2.429  -0.813  0.00  0.00    +0.046 A 
ATOM     13  C   UNL     1       3.685  -1.913  -0.417  0.00  0.00    +0.133 A 
ATOM     14  O   UNL     1       3.610  -0.623  -0.012  0.00  0.00    -0.455 OA
ENDROOT
BRANCH   7  15
ATOM     15  C   UNL     1       0.904  -2.689   1.372  0.00  0.00    +0.229 C 
ATOM     16  O   UNL     1       0.703  -1.900   2.270  0.00  0.00    -0.274 OA
ATOM     17  N   UNL     1       0.844  -4.014   1.613  0.00  0.00    -0.282 N 
ATOM     18  H   UNL     1       0.924  -4.645   0.881  0.00  0.00    +0.155 HD
BRANCH  17  19
ATOM     19  C   UNL     1       0.665  -4.480   2.922  0.00  0.00    +0.069 A 
ATOM     20  C   UNL     1       1.051  -3.695   3.999  0.00  0.00    +0.028 A 
ATOM     21  C   UNL     1       0.873  -4.157   5.289  0.00  0.00    +0.035 A 
ATOM     22  C   UNL     1       0.310  -5.401   5.508  0.00  0.00    +0.129 A 
ATOM     23  C   UNL     1      -0.076  -6.187   4.439  0.00  0.00    +0.073 A 
ATOM     24  C   UNL     1       0.094  -5.728   3.145  0.00  0.00    +0.147 A 
ATOM     25  F   UNL     1      -0.289  -6.494   2.100  0.00  0.00    -0.203 F 
BRANCH  22  26
ATOM     26  N   UNL     1       0.122  -5.891   6.892  0.00  0.00    +0.057 N 
ATOM     27  O   UNL     1       0.459  -5.205   7.828  0.00  0.00    -0.126 OA
ATOM     28  O   UNL     1      -0.370  -6.979   7.086  0.00  0.00    -0.126 OA
ENDBRANCH  22  26
ENDBRANCH  17  19
ENDBRANCH   7  15
TORSDOF 3
