REMARK  Name = ZINC03838503
REMARK  14 active torsions:
REMARK  status: ('A' for Active; 'I' for Inactive)
REMARK    1  A    between atoms: C_1  and  C_2
REMARK    2  A    between atoms: C_2  and  C_3
REMARK    3  A    between atoms: C_2  and  C_4
REMARK    4  A    between atoms: C_4  and  C_6
REMARK    5  A    between atoms: C_4  and  N_10
REMARK    6  A    between atoms: C_6  and  O_8
REMARK    7  A    between atoms: O_8  and  C_9
REMARK    8  A    between atoms: C_11  and  C_13
REMARK    9  A    between atoms: C_16  and  N_27
REMARK   10  A    between atoms: C_21  and  C_23
REMARK   11  A    between atoms: C_23  and  C_25
REMARK   12  A    between atoms: C_23  and  N_67
REMARK   13  A    between atoms: C_26  and  N_67
REMARK   14  A    between atoms: N_30  and  C_31
REMARK                            x       y       z     vdW  Elec       q    Type
REMARK                         _______ _______ _______ _____ _____    ______ ____
ROOT
ATOM      1  C   UNL     1       0.583  -0.968  -3.644  0.00  0.00    +0.163 C 
ATOM      2  C   UNL     1       1.256   0.160  -4.433  0.00  0.00    +0.054 C 
ATOM      3  C   UNL     1       0.179   1.102  -4.983  0.00  0.00    +0.078 C 
ATOM      4  C   UNL     1      -0.744   0.330  -5.929  0.00  0.00    +0.041 C 
ATOM      5  C   UNL     1      -1.437  -0.795  -5.154  0.00  0.00    +0.110 C 
ATOM      6  N   UNL     1      -0.412  -1.623  -4.504  0.00  0.00    -0.291 N 
ATOM      7  C   UNL     1      -0.384  -2.957  -4.692  0.00  0.00    +0.202 C 
ATOM      8  O   UNL     1       0.520  -3.617  -4.226  0.00  0.00    -0.277 OA
ENDROOT
BRANCH   3   9
ATOM      9  N   UNL     1       0.818   2.200  -5.712  0.00  0.00    -0.296 N 
ATOM     10  C   UNL     1       0.182   3.380  -5.846  0.00  0.00    +0.304 C 
ATOM     11  O   UNL     1      -0.922   3.534  -5.362  0.00  0.00    -0.253 OA
ATOM     12  N   UNL     1       0.770   4.390  -6.518  0.00  0.00    -0.269 N 
ATOM     13  H   UNL     1       1.699   2.077  -6.098  0.00  0.00    +0.151 HD
ATOM     14  H   UNL     1       1.677   4.290  -6.847  0.00  0.00    +0.156 HD
BRANCH  12  15
ATOM     15  C   UNL     1       0.073   5.583  -6.739  0.00  0.00    +0.037 A 
ATOM     16  C   UNL     1      -0.808   6.063  -5.778  0.00  0.00    +0.023 A 
ATOM     17  C   UNL     1      -1.495   7.240  -5.997  0.00  0.00    +0.005 A 
ATOM     18  C   UNL     1      -1.307   7.943  -7.173  0.00  0.00    +0.038 A 
ATOM     19  C   UNL     1      -0.430   7.469  -8.134  0.00  0.00    +0.125 A 
ATOM     20  C   UNL     1       0.265   6.292  -7.916  0.00  0.00    +0.061 A 
ATOM     21  F   UNL     1      -0.249   8.158  -9.282  0.00  0.00    -0.205 F 
ENDBRANCH  12  15
ENDBRANCH   3   9
BRANCH   1  23
ATOM     22  N   UNL     1       0.620  -0.107  -1.325  0.00  0.00    -0.301 N 
ATOM     23  C   UNL     1      -0.099  -0.395  -2.428  0.00  0.00    +0.234 C 
ATOM     24  O   UNL     1      -1.295  -0.194  -2.442  0.00  0.00    -0.274 OA
ATOM     25  H   UNL     1       1.577  -0.268  -1.314  0.00  0.00    +0.150 HD
BRANCH  22  26
ATOM     26  C   UNL     1      -0.043   0.449  -0.143  0.00  0.00    +0.184 C 
BRANCH  26  28
ATOM     27  C   UNL     1      -0.973   2.302  -1.537  0.00  0.00    +0.009 C 
ATOM     28  C   UNL     1      -0.154   1.968  -0.288  0.00  0.00    +0.014 C 
ATOM     29  C   UNL     1      -0.847   2.549   0.946  0.00  0.00    +0.009 C 
ENDBRANCH  26  28
BRANCH  26  30
ATOM     30  C   UNL     1       0.764   0.120   1.087  0.00  0.00    +0.328 C 
ATOM     31  O   UNL     1       1.787  -0.514   0.987  0.00  0.00    -0.249 OA
BRANCH  30  32
ATOM     32  O   UNL     1       0.345   0.531   2.294  0.00  0.00    -0.467 OA
ATOM     33  C   UNL     1       1.172   0.179   3.434  0.00  0.00    +0.280 C 
ENDBRANCH  30  32
ENDBRANCH  26  30
ENDBRANCH  22  26
ENDBRANCH   1  23
BRANCH   7  34
ATOM     34  C   UNL     1      -1.477  -3.628  -5.483  0.00  0.00    +0.013 C 
ATOM     35  C   UNL     1      -2.746  -3.711  -4.632  0.00  0.00    -0.004 C 
BRANCH  34  37
ATOM     36  C   UNL     1      -1.753  -5.443  -7.062  0.00  0.00    -0.099 C 
ATOM     37  N   UNL     1      -1.042  -4.989  -5.852  0.00  0.00    +0.385 N 
ATOM     38  H   UNL     1      -1.247  -5.631  -5.078  0.00  0.00    -0.085 HD
ATOM     39  H   UNL     1      -0.032  -4.983  -6.035  0.00  0.00    -0.085 HD
ENDBRANCH  34  37
ENDBRANCH   7  34
TORSDOF 9
