REMARK  Name = ZINC08829257
REMARK  11 active torsions:
REMARK  status: ('A' for Active; 'I' for Inactive)
REMARK    1  A    between atoms: C_1  and  C_2
REMARK    2  A    between atoms: C_5  and  C_8
REMARK    3  A    between atoms: C_8  and  N_9
REMARK    4  A    between atoms: N_9  and  C_10
REMARK    5  A    between atoms: C_10  and  C_12
REMARK    6  A    between atoms: C_10  and  C_18
REMARK    7  A    between atoms: N_20  and  C_21
REMARK    8  A    between atoms: C_21  and  C_22
REMARK    9  A    between atoms: C_28  and  C_30
REMARK   10  A    between atoms: C_30  and  N_31
REMARK   11  A    between atoms: C_32  and  C_34
REMARK                            x       y       z     vdW  Elec       q    Type
REMARK                         _______ _______ _______ _____ _____    ______ ____
ROOT
ATOM      1  N   UNL     1       1.769  -4.561   0.245  0.00  0.00    -0.280 N 
ATOM      2  C   UNL     1       2.084  -5.046  -0.972  0.00  0.00    +0.234 C 
ATOM      3  O   UNL     1       2.968  -5.869  -1.087  0.00  0.00    -0.274 OA
ENDROOT
BRANCH   1   4
ATOM      4  C   UNL     1       0.744  -3.522   0.377  0.00  0.00    +0.144 C 
BRANCH   4   9
ATOM      5  C   UNL     1      -4.141  -5.303  -2.145  0.00  0.00    +0.044 C 
ATOM      6  C   UNL     1      -2.866  -4.838  -1.488  0.00  0.00    -0.050 A 
ATOM      7  C   UNL     1      -1.997  -5.761  -0.936  0.00  0.00    +0.003 A 
ATOM      8  C   UNL     1      -0.829  -5.335  -0.333  0.00  0.00    +0.005 A 
ATOM      9  C   UNL     1      -0.529  -3.986  -0.282  0.00  0.00    -0.030 A 
ATOM     10  C   UNL     1      -1.398  -3.064  -0.834  0.00  0.00    +0.005 A 
ATOM     11  C   UNL     1      -2.564  -3.490  -1.441  0.00  0.00    +0.003 A 
ENDBRANCH   4   9
ENDBRANCH   1   4
BRANCH   1  12
ATOM     12  C   UNL     1       2.451  -5.072   1.437  0.00  0.00    +0.193 C 
BRANCH  12  13
ATOM     13  C   UNL     1       3.730  -4.304   1.652  0.00  0.00    -0.018 A 
ATOM     14  C   UNL     1       3.729  -2.924   1.572  0.00  0.00    +0.006 A 
ATOM     15  C   UNL     1       4.901  -2.219   1.770  0.00  0.00    +0.000 A 
ATOM     16  C   UNL     1       6.075  -2.894   2.048  0.00  0.00    +0.000 A 
ATOM     17  C   UNL     1       6.076  -4.274   2.129  0.00  0.00    +0.000 A 
ATOM     18  C   UNL     1       4.902  -4.979   1.936  0.00  0.00    +0.006 A 
ENDBRANCH  12  13
BRANCH  12  19
ATOM     19  C   UNL     1       1.556  -4.906   2.638  0.00  0.00    +0.238 C 
ATOM     20  O   UNL     1       0.391  -4.606   2.489  0.00  0.00    -0.273 OA
ATOM     21  N   UNL     1       2.052  -5.090   3.878  0.00  0.00    -0.311 N 
ATOM     22  H   UNL     1       2.984  -5.329   3.997  0.00  0.00    +0.149 HD
BRANCH  21  23
ATOM     23  C   UNL     1       1.182  -4.928   5.045  0.00  0.00    +0.135 C 
BRANCH  23  24
ATOM     24  C   UNL     1       1.986  -5.191   6.320  0.00  0.00    +0.135 C 
ATOM     25  C   UNL     1       1.075  -5.059   7.567  0.00  0.00    +0.035 C 
ATOM     26  C   UNL     1       1.838  -5.950   8.585  0.00  0.00    +0.031 C 
ATOM     27  C   UNL     1       2.419  -7.058   7.680  0.00  0.00    +0.160 C 
ATOM     28  O   UNL     1       2.459  -6.547   6.340  0.00  0.00    -0.375 OA
ENDBRANCH  23  24
ENDBRANCH  21  23
ENDBRANCH  12  19
ENDBRANCH   1  12
BRANCH   2  29
ATOM     29  C   UNL     1       1.340  -4.565  -2.191  0.00  0.00    +0.200 C 
BRANCH  29  30
ATOM     30  N   UNL     1       1.983  -5.094  -3.396  0.00  0.00    -0.302 N 
ATOM     31  C   UNL     1       1.485  -4.794  -4.612  0.00  0.00    +0.251 C 
ATOM     32  O   UNL     1       0.502  -4.083  -4.709  0.00  0.00    -0.270 OA
ATOM     33  H   UNL     1       2.766  -5.661  -3.319  0.00  0.00    +0.150 HD
BRANCH  31  34
ATOM     34  C   UNL     1       2.129  -5.323  -5.819  0.00  0.00    +0.074 A 
ATOM     35  C   UNL     1       1.784  -5.133  -7.148  0.00  0.00    +0.021 A 
ATOM     36  C   UNL     1       2.585  -5.764  -8.069  0.00  0.00    +0.008 A 
ATOM     37  C   UNL     1       3.630  -6.511  -7.632  0.00  0.00    +0.046 A 
ATOM     38  S   UNL     1       3.562  -6.373  -5.959  0.00  0.00    -0.092 S 
ENDBRANCH  31  34
ENDBRANCH  29  30
ENDBRANCH   2  29
TORSDOF 10
