REMARK  Name = ZINC15991673
REMARK  6 active torsions:
REMARK  status: ('A' for Active; 'I' for Inactive)
REMARK    1  A    between atoms: C_1  and  C_2
REMARK    2  A    between atoms: N_11  and  C_15
REMARK    3  A    between atoms: C_15  and  C_16
REMARK    4  A    between atoms: C_21  and  C_24
REMARK    5  A    between atoms: C_27  and  N_30
REMARK    6  A    between atoms: C_31  and  C_33
REMARK                            x       y       z     vdW  Elec       q    Type
REMARK                         _______ _______ _______ _____ _____    ______ ____
ROOT
ATOM      1  C   UNL     1      -2.973   0.690   5.585  0.00  0.00    +0.237 C 
ATOM      2  O   UNL     1      -1.791   0.556   5.347  0.00  0.00    -0.274 OA
ATOM      3  N   UNL     1      -3.409   0.683   6.860  0.00  0.00    -0.263 N 
ATOM      4  C   UNL     1      -2.504   0.520   7.902  0.00  0.00    +0.165 A 
ATOM      5  N   UNL     1      -2.727   0.485   9.203  0.00  0.00    -0.225 NA
ATOM      6  C   UNL     1      -1.735   0.321  10.066  0.00  0.00    +0.080 A 
ATOM      7  C   UNL     1      -0.457   0.186   9.601  0.00  0.00    +0.076 A 
ATOM      8  S   UNL     1      -0.732   0.297   7.838  0.00  0.00    -0.060 S 
ATOM      9  H   UNL     1      -4.354   0.790   7.050  0.00  0.00    +0.157 HD
ENDROOT
BRANCH   6  10
ATOM     10  C   UNL     1      -2.009   0.284  11.523  0.00  0.00    +0.001 A 
ATOM     11  C   UNL     1      -0.962   0.105  12.426  0.00  0.00    +0.012 A 
ATOM     12  C   UNL     1      -1.219   0.076  13.781  0.00  0.00    +0.024 A 
ATOM     13  C   UNL     1      -2.521   0.214  14.245  0.00  0.00    +0.033 A 
ATOM     14  C   UNL     1      -3.567   0.388  13.347  0.00  0.00    +0.024 A 
ATOM     15  C   UNL     1      -3.315   0.423  11.992  0.00  0.00    +0.012 A 
BRANCH  13  16
ATOM     16  N   UNL     1      -2.780   0.179  15.620  0.00  0.00    -0.286 N 
ATOM     17  C   UNL     1      -3.933  -0.349  16.075  0.00  0.00    +0.214 C 
ATOM     18  O   UNL     1      -4.704  -0.880  15.303  0.00  0.00    -0.276 OA
ATOM     19  C   UNL     1      -4.266  -0.281  17.543  0.00  0.00    +0.109 C 
ATOM     20  H   UNL     1      -2.129   0.534  16.245  0.00  0.00    +0.155 HD
ENDBRANCH  13  16
ENDBRANCH   6  10
BRANCH   1  21
ATOM     21  C   UNL     1      -3.954   0.866   4.454  0.00  0.00    +0.214 C 
BRANCH  21  31
ATOM     22  C   UNL     1       0.056   1.059   2.519  0.00  0.00    +0.010 C 
ATOM     23  C   UNL     1      -0.592   1.721   1.302  0.00  0.00    +0.018 C 
ATOM     24  C   UNL     1       0.042   1.168   0.023  0.00  0.00    +0.006 C 
ATOM     25  C   UNL     1      -0.621   1.817  -1.194  0.00  0.00    +0.000 C 
ATOM     26  C   UNL     1      -2.116   1.493  -1.196  0.00  0.00    +0.003 C 
ATOM     27  C   UNL     1      -2.758   2.047   0.078  0.00  0.00    +0.035 C 
ATOM     28  C   UNL     1      -2.088   1.425   1.298  0.00  0.00    +0.115 C 
ATOM     29  C   UNL     1      -2.729   1.932   2.569  0.00  0.00    +0.247 C 
ATOM     30  O   UNL     1      -2.777   3.078   2.961  0.00  0.00    -0.273 OA
ATOM     31  N   UNL     1      -3.237   0.839   3.177  0.00  0.00    -0.215 N 
ATOM     32  C   UNL     1      -3.004  -0.272   2.468  0.00  0.00    +0.310 C 
ATOM     33  O   UNL     1      -3.365  -1.381   2.812  0.00  0.00    -0.252 OA
ATOM     34  N   UNL     1      -2.325  -0.024   1.332  0.00  0.00    -0.285 N 
ATOM     35  H   UNL     1      -2.047  -0.674   0.668  0.00  0.00    +0.151 HD
ENDBRANCH  21  31
ENDBRANCH   1  21
TORSDOF 4
