REMARK  Name = ZINC30757094
REMARK  10 active torsions:
REMARK  status: ('A' for Active; 'I' for Inactive)
REMARK    1  A    between atoms: C_1  and  C_2
REMARK    2  A    between atoms: C_5  and  S_8
REMARK    3  A    between atoms: S_8  and  N_11
REMARK    4  A    between atoms: N_11  and  C_12
REMARK    5  A    between atoms: C_15  and  C_19
REMARK    6  A    between atoms: N_21  and  C_22
REMARK    7  A    between atoms: C_22  and  C_24
REMARK    8  A    between atoms: C_22  and  C_25
REMARK    9  A    between atoms: C_27  and  C_32
REMARK   10  A    between atoms: C_30  and  C_31
REMARK                            x       y       z     vdW  Elec       q    Type
REMARK                         _______ _______ _______ _____ _____    ______ ____
ROOT
ATOM      1  C   UNL     1      -1.041   1.598   0.108  0.00  0.00    +0.093 A 
ATOM      2  C   UNL     1       0.253   1.091   0.181  0.00  0.00    +0.029 A 
ATOM      3  C   UNL     1       1.317   1.941   0.373  0.00  0.00    +0.015 A 
ATOM      4  C   UNL     1       1.098   3.316   0.499  0.00  0.00    +0.038 A 
ATOM      5  C   UNL     1      -0.203   3.823   0.430  0.00  0.00    +0.035 A 
ATOM      6  C   UNL     1      -1.264   2.967   0.238  0.00  0.00    +0.066 A 
ATOM      7 CL   UNL     1      -2.880   3.595   0.152  0.00  0.00    -0.081 Cl
ENDROOT
BRANCH   4   8
ATOM      8  C   UNL     1       2.238   4.230   0.705  0.00  0.00    +0.245 C 
ATOM      9  O   UNL     1       3.369   3.788   0.765  0.00  0.00    -0.270 OA
ATOM     10  N   UNL     1       2.025   5.556   0.827  0.00  0.00    -0.305 N 
ATOM     11  H   UNL     1       1.002   5.956   0.773  0.00  0.00    +0.150 HD
BRANCH  10  12
ATOM     12  C   UNL     1       3.157   6.463   1.032  0.00  0.00    +0.101 C 
ATOM     13  C   UNL     1       3.692   6.925  -0.325  0.00  0.00    +0.033 C 
BRANCH  12  14
ATOM     14  C   UNL     1       2.703   7.660   1.826  0.00  0.00    -0.024 A 
ATOM     15  C   UNL     1       1.378   8.054   1.788  0.00  0.00    +0.009 A 
ATOM     16  C   UNL     1       0.961   9.149   2.521  0.00  0.00    -0.050 A 
ATOM     17  C   UNL     1       1.871   9.858   3.283  0.00  0.00    +0.003 A 
ATOM     18  C   UNL     1       3.196   9.468   3.317  0.00  0.00    +0.004 A 
ATOM     19  C   UNL     1       3.612   8.369   2.589  0.00  0.00    -0.046 A 
ATOM     20  C   UNL     1       5.058   7.944   2.625  0.00  0.00    +0.044 C 
ATOM     21  C   UNL     1      -0.485   9.574   2.484  0.00  0.00    +0.044 C 
ENDBRANCH  12  14
ENDBRANCH  10  12
ENDBRANCH   4   8
BRANCH   1  22
ATOM     22  N   UNL     1      -2.115   0.736  -0.092  0.00  0.00    -0.096 NA
BRANCH  22  23
ATOM     23  S   UNL     1      -2.103  -0.773   0.590  0.00  0.00    +0.092 S 
ATOM     24  O   UNL     1      -3.377  -1.346   0.331  0.00  0.00    -0.148 OA
ATOM     25  O   UNL     1      -0.891  -1.393   0.183  0.00  0.00    -0.148 OA
BRANCH  23  30
ATOM     26  C   UNL     1      -1.732  -0.026   6.566  0.00  0.00    +0.044 C 
ATOM     27  C   UNL     1      -1.825  -0.213   5.074  0.00  0.00    -0.050 A 
ATOM     28  C   UNL     1      -3.062  -0.275   4.460  0.00  0.00    +0.005 A 
ATOM     29  C   UNL     1      -3.147  -0.446   3.091  0.00  0.00    +0.029 A 
ATOM     30  C   UNL     1      -1.995  -0.555   2.335  0.00  0.00    +0.110 A 
ATOM     31  C   UNL     1      -0.757  -0.498   2.949  0.00  0.00    +0.029 A 
ATOM     32  C   UNL     1      -0.672  -0.322   4.318  0.00  0.00    +0.005 A 
ENDBRANCH  23  30
ENDBRANCH  22  23
ENDBRANCH   1  22
TORSDOF 6
