REMARK  Name = ZINC09329451
REMARK  7 active torsions:
REMARK  status: ('A' for Active; 'I' for Inactive)
REMARK    1  A    between atoms: C_5  and  N_8
REMARK    2  A    between atoms: C_11  and  C_15
REMARK    3  A    between atoms: C_11  and  N_19
REMARK    4  A    between atoms: C_13  and  O_14
REMARK    5  A    between atoms: C_20  and  C_22
REMARK    6  A    between atoms: C_22  and  C_23
REMARK    7  A    between atoms: C_23  and  C_24
REMARK                            x       y       z     vdW  Elec       q    Type
REMARK                         _______ _______ _______ _____ _____    ______ ____
ROOT
ATOM      1  N   UNL     1       1.976  -1.046  -2.987  0.00  0.00    -0.219 N 
ATOM      2  C   UNL     1       3.095  -1.800  -2.998  0.00  0.00    +0.279 C 
ATOM      3  O   UNL     1       3.957  -1.854  -2.147  0.00  0.00    -0.270 OA
ATOM      4  C   UNL     1       3.040  -2.566  -4.305  0.00  0.00    +0.304 C 
ATOM      5  N   UNL     1       1.787  -2.111  -4.928  0.00  0.00    -0.192 NA
ATOM      6  C   UNL     1       1.238  -1.258  -4.123  0.00  0.00    +0.288 C 
ENDROOT
BRANCH   1  11
ATOM      7  C   UNL     1      -0.019   1.538   0.011  0.00  0.00    +0.000 C 
ATOM      8  C   UNL     1       1.401   2.036  -0.000  0.00  0.00    +0.000 C 
ATOM      9  C   UNL     1       1.910   2.335  -1.423  0.00  0.00    +0.002 C 
ATOM     10  C   UNL     1       1.480   1.268  -2.449  0.00  0.00    +0.023 C 
ATOM     11  C   UNL     1       1.598  -0.131  -1.907  0.00  0.00    +0.086 C 
ATOM     12  C   UNL     1       0.231  -0.548  -1.328  0.00  0.00    +0.023 C 
ATOM     13  C   UNL     1       0.002  -0.004   0.002  0.00  0.00    +0.002 C 
ENDBRANCH   1  11
BRANCH   4  14
ATOM     14  C   UNL     1       4.238  -2.210  -5.187  0.00  0.00    +0.440 C 
ATOM     15  F   UNL     1       5.423  -2.537  -4.519  0.00  0.00    -0.166 F 
ATOM     16  F   UNL     1       4.165  -2.928  -6.386  0.00  0.00    -0.166 F 
ATOM     17  F   UNL     1       4.222  -0.839  -5.464  0.00  0.00    -0.166 F 
ENDBRANCH   4  14
BRANCH   4  18
ATOM     18  N   UNL     1       2.996  -4.009  -4.054  0.00  0.00    -0.277 N 
ATOM     19  C   UNL     1       4.001  -4.608  -3.386  0.00  0.00    +0.215 C 
ATOM     20  O   UNL     1       4.943  -3.953  -2.992  0.00  0.00    -0.276 OA
ATOM     21  H   UNL     1       2.243  -4.533  -4.369  0.00  0.00    +0.152 HD
BRANCH  19  22
ATOM     22  C   UNL     1       3.955  -6.092  -3.128  0.00  0.00    +0.096 C 
BRANCH  22  23
ATOM     23  C   UNL     1       5.208  -6.515  -2.357  0.00  0.00    +0.013 C 
BRANCH  23  24
ATOM     24  C   UNL     1       5.161  -8.021  -2.095  0.00  0.00    -0.011 C 
ATOM     25  C   UNL     1       3.987  -8.342  -1.167  0.00  0.00    +0.003 C 
ATOM     26  C   UNL     1       3.941  -9.848  -0.906  0.00  0.00    +0.000 C 
ATOM     27  C   UNL     1       5.248 -10.292  -0.246  0.00  0.00    +0.000 C 
ATOM     28  C   UNL     1       6.422  -9.972  -1.174  0.00  0.00    +0.000 C 
ATOM     29  C   UNL     1       6.468  -8.465  -1.436  0.00  0.00    +0.003 C 
ENDBRANCH  23  24
ENDBRANCH  22  23
ENDBRANCH  19  22
ENDBRANCH   4  18
BRANCH   6  30
ATOM     30  O   UNL     1       0.064  -0.640  -4.378  0.00  0.00    -0.481 OA
ATOM     31  H   UNL     1      -0.339  -0.892  -5.220  0.00  0.00    +0.295 HD
ENDBRANCH   6  30
TORSDOF 7
