REMARK  Name = ZINC21082770
REMARK  7 active torsions:
REMARK  status: ('A' for Active; 'I' for Inactive)
REMARK    1  A    between atoms: C_1  and  C_2
REMARK    2  A    between atoms: C_9  and  C_12
REMARK    3  A    between atoms: C_12  and  S_13
REMARK    4  A    between atoms: S_13  and  C_14
REMARK    5  A    between atoms: N_19  and  N_20
REMARK    6  A    between atoms: C_21  and  C_22
REMARK    7  A    between atoms: C_21  and  C_23
REMARK                            x       y       z     vdW  Elec       q    Type
REMARK                         _______ _______ _______ _____ _____    ______ ____
ROOT
ATOM      1  C   UNL     1      -1.131   1.715   0.012  0.00  0.00    +0.210 A 
ATOM      2  N   UNL     1      -0.022   0.919   0.001  0.00  0.00    -0.186 NA
ATOM      3  C   UNL     1       1.079   1.730  -0.004  0.00  0.00    +0.232 A 
ATOM      4  N   UNL     1       0.667   2.974   0.010  0.00  0.00    -0.245 N 
ATOM      5  N   UNL     1      -0.734   2.965   0.023  0.00  0.00    -0.144 NA
ATOM      6  N   UNL     1       2.402   1.309  -0.020  0.00  0.00    -0.205 N 
ATOM      7  H   UNL     1       2.637   0.234  -0.031  0.00  0.00    +0.177 HD
ATOM      8  H   UNL     1       1.398   3.796   0.009  0.00  0.00    +0.192 HD
ENDROOT
BRANCH   6   9
ATOM      9  N   UNL     1       3.437   2.252  -0.023  0.00  0.00    -0.183 NA
ATOM     10  C   UNL     1       4.675   1.858  -0.038  0.00  0.00    +0.081 C 
ATOM     11  C   UNL     1       4.997   0.386  -0.053  0.00  0.00    +0.069 C 
BRANCH  10  12
ATOM     12  C   UNL     1       5.764   2.850  -0.041  0.00  0.00    +0.086 A 
ATOM     13  C   UNL     1       5.460   4.214  -0.033  0.00  0.00    +0.029 A 
ATOM     14  C   UNL     1       6.494   5.132  -0.031  0.00  0.00    +0.004 A 
ATOM     15  C   UNL     1       7.800   4.661  -0.047  0.00  0.00    +0.020 A 
ATOM     16  C   UNL     1       8.031   3.298  -0.060  0.00  0.00    +0.111 A 
ATOM     17  N   UNL     1       7.029   2.442  -0.057  0.00  0.00    -0.254 NA
ENDBRANCH  10  12
ENDBRANCH   6   9
BRANCH   1  18
ATOM     18  S   UNL     1      -2.804   1.161   0.015  0.00  0.00    -0.077 S 
BRANCH  18  19
ATOM     19  C   UNL     1      -3.663   2.753   0.032  0.00  0.00    +0.151 C 
BRANCH  19  28
ATOM     20  C   UNL     1     -10.819   1.613  -1.495  0.00  0.00    +0.044 C 
ATOM     21  C   UNL     1      -9.545   1.816  -0.716  0.00  0.00    -0.048 A 
ATOM     22  C   UNL     1      -9.578   1.801   0.672  0.00  0.00    +0.005 A 
ATOM     23  C   UNL     1      -8.423   1.985   1.401  0.00  0.00    +0.030 A 
ATOM     24  C   UNL     1      -7.218   2.186   0.740  0.00  0.00    +0.089 A 
ATOM     25  C   UNL     1      -7.185   2.201  -0.664  0.00  0.00    +0.066 A 
ATOM     26  C   UNL     1      -8.369   2.012  -1.382  0.00  0.00    +0.031 A 
ATOM     27  N   UNL     1      -5.894   2.414  -1.027  0.00  0.00    -0.341 N 
ATOM     28  C   UNL     1      -5.152   2.521   0.037  0.00  0.00    +0.118 A 
ATOM     29  N   UNL     1      -5.918   2.396   1.155  0.00  0.00    -0.232 NA
ATOM     30  H   UNL     1      -5.439   2.500  -2.025  0.00  0.00    +0.167 HD
ENDBRANCH  19  28
ENDBRANCH  18  19
ENDBRANCH   1  18
TORSDOF 5
