REMARK  Name = ZINC06623857
REMARK  7 active torsions:
REMARK  status: ('A' for Active; 'I' for Inactive)
REMARK    1  A    between atoms: C_1  and  C_2
REMARK    2  A    between atoms: C_6  and  O_28
REMARK    3  A    between atoms: C_7  and  O_27
REMARK    4  A    between atoms: C_12  and  C_13
REMARK    5  A    between atoms: C_13  and  C_14
REMARK    6  A    between atoms: N_16  and  C_17
REMARK    7  A    between atoms: C_17  and  C_18
REMARK                            x       y       z     vdW  Elec       q    Type
REMARK                         _______ _______ _______ _____ _____    ______ ____
ROOT
ATOM      1  C   UNL     1      10.097   0.617   0.449  0.00  0.00    +0.045 C 
ATOM      2  C   UNL     1      10.537  -0.696   1.042  0.00  0.00    -0.029 A 
ATOM      3  C   UNL     1      11.869  -0.846   1.633  0.00  0.00    +0.025 A 
ATOM      4  C   UNL     1      12.769   0.227   1.662  0.00  0.00    +0.015 A 
ATOM      5  C   UNL     1      14.007   0.061   2.213  0.00  0.00    +0.050 A 
ATOM      6  C   UNL     1      14.383  -1.169   2.748  0.00  0.00    +0.162 A 
ATOM      7  C   UNL     1      13.505  -2.244   2.728  0.00  0.00    +0.202 A 
ATOM      8  C   UNL     1      12.241  -2.091   2.170  0.00  0.00    +0.184 A 
ATOM      9  O   UNL     1      11.370  -3.124   2.139  0.00  0.00    -0.418 OA
ATOM     10  C   UNL     1      10.146  -2.992   1.604  0.00  0.00    +0.341 A 
ATOM     11  O   UNL     1       9.395  -3.951   1.598  0.00  0.00    -0.245 OA
ATOM     12  C   UNL     1       9.708  -1.772   1.048  0.00  0.00    +0.049 A 
ENDROOT
BRANCH   7  13
ATOM     13  O   UNL     1      13.881  -3.442   3.252  0.00  0.00    -0.501 OA
ATOM     14  H   UNL     1      14.307  -4.034   2.616  0.00  0.00    +0.292 HD
ENDBRANCH   7  13
BRANCH   6  15
ATOM     15  O   UNL     1      15.619  -1.317   3.292  0.00  0.00    -0.503 OA
ATOM     16  H   UNL     1      16.294  -1.605   2.663  0.00  0.00    +0.292 HD
ENDBRANCH   6  15
BRANCH  12  17
ATOM     17  C   UNL     1       8.326  -1.665   0.457  0.00  0.00    +0.138 C 
BRANCH  17  18
ATOM     18  C   UNL     1       7.355  -1.236   1.526  0.00  0.00    +0.218 C 
ATOM     19  O   UNL     1       7.746  -1.037   2.657  0.00  0.00    -0.275 OA
ATOM     20  N   UNL     1       6.051  -1.073   1.226  0.00  0.00    -0.311 N 
ATOM     21  H   UNL     1       5.738  -1.231   0.322  0.00  0.00    +0.149 HD
BRANCH  20  22
ATOM     22  C   UNL     1       5.107  -0.655   2.265  0.00  0.00    +0.139 C 
BRANCH  22  23
ATOM     23  C   UNL     1       3.725  -0.548   1.674  0.00  0.00    -0.027 A 
ATOM     24  C   UNL     1       2.885  -1.646   1.677  0.00  0.00    +0.009 A 
ATOM     25  C   UNL     1       1.617  -1.553   1.135  0.00  0.00    +0.050 A 
ATOM     26  C   UNL     1       1.183  -0.356   0.589  0.00  0.00    +0.166 A 
ATOM     27  C   UNL     1       2.028   0.751   0.586  0.00  0.00    +0.167 A 
ATOM     28  C   UNL     1       3.298   0.650   1.131  0.00  0.00    +0.054 A 
ATOM     29  O   UNL     1       1.376   1.797  -0.001  0.00  0.00    -0.453 OA
ATOM     30  C   UNL     1      -0.018   1.436   0.010  0.00  0.00    +0.466 C 
ATOM     31  O   UNL     1       0.002  -0.004   0.002  0.00  0.00    -0.453 OA
ENDBRANCH  22  23
ENDBRANCH  20  22
ENDBRANCH  17  18
ENDBRANCH  12  17
TORSDOF 6
