REMARK  Name = ZINC08990177
REMARK  9 active torsions:
REMARK  status: ('A' for Active; 'I' for Inactive)
REMARK    1  A    between atoms: C_1  and  O_2
REMARK    2  A    between atoms: O_2  and  C_3
REMARK    3  A    between atoms: C_5  and  N_11
REMARK    4  A    between atoms: C_7  and  O_9
REMARK    5  A    between atoms: O_9  and  C_10
REMARK    6  A    between atoms: C_12  and  C_14
REMARK    7  A    between atoms: C_21  and  C_23
REMARK    8  A    between atoms: C_23  and  C_24
REMARK    9  A    between atoms: C_24  and  C_25
REMARK                            x       y       z     vdW  Elec       q    Type
REMARK                         _______ _______ _______ _____ _____    ______ ____
ROOT
ATOM      1  C   UNL     1      -3.567   5.036   5.787  0.00  0.00    +0.093 C 
ATOM      2  C   UNL     1      -4.140   3.890   6.624  0.00  0.00    +0.016 C 
ATOM      3  C   UNL     1      -4.968   4.463   7.777  0.00  0.00    +0.020 C 
ATOM      4  C   UNL     1      -4.065   5.313   8.675  0.00  0.00    +0.108 C 
ATOM      5  N   UNL     1      -3.397   6.329   7.850  0.00  0.00    -0.301 N 
ATOM      6  C   UNL     1      -2.648   5.893   6.663  0.00  0.00    +0.120 C 
ATOM      7  C   UNL     1      -3.470   7.635   8.175  0.00  0.00    +0.216 C 
ATOM      8  O   UNL     1      -2.914   8.463   7.486  0.00  0.00    -0.276 OA
ENDROOT
BRANCH   1  10
ATOM      9  N   UNL     1      -2.176   5.301   3.759  0.00  0.00    -0.285 N 
ATOM     10  C   UNL     1      -2.778   4.472   4.633  0.00  0.00    +0.222 C 
ATOM     11  O   UNL     1      -2.686   3.271   4.492  0.00  0.00    -0.275 OA
ATOM     12  H   UNL     1      -2.184   6.259   3.913  0.00  0.00    +0.155 HD
BRANCH   9  15
ATOM     13  C   UNL     1       0.229   4.886   1.003  0.00  0.00    +0.125 A 
ATOM     14  C   UNL     1      -0.400   5.399   2.127  0.00  0.00    +0.069 A 
ATOM     15  C   UNL     1      -1.537   4.781   2.627  0.00  0.00    +0.040 A 
ATOM     16  C   UNL     1      -2.038   3.644   2.009  0.00  0.00    +0.069 A 
ATOM     17  C   UNL     1      -1.405   3.129   0.888  0.00  0.00    +0.125 A 
ATOM     18  C   UNL     1      -0.271   3.750   0.385  0.00  0.00    +0.091 A 
BRANCH  13  20
ATOM     19  C   UNL     1       1.940   4.908  -0.648  0.00  0.00    +0.277 C 
ATOM     20  O   UNL     1       1.340   5.494   0.509  0.00  0.00    -0.495 OA
ENDBRANCH  13  20
BRANCH  17  21
ATOM     21  O   UNL     1      -1.895   2.015   0.282  0.00  0.00    -0.495 OA
ATOM     22  C   UNL     1      -1.192   1.540  -0.867  0.00  0.00    +0.277 C 
ENDBRANCH  17  21
ENDBRANCH   9  15
ENDBRANCH   1  10
BRANCH   7  23
ATOM     23  C   UNL     1      -4.242   8.065   9.395  0.00  0.00    +0.100 C 
BRANCH  23  24
ATOM     24  C   UNL     1      -4.167   9.587   9.536  0.00  0.00    +0.046 C 
BRANCH  24  25
ATOM     25  C   UNL     1      -4.940  10.018  10.756  0.00  0.00    -0.022 A 
ATOM     26  C   UNL     1      -6.215  10.434  10.788  0.00  0.00    +0.087 A 
ATOM     27  N   UNL     1      -6.574  10.740  12.072  0.00  0.00    -0.360 N 
ATOM     28  H   UNL     1      -7.448  11.063  12.345  0.00  0.00    +0.165 HD
ATOM     29  C   UNL     1      -5.511  10.523  12.920  0.00  0.00    +0.047 A 
ATOM     30  C   UNL     1      -4.442  10.055  12.133  0.00  0.00    +0.003 A 
ATOM     31  C   UNL     1      -3.218   9.753  12.732  0.00  0.00    +0.010 A 
ATOM     32  C   UNL     1      -3.067   9.905  14.082  0.00  0.00    +0.001 A 
ATOM     33  C   UNL     1      -4.120  10.360  14.862  0.00  0.00    +0.002 A 
ATOM     34  C   UNL     1      -5.335  10.669  14.292  0.00  0.00    +0.026 A 
ENDBRANCH  24  25
ENDBRANCH  23  24
ENDBRANCH   7  23
TORSDOF 7
