REMARK  Name = ZINC09126649
REMARK  7 active torsions:
REMARK  status: ('A' for Active; 'I' for Inactive)
REMARK    1  A    between atoms: C_1  and  C_2
REMARK    2  A    between atoms: C_5  and  S_24
REMARK    3  A    between atoms: C_7  and  N_8
REMARK    4  A    between atoms: C_9  and  C_11
REMARK    5  A    between atoms: C_11  and  S_12
REMARK    6  A    between atoms: S_12  and  C_13
REMARK    7  A    between atoms: S_24  and  N_27
REMARK                            x       y       z     vdW  Elec       q    Type
REMARK                         _______ _______ _______ _____ _____    ______ ____
ROOT
ATOM      1  N   UNL     1      -3.491   0.539   3.695  0.00  0.00    -0.285 N 
ATOM      2  C   UNL     1      -4.218  -0.279   2.907  0.00  0.00    +0.227 C 
ATOM      3  O   UNL     1      -4.002  -0.320   1.714  0.00  0.00    -0.275 OA
ATOM      4  H   UNL     1      -3.619   0.524   4.657  0.00  0.00    +0.155 HD
ENDROOT
BRANCH   1  11
ATOM      5  C   UNL     1      -3.111   3.085   4.907  0.00  0.00    +0.045 C 
ATOM      6  C   UNL     1      -2.336   2.659   3.686  0.00  0.00    -0.029 A 
ATOM      7  C   UNL     1      -1.409   3.515   3.123  0.00  0.00    +0.007 A 
ATOM      8  C   UNL     1      -0.694   3.123   2.006  0.00  0.00    +0.029 A 
ATOM      9  C   UNL     1      -0.912   1.879   1.443  0.00  0.00    +0.107 A 
ATOM     10  C   UNL     1      -1.837   1.019   2.002  0.00  0.00    +0.052 A 
ATOM     11  C   UNL     1      -2.553   1.407   3.127  0.00  0.00    +0.038 A 
BRANCH   9  12
ATOM     12  S   UNL     1      -0.003   1.387   0.016  0.00  0.00    +0.061 S 
ATOM     13  O   UNL     1       0.006  -0.034   0.010  0.00  0.00    -0.153 OA
ATOM     14  O   UNL     1       1.192   2.156   0.011  0.00  0.00    -0.153 OA
BRANCH  12  15
ATOM     15  N   UNL     1      -0.877   1.860  -1.308  0.00  0.00    -0.172 NA
ATOM     16  C   UNL     1      -1.873   0.965  -1.918  0.00  0.00    +0.137 C 
ATOM     17  C   UNL     1      -3.188   1.746  -2.074  0.00  0.00    +0.177 C 
ATOM     18  O   UNL     1      -2.926   2.969  -2.766  0.00  0.00    -0.377 OA
ATOM     19  C   UNL     1      -2.045   3.857  -2.074  0.00  0.00    +0.177 C 
ATOM     20  C   UNL     1      -0.676   3.186  -1.914  0.00  0.00    +0.137 C 
ENDBRANCH  12  15
ENDBRANCH   9  12
ENDBRANCH   1  11
BRANCH   2  21
ATOM     21  C   UNL     1      -5.298  -1.141   3.508  0.00  0.00    +0.173 C 
BRANCH  21  22
ATOM     22  S   UNL     1      -6.086  -2.117   2.203  0.00  0.00    -0.079 S 
BRANCH  22  23
ATOM     23  C   UNL     1      -7.271  -3.004   3.158  0.00  0.00    +0.168 A 
ATOM     24  N   UNL     1      -8.162  -3.912   2.658  0.00  0.00    -0.333 N 
ATOM     25  H   UNL     1      -8.254  -4.187   1.701  0.00  0.00    +0.168 HD
ATOM     26  C   UNL     1      -8.912  -4.381   3.724  0.00  0.00    +0.068 A 
ATOM     27  C   UNL     1      -9.945  -5.298   3.843  0.00  0.00    +0.047 A 
ATOM     28  C   UNL     1     -10.499  -5.553   5.082  0.00  0.00    +0.043 A 
ATOM     29  C   UNL     1     -10.027  -4.899   6.210  0.00  0.00    +0.022 A 
ATOM     30  C   UNL     1      -9.000  -3.986   6.111  0.00  0.00    +0.031 A 
ATOM     31  C   UNL     1      -8.430  -3.716   4.864  0.00  0.00    +0.090 A 
ATOM     32  N   UNL     1      -7.428  -2.895   4.455  0.00  0.00    -0.222 NA
ATOM     33 CL   UNL     1     -11.794  -6.700   5.228  0.00  0.00    -0.083 Cl
ENDBRANCH  22  23
ENDBRANCH  21  22
ENDBRANCH   2  21
TORSDOF 6
