REMARK  Name = ZINC13460527
REMARK  11 active torsions:
REMARK  status: ('A' for Active; 'I' for Inactive)
REMARK    1  A    between atoms: C_1  and  C_2
REMARK    2  A    between atoms: C_5  and  C_31
REMARK    3  A    between atoms: C_6  and  N_8
REMARK    4  A    between atoms: C_9  and  C_30
REMARK    5  A    between atoms: C_10  and  C_24
REMARK    6  A    between atoms: C_11  and  C_16
REMARK    7  A    between atoms: C_19  and  C_22
REMARK    8  A    between atoms: C_24  and  O_26
REMARK    9  A    between atoms: O_26  and  C_27
REMARK   10  A    between atoms: C_27  and  C_28
REMARK   11  A    between atoms: C_27  and  C_29
REMARK                            x       y       z     vdW  Elec       q    Type
REMARK                         _______ _______ _______ _____ _____    ______ ____
ROOT
ATOM      1  N   UNL     1      -5.454   6.601   0.948  0.00  0.00    -0.255 N 
ATOM      2  C   UNL     1      -5.592   5.587   1.853  0.00  0.00    +0.027 C 
ATOM      3  C   UNL     1      -5.404   4.299   1.490  0.00  0.00    +0.078 C 
ATOM      4  C   UNL     1      -5.036   4.019   0.047  0.00  0.00    +0.141 C 
ATOM      5  N   UNL     1      -4.912   5.182  -0.848  0.00  0.00    -0.315 N 
ATOM      6  C   UNL     1      -5.130   6.410  -0.338  0.00  0.00    +0.142 C 
ATOM      7  S   UNL     1      -4.989   7.771  -1.367  0.00  0.00    -0.018 S 
ATOM      8  C   UNL     1      -5.959   5.910   3.278  0.00  0.00    +0.062 C 
ATOM      9  H   UNL     1      -4.679   5.067  -1.782  0.00  0.00    +0.149 HD
ENDROOT
BRANCH   1  15
ATOM     10  C   UNL     1      -8.512  10.378   1.697  0.00  0.00    +0.044 C 
ATOM     11  C   UNL     1      -7.135   9.769   1.763  0.00  0.00    -0.049 A 
ATOM     12  C   UNL     1      -6.076  10.507   2.260  0.00  0.00    +0.004 A 
ATOM     13  C   UNL     1      -4.812   9.952   2.322  0.00  0.00    +0.005 A 
ATOM     14  C   UNL     1      -4.602   8.658   1.888  0.00  0.00    -0.029 A 
ATOM     15  C   UNL     1      -5.663   7.914   1.389  0.00  0.00    +0.043 A 
ATOM     16  C   UNL     1      -6.931   8.476   1.323  0.00  0.00    +0.027 A 
ATOM     17  C   UNL     1      -3.223   8.053   1.956  0.00  0.00    +0.045 C 
ENDBRANCH   1  15
BRANCH   4  18
ATOM     18  C   UNL     1      -3.720   3.284   0.037  0.00  0.00    -0.023 A 
ATOM     19  C   UNL     1      -3.705   1.900   0.030  0.00  0.00    +0.006 A 
ATOM     20  C   UNL     1      -2.505   1.220   0.021  0.00  0.00    +0.015 A 
ATOM     21  C   UNL     1      -1.304   1.932   0.019  0.00  0.00    +0.063 A 
ATOM     22  C   UNL     1      -1.326   3.328   0.032  0.00  0.00    +0.015 A 
ATOM     23  C   UNL     1      -2.534   3.995   0.036  0.00  0.00    +0.006 A 
BRANCH  21  24
ATOM     24  C   UNL     1      -0.014   1.210   0.009  0.00  0.00    +0.387 C 
ATOM     25  O   UNL     1       0.002  -0.004   0.002  0.00  0.00    -0.241 OA
ATOM     26  O   UNL     1       1.143   1.900   0.001  0.00  0.00    -0.241 OA
ENDBRANCH  21  24
ENDBRANCH   4  18
BRANCH   3  27
ATOM     27  C   UNL     1      -5.546   3.248   2.425  0.00  0.00    +0.339 C 
ATOM     28  O   UNL     1      -5.843   3.496   3.579  0.00  0.00    -0.245 OA
BRANCH  27  29
ATOM     29  O   UNL     1      -5.354   1.970   2.038  0.00  0.00    -0.459 OA
BRANCH  29  30
ATOM     30  C   UNL     1      -5.515   0.959   3.035  0.00  0.00    +0.171 C 
ATOM     31  C   UNL     1      -6.971   0.489   3.056  0.00  0.00    +0.052 C 
ATOM     32  C   UNL     1      -4.602  -0.226   2.713  0.00  0.00    +0.052 C 
ENDBRANCH  29  30
ENDBRANCH  27  29
ENDBRANCH   3  27
TORSDOF 6
