REMARK  Name = ZINC45842672
REMARK  5 active torsions:
REMARK  status: ('A' for Active; 'I' for Inactive)
REMARK    1  A    between atoms: C_4  and  C_7
REMARK    2  A    between atoms: C_10  and  N_13
REMARK    3  A    between atoms: C_14  and  C_16
REMARK    4  A    between atoms: C_16  and  C_17
REMARK    5  A    between atoms: C_23  and  C_25
REMARK                            x       y       z     vdW  Elec       q    Type
REMARK                         _______ _______ _______ _____ _____    ______ ____
ROOT
ATOM      1  N   UNL     1       7.262  -2.671  -0.084  0.00  0.00    -0.283 N 
ATOM      2  C   UNL     1       7.286  -4.016   0.005  0.00  0.00    +0.223 C 
ATOM      3  O   UNL     1       6.247  -4.642   0.007  0.00  0.00    -0.275 OA
ATOM      4  H   UNL     1       8.092  -2.175  -0.163  0.00  0.00    +0.155 HD
ENDROOT
BRANCH   1   8
ATOM      5  C   UNL     1       3.699  -0.687  -0.020  0.00  0.00    +0.160 A 
ATOM      6  N   UNL     1       3.825  -1.810   0.673  0.00  0.00    -0.234 NA
ATOM      7  C   UNL     1       4.964  -2.480   0.675  0.00  0.00    +0.138 A 
ATOM      8  C   UNL     1       6.040  -1.990  -0.062  0.00  0.00    +0.070 A 
ATOM      9  C   UNL     1       5.870  -0.807  -0.777  0.00  0.00    +0.138 A 
ATOM     10  N   UNL     1       4.700  -0.194  -0.737  0.00  0.00    -0.234 NA
BRANCH   5  14
ATOM     11  C   UNL     1      -0.014   1.383   0.048  0.00  0.00    +0.000 A 
ATOM     12  C   UNL     1       0.136   0.212   0.769  0.00  0.00    +0.001 A 
ATOM     13  C   UNL     1       1.339  -0.464   0.751  0.00  0.00    +0.011 A 
ATOM     14  C   UNL     1       2.404   0.035   0.004  0.00  0.00    +0.019 A 
ATOM     15  C   UNL     1       2.248   1.216  -0.721  0.00  0.00    +0.011 A 
ATOM     16  C   UNL     1       1.040   1.883  -0.695  0.00  0.00    +0.001 A 
ENDBRANCH   5  14
ENDBRANCH   1   8
BRANCH   2  17
ATOM     17  C   UNL     1       8.604  -4.741   0.101  0.00  0.00    +0.152 C 
BRANCH  17  18
ATOM     18  C   UNL     1       8.355  -6.225   0.189  0.00  0.00    +0.059 A 
ATOM     19  C   UNL     1       8.931  -7.092  -0.680  0.00  0.00    +0.072 A 
ATOM     20  S   UNL     1       8.277  -8.643  -0.085  0.00  0.00    -0.060 S 
ATOM     21  C   UNL     1       7.356  -8.035   1.186  0.00  0.00    +0.165 A 
ATOM     22  N   UNL     1       7.571  -6.739   1.119  0.00  0.00    -0.229 NA
ATOM     23  N   UNL     1       6.564  -8.732   2.089  0.00  0.00    -0.258 N 
ATOM     24  C   UNL     1       6.469 -10.074   2.005  0.00  0.00    +0.285 C 
ATOM     25  O   UNL     1       7.076 -10.675   1.137  0.00  0.00    -0.266 OA
ATOM     26  H   UNL     1       6.080  -8.254   2.780  0.00  0.00    +0.157 HD
BRANCH  24  27
ATOM     27  C   UNL     1       5.633 -10.811   2.958  0.00  0.00    +0.189 A 
ATOM     28  C   UNL     1       5.453 -12.164   2.989  0.00  0.00    +0.054 A 
ATOM     29  C   UNL     1       4.582 -12.431   4.056  0.00  0.00    +0.042 A 
ATOM     30  C   UNL     1       4.272 -11.244   4.623  0.00  0.00    +0.196 A 
ATOM     31  O   UNL     1       4.912 -10.271   3.962  0.00  0.00    -0.458 OA
ENDBRANCH  24  27
ENDBRANCH  17  18
ENDBRANCH   2  17
TORSDOF 5
