REMARK  Name = ZINC36219048
REMARK  15 active torsions:
REMARK  status: ('A' for Active; 'I' for Inactive)
REMARK    1  A    between atoms: C_1  and  C_2
REMARK    2  A    between atoms: C_5  and  C_8
REMARK    3  A    between atoms: C_8  and  N_9
REMARK    4  A    between atoms: C_10  and  C_30
REMARK    5  A    between atoms: C_12  and  C_17
REMARK    6  A    between atoms: C_21  and  N_23
REMARK    7  A    between atoms: C_24  and  C_26
REMARK    8  A    between atoms: C_26  and  C_27
REMARK    9  A    between atoms: C_27  and  C_28
REMARK   10  A    between atoms: C_27  and  C_29
REMARK   11  A    between atoms: N_32  and  C_33
REMARK   12  A    between atoms: C_33  and  C_34
REMARK   13  A    between atoms: C_34  and  N_35
REMARK   14  A    between atoms: N_35  and  C_36
REMARK   15  A    between atoms: N_35  and  C_37
REMARK                            x       y       z     vdW  Elec       q    Type
REMARK                         _______ _______ _______ _____ _____    ______ ____
ROOT
ATOM      1  N   UNL     1       1.224  -5.001  -0.402  0.00  0.00    -0.248 N 
ATOM      2  C   UNL     1       2.298  -5.268  -1.379  0.00  0.00    +0.210 C 
ATOM      3  C   UNL     1       3.572  -5.117  -0.514  0.00  0.00    +0.238 C 
ATOM      4  O   UNL     1       3.070  -5.385   0.809  0.00  0.00    -0.440 OA
ATOM      5  C   UNL     1       1.765  -5.064   0.829  0.00  0.00    +0.405 C 
ATOM      6  O   UNL     1       1.138  -4.857   1.850  0.00  0.00    -0.226 OA
ENDROOT
BRANCH   3   7
ATOM      7  C   UNL     1       4.615  -6.130  -0.910  0.00  0.00    -0.003 A 
ATOM      8  C   UNL     1       4.519  -7.433  -0.457  0.00  0.00    +0.007 A 
ATOM      9  C   UNL     1       5.473  -8.367  -0.818  0.00  0.00    +0.002 A 
ATOM     10  C   UNL     1       6.526  -8.000  -1.633  0.00  0.00    +0.023 A 
ATOM     11  C   UNL     1       6.625  -6.692  -2.090  0.00  0.00    +0.034 A 
ATOM     12  C   UNL     1       5.662  -5.758  -1.730  0.00  0.00    +0.030 A 
BRANCH  11  13
ATOM     13  N   UNL     1       7.691  -6.317  -2.916  0.00  0.00    -0.285 N 
ATOM     14  C   UNL     1       8.208  -7.201  -3.792  0.00  0.00    +0.217 C 
ATOM     15  O   UNL     1       7.692  -8.290  -3.931  0.00  0.00    -0.275 OA
ATOM     16  H   UNL     1       8.057  -5.421  -2.858  0.00  0.00    +0.155 HD
BRANCH  14  17
ATOM     17  C   UNL     1       9.428  -6.837  -4.598  0.00  0.00    +0.099 C 
BRANCH  17  18
ATOM     18  C   UNL     1       9.806  -8.008  -5.508  0.00  0.00    -0.008 C 
ATOM     19  C   UNL     1       8.695  -8.236  -6.535  0.00  0.00    +0.008 C 
ATOM     20  C   UNL     1      11.114  -7.688  -6.234  0.00  0.00    +0.008 C 
ENDBRANCH  17  18
ENDBRANCH  14  17
ENDBRANCH  11  13
ENDBRANCH   3   7
BRANCH   2  21
ATOM     21  C   UNL     1       2.276  -4.251  -2.492  0.00  0.00    +0.238 C 
ATOM     22  O   UNL     1       1.835  -3.140  -2.289  0.00  0.00    -0.274 OA
ATOM     23  N   UNL     1       2.747  -4.577  -3.712  0.00  0.00    -0.315 N 
ATOM     24  H   UNL     1       3.101  -5.466  -3.874  0.00  0.00    +0.149 HD
BRANCH  23  25
ATOM     25  C   UNL     1       2.726  -3.589  -4.793  0.00  0.00    +0.085 C 
BRANCH  25  26
ATOM     26  C   UNL     1       3.313  -4.210  -6.063  0.00  0.00    -0.061 C 
BRANCH  26  27
ATOM     27  N   UNL     1       3.291  -3.219  -7.147  0.00  0.00    +0.377 N 
ATOM     28  C   UNL     1       3.963  -3.773  -8.330  0.00  0.00    -0.097 C 
ATOM     29  C   UNL     1       1.899  -2.890  -7.483  0.00  0.00    -0.097 C 
ATOM     30  H   UNL     1       3.772  -2.383  -6.848  0.00  0.00    -0.083 HD
ENDBRANCH  26  27
ENDBRANCH  25  26
ENDBRANCH  23  25
ENDBRANCH   2  21
BRANCH   1  31
ATOM     31  C   UNL     1      -0.177  -4.713  -0.717  0.00  0.00    +0.147 C 
BRANCH  31  36
ATOM     32  C   UNL     1      -3.240  -9.611  -0.545  0.00  0.00    +0.044 C 
ATOM     33  C   UNL     1      -2.441  -8.333  -0.590  0.00  0.00    -0.050 A 
ATOM     34  C   UNL     1      -2.232  -7.608   0.569  0.00  0.00    +0.003 A 
ATOM     35  C   UNL     1      -1.499  -6.437   0.527  0.00  0.00    +0.005 A 
ATOM     36  C   UNL     1      -0.975  -5.991  -0.672  0.00  0.00    -0.030 A 
ATOM     37  C   UNL     1      -1.184  -6.716  -1.830  0.00  0.00    +0.005 A 
ATOM     38  C   UNL     1      -1.913  -7.890  -1.788  0.00  0.00    +0.003 A 
ENDBRANCH  31  36
ENDBRANCH   1  31
TORSDOF 10
