REMARK  Name = ZINC66856561
REMARK  8 active torsions:
REMARK  status: ('A' for Active; 'I' for Inactive)
REMARK    1  A    between atoms: C_1  and  C_2
REMARK    2  A    between atoms: C_2  and  C_3
REMARK    3  A    between atoms: C_3  and  C_5
REMARK    4  A    between atoms: C_3  and  C_6
REMARK    5  A    between atoms: N_8  and  C_9
REMARK    6  A    between atoms: C_9  and  C_10
REMARK    7  A    between atoms: N_12  and  C_13
REMARK    8  A    between atoms: C_16  and  C_19
REMARK                            x       y       z     vdW  Elec       q    Type
REMARK                         _______ _______ _______ _____ _____    ______ ____
ROOT
ATOM      1  C   UNL     1      -5.486  -6.559   0.481  0.00  0.00    +0.033 A 
ATOM      2  C   UNL     1      -6.589  -5.728   0.320  0.00  0.00    +0.024 A 
ATOM      3  C   UNL     1      -7.862  -6.244   0.422  0.00  0.00    +0.013 A 
ATOM      4  C   UNL     1      -8.044  -7.603   0.688  0.00  0.00    +0.019 A 
ATOM      5  C   UNL     1      -6.934  -8.434   0.849  0.00  0.00    +0.013 A 
ATOM      6  C   UNL     1      -5.663  -7.913   0.740  0.00  0.00    +0.024 A 
ENDROOT
BRANCH   4   7
ATOM      7  C   UNL     1      -9.409  -8.160   0.798  0.00  0.00    +0.164 A 
ATOM      8  N   UNL     1      -9.747  -9.311   1.345  0.00  0.00    -0.129 NA
ATOM      9  N   UNL     1     -11.023  -9.473   1.266  0.00  0.00    -0.134 NA
ATOM     10  C   UNL     1     -11.563  -8.451   0.674  0.00  0.00    +0.134 A 
ATOM     11  N   UNL     1     -10.560  -7.581   0.362  0.00  0.00    -0.311 N 
ATOM     12  C   UNL     1     -10.747  -6.298  -0.314  0.00  0.00    +0.125 C 
ATOM     13  C   UNL     1     -12.131  -6.286  -0.972  0.00  0.00    +0.022 C 
ATOM     14  C   UNL     1     -13.190  -6.709   0.050  0.00  0.00    +0.009 C 
ATOM     15  C   UNL     1     -13.018  -8.203   0.366  0.00  0.00    +0.076 C 
ENDBRANCH   4   7
BRANCH   1  18
ATOM     16  C   UNL     1      -3.937  -4.788   0.827  0.00  0.00    +0.234 C 
ATOM     17  O   UNL     1      -4.840  -4.095   1.246  0.00  0.00    -0.274 OA
ATOM     18  N   UNL     1      -4.195  -6.032   0.377  0.00  0.00    -0.284 N 
ATOM     19  H   UNL     1      -3.486  -6.561  -0.019  0.00  0.00    +0.155 HD
BRANCH  16  20
ATOM     20  C   UNL     1      -2.526  -4.258   0.809  0.00  0.00    +0.200 C 
BRANCH  20  23
ATOM     21  C   UNL     1      -1.348  -2.216   1.426  0.00  0.00    +0.216 C 
ATOM     22  O   UNL     1      -0.316  -2.735   1.056  0.00  0.00    -0.276 OA
ATOM     23  N   UNL     1      -2.509  -2.895   1.345  0.00  0.00    -0.306 N 
ATOM     24  H   UNL     1      -3.335  -2.480   1.641  0.00  0.00    +0.149 HD
BRANCH  21  25
ATOM     25  C   UNL     1      -1.331  -0.814   1.977  0.00  0.00    +0.072 C 
ATOM     26  C   UNL     1      -2.223   0.083   1.117  0.00  0.00    +0.017 C 
BRANCH  25  28
ATOM     27  C   UNL     1       0.139   1.097   2.632  0.00  0.00    +0.004 C 
ATOM     28  C   UNL     1       0.102  -0.276   1.959  0.00  0.00    +0.009 C 
ENDBRANCH  25  28
ENDBRANCH  21  25
ENDBRANCH  20  23
ENDBRANCH  16  20
ENDBRANCH   1  18
TORSDOF 6
