REMARK  Name = ZINC39539100
REMARK  8 active torsions:
REMARK  status: ('A' for Active; 'I' for Inactive)
REMARK    1  A    between atoms: C_1  and  C_2
REMARK    2  A    between atoms: C_2  and  C_3
REMARK    3  A    between atoms: C_2  and  C_4
REMARK    4  A    between atoms: C_2  and  C_5
REMARK    5  A    between atoms: C_8  and  O_30
REMARK    6  A    between atoms: C_9  and  N_11
REMARK    7  A    between atoms: C_12  and  C_14
REMARK    8  A    between atoms: C_20  and  C_22
REMARK                            x       y       z     vdW  Elec       q    Type
REMARK                         _______ _______ _______ _____ _____    ______ ____
ROOT
ATOM      1  N   UNL     1       4.175   0.494  -3.651  0.00  0.00    -0.282 N 
ATOM      2  C   UNL     1       4.785   1.290  -2.750  0.00  0.00    +0.220 C 
ATOM      3  O   UNL     1       4.143   1.790  -1.851  0.00  0.00    -0.275 OA
ATOM      4  H   UNL     1       4.697   0.049  -4.337  0.00  0.00    +0.155 HD
ENDROOT
BRANCH   2   5
ATOM      5  C   UNL     1       6.264   1.558  -2.860  0.00  0.00    +0.078 C 
ATOM      6  C   UNL     1       7.030   0.236  -2.767  0.00  0.00    +0.032 C 
ATOM      7  C   UNL     1       8.530   0.509  -2.914  0.00  0.00    +0.109 C 
ATOM      8  N   UNL     1       8.929   1.510  -1.915  0.00  0.00    -0.297 N 
ATOM      9  C   UNL     1       8.197   2.782  -1.858  0.00  0.00    +0.109 C 
ATOM     10  C   UNL     1       6.700   2.484  -1.723  0.00  0.00    +0.032 C 
ATOM     11  C   UNL     1       9.947   1.265  -1.066  0.00  0.00    +0.249 C 
ATOM     12  O   UNL     1      10.585   0.234  -1.164  0.00  0.00    -0.270 OA
BRANCH  11  13
ATOM     13  C   UNL     1      10.288   2.247  -0.019  0.00  0.00    +0.072 A 
ATOM     14  C   UNL     1      10.521   3.582  -0.359  0.00  0.00    +0.019 A 
ATOM     15  C   UNL     1      10.839   4.495   0.622  0.00  0.00    +0.039 A 
ATOM     16  C   UNL     1      10.928   4.093   1.947  0.00  0.00    +0.126 A 
ATOM     17  C   UNL     1      10.698   2.772   2.293  0.00  0.00    +0.077 A 
ATOM     18  C   UNL     1      10.373   1.847   1.319  0.00  0.00    +0.138 A 
ATOM     19  F   UNL     1      10.143   0.559   1.656  0.00  0.00    -0.205 F 
ATOM     20  F   UNL     1      11.240   4.994   2.904  0.00  0.00    -0.205 F 
ENDBRANCH  11  13
ENDBRANCH   2   5
BRANCH   1  25
ATOM     21  C   UNL     1       0.759   0.158  -2.327  0.00  0.00    -0.040 A 
ATOM     22  C   UNL     1       0.043  -0.054  -3.491  0.00  0.00    +0.008 A 
ATOM     23  C   UNL     1       0.693  -0.085  -4.710  0.00  0.00    +0.047 A 
ATOM     24  C   UNL     1       2.065   0.097  -4.770  0.00  0.00    +0.138 A 
ATOM     25  C   UNL     1       2.787   0.310  -3.598  0.00  0.00    +0.076 A 
ATOM     26  C   UNL     1       2.128   0.346  -2.378  0.00  0.00    +0.031 A 
BRANCH  21  28
ATOM     27  C   UNL     1       0.257   1.553  -0.340  0.00  0.00    +0.015 C 
ATOM     28  C   UNL     1       0.045   0.190  -1.000  0.00  0.00    -0.013 C 
ATOM     29  C   UNL     1       0.605  -0.909  -0.093  0.00  0.00    +0.015 C 
ATOM     30  C   UNL     1      -1.451  -0.043  -1.220  0.00  0.00    +0.015 C 
ENDBRANCH  21  28
BRANCH  24  31
ATOM     31  O   UNL     1       2.706   0.066  -5.969  0.00  0.00    -0.505 OA
ATOM     32  H   UNL     1       2.772   0.928  -6.401  0.00  0.00    +0.292 HD
ENDBRANCH  24  31
ENDBRANCH   1  25
TORSDOF 5
