REMARK  Name = ZINC56052012
REMARK  7 active torsions:
REMARK  status: ('A' for Active; 'I' for Inactive)
REMARK    1  A    between atoms: C_1  and  C_2
REMARK    2  A    between atoms: C_5  and  C_23
REMARK    3  A    between atoms: C_7  and  S_8
REMARK    4  A    between atoms: S_8  and  N_11
REMARK    5  A    between atoms: C_15  and  C_17
REMARK    6  A    between atoms: C_23  and  O_25
REMARK    7  A    between atoms: O_25  and  C_26
REMARK                            x       y       z     vdW  Elec       q    Type
REMARK                         _______ _______ _______ _____ _____    ______ ____
ROOT
ATOM      1  S   UNL     1       0.230   0.373   2.770  0.00  0.00    +0.062 S 
ATOM      2  O   UNL     1      -0.822   1.328   2.761  0.00  0.00    -0.153 OA
ATOM      3  O   UNL     1       0.412  -0.551   3.834  0.00  0.00    -0.153 OA
ENDROOT
BRANCH   1  10
ATOM      4  C   UNL     1      -0.138   1.557   0.015  0.00  0.00    +0.046 C 
ATOM      5  C   UNL     1      -0.109   0.052   0.080  0.00  0.00    -0.024 A 
ATOM      6  C   UNL     1      -0.241  -0.691  -1.080  0.00  0.00    +0.006 A 
ATOM      7  C   UNL     1      -0.216  -2.068  -1.028  0.00  0.00    +0.015 A 
ATOM      8  C   UNL     1      -0.056  -2.715   0.200  0.00  0.00    +0.061 A 
ATOM      9  C   UNL     1       0.077  -1.960   1.367  0.00  0.00    +0.043 A 
ATOM     10  C   UNL     1       0.055  -0.582   1.299  0.00  0.00    +0.109 A 
BRANCH   8  11
ATOM     11  C   UNL     1      -0.029  -4.190   0.263  0.00  0.00    +0.339 C 
ATOM     12  O   UNL     1       0.110  -4.750   1.333  0.00  0.00    -0.245 OA
BRANCH  11  13
ATOM     13  O   UNL     1      -0.158  -4.916  -0.864  0.00  0.00    -0.464 OA
ATOM     14  C   UNL     1      -0.122  -6.338  -0.729  0.00  0.00    +0.280 C 
ENDBRANCH  11  13
ENDBRANCH   8  11
ENDBRANCH   1  10
BRANCH   1  15
ATOM     15  N   UNL     1       1.644   1.225   2.635  0.00  0.00    -0.168 NA
ATOM     16  C   UNL     1       1.761   2.635   2.221  0.00  0.00    +0.110 C 
ATOM     17  C   UNL     1       3.201   2.766   1.665  0.00  0.00    +0.019 C 
ATOM     18  C   UNL     1       3.992   1.839   2.625  0.00  0.00    +0.028 C 
ATOM     19  C   UNL     1       2.989   0.702   2.915  0.00  0.00    +0.126 C 
BRANCH  19  20
ATOM     20  C   UNL     1       3.087   0.284   4.359  0.00  0.00    +0.035 A 
ATOM     21  C   UNL     1       2.488   0.897   5.401  0.00  0.00    +0.024 A 
ATOM     22  C   UNL     1       2.840   0.187   6.566  0.00  0.00    +0.019 A 
ATOM     23  C   UNL     1       3.640  -0.832   6.192  0.00  0.00    +0.083 A 
ATOM     24  N   UNL     1       3.791  -0.781   4.838  0.00  0.00    -0.363 N 
ATOM     25  H   UNL     1       4.314  -1.399   4.304  0.00  0.00    +0.165 HD
ENDBRANCH  19  20
ENDBRANCH   1  15
TORSDOF 5
