REMARK  Name = ZINC23955447
REMARK  13 active torsions:
REMARK  status: ('A' for Active; 'I' for Inactive)
REMARK    1  A    between atoms: C_1  and  C_2
REMARK    2  A    between atoms: C_5  and  S_8
REMARK    3  A    between atoms: S_8  and  N_11
REMARK    4  A    between atoms: N_11  and  C_12
REMARK    5  A    between atoms: C_12  and  C_14
REMARK    6  A    between atoms: C_12  and  C_18
REMARK    7  A    between atoms: C_14  and  C_15
REMARK    8  A    between atoms: C_15  and  C_16
REMARK    9  A    between atoms: C_15  and  C_17
REMARK   10  A    between atoms: N_20  and  C_21
REMARK   11  A    between atoms: C_21  and  C_22
REMARK   12  A    between atoms: C_27  and  C_28
REMARK   13  A    between atoms: C_28  and  N_29
REMARK                            x       y       z     vdW  Elec       q    Type
REMARK                         _______ _______ _______ _____ _____    ______ ____
ROOT
ATOM      1  C   UNL     1       0.905  -1.952   0.592  0.00  0.00    +0.232 C 
ATOM      2  O   UNL     1       1.561  -1.812  -0.419  0.00  0.00    -0.274 OA
ATOM      3  N   UNL     1       1.189  -2.956   1.445  0.00  0.00    -0.310 N 
ATOM      4  H   UNL     1       0.552  -3.125   2.326  0.00  0.00    +0.149 HD
ENDROOT
BRANCH   1   5
ATOM      5  C   UNL     1      -0.225  -1.003   0.894  0.00  0.00    +0.162 C 
BRANCH   5   6
ATOM      6  N   UNL     1      -0.142   0.156   0.001  0.00  0.00    -0.178 NA
ATOM      7  H   UNL     1       0.363   0.065  -0.972  0.00  0.00    +0.149 HD
BRANCH   6   8
ATOM      8  S   UNL     1      -0.583   1.656   0.547  0.00  0.00    +0.059 S 
ATOM      9  O   UNL     1      -0.378   2.557  -0.532  0.00  0.00    -0.153 OA
ATOM     10  O   UNL     1      -1.845   1.502   1.182  0.00  0.00    -0.153 OA
BRANCH   8  15
ATOM     11  C   UNL     1       3.341   3.208   4.859  0.00  0.00    +0.044 C 
ATOM     12  C   UNL     1       2.361   2.821   3.782  0.00  0.00    -0.050 A 
ATOM     13  C   UNL     1       2.617   3.150   2.464  0.00  0.00    +0.005 A 
ATOM     14  C   UNL     1       1.718   2.794   1.476  0.00  0.00    +0.029 A 
ATOM     15  C   UNL     1       0.563   2.109   1.806  0.00  0.00    +0.105 A 
ATOM     16  C   UNL     1       0.305   1.784   3.125  0.00  0.00    +0.029 A 
ATOM     17  C   UNL     1       1.206   2.136   4.112  0.00  0.00    +0.005 A 
ENDBRANCH   8  15
ENDBRANCH   6   8
ENDBRANCH   5   6
BRANCH   5  18
ATOM     18  C   UNL     1      -1.561  -1.717   0.680  0.00  0.00    +0.032 C 
BRANCH  18  19
ATOM     19  C   UNL     1      -1.718  -2.829   1.719  0.00  0.00    -0.015 C 
ATOM     20  C   UNL     1      -1.814  -2.211   3.116  0.00  0.00    +0.007 C 
ATOM     21  C   UNL     1      -2.990  -3.626   1.426  0.00  0.00    +0.007 C 
ENDBRANCH  18  19
ENDBRANCH   5  18
ENDBRANCH   1   5
BRANCH   3  22
ATOM     22  C   UNL     1       2.344  -3.822   1.199  0.00  0.00    +0.139 C 
BRANCH  22  23
ATOM     23  C   UNL     1       2.438  -4.856   2.291  0.00  0.00    -0.026 A 
ATOM     24  C   UNL     1       3.394  -4.730   3.283  0.00  0.00    +0.005 A 
ATOM     25  C   UNL     1       3.477  -5.676   4.287  0.00  0.00    +0.000 A 
ATOM     26  C   UNL     1       2.611  -6.754   4.295  0.00  0.00    +0.000 A 
ATOM     27  C   UNL     1       1.660  -6.883   3.301  0.00  0.00    +0.005 A 
ATOM     28  C   UNL     1       1.573  -5.934   2.299  0.00  0.00    -0.029 A 
BRANCH  28  29
ATOM     29  C   UNL     1       0.535  -6.075   1.215  0.00  0.00    +0.120 C 
BRANCH  29  30
ATOM     30  N   UNL     1      -0.019  -7.435   1.243  0.00  0.00    -0.294 NA
ATOM     31  C   UNL     1       0.946  -8.409   0.713  0.00  0.00    +0.113 C 
ATOM     32  C   UNL     1       0.352  -9.816   0.815  0.00  0.00    +0.175 C 
ATOM     33  O   UNL     1      -0.894  -9.854   0.115  0.00  0.00    -0.377 OA
ATOM     34  C   UNL     1      -1.859  -8.918   0.605  0.00  0.00    +0.175 C 
ATOM     35  C   UNL     1      -1.287  -7.502   0.501  0.00  0.00    +0.113 C 
ENDBRANCH  29  30
ENDBRANCH  28  29
ENDBRANCH  22  23
ENDBRANCH   3  22
TORSDOF 10
