REMARK  Name = ZINC12537689
REMARK  5 active torsions:
REMARK  status: ('A' for Active; 'I' for Inactive)
REMARK    1  A    between atoms: N_11  and  C_12
REMARK    2  A    between atoms: C_12  and  C_14
REMARK    3  A    between atoms: C_14  and  S_15
REMARK    4  A    between atoms: S_15  and  C_16
REMARK    5  A    between atoms: C_19  and  N_22
REMARK                            x       y       z     vdW  Elec       q    Type
REMARK                         _______ _______ _______ _____ _____    ______ ____
ROOT
ATOM      1  C   UNL     1       4.916  -3.248  -0.162  0.00  0.00    +0.249 C 
ATOM      2  O   UNL     1       5.508  -2.186  -0.163  0.00  0.00    -0.273 OA
ENDROOT
BRANCH   1  13
ATOM      3  C   UNL     1      -0.018   1.375  -0.018  0.00  0.00    +0.002 A 
ATOM      4  C   UNL     1       1.167   2.090  -0.015  0.00  0.00    +0.002 A 
ATOM      5  C   UNL     1       2.379   1.429  -0.020  0.00  0.00    +0.028 A 
ATOM      6  C   UNL     1       2.410   0.041  -0.029  0.00  0.00    +0.065 A 
ATOM      7  C   UNL     1       1.214  -0.680  -0.032  0.00  0.00    +0.065 A 
ATOM      8  C   UNL     1       0.001  -0.005  -0.027  0.00  0.00    +0.028 A 
ATOM      9  N   UNL     1       1.549  -2.030  -0.041  0.00  0.00    -0.326 N 
ATOM     10  H   UNL     1       0.924  -2.771  -0.045  0.00  0.00    +0.169 HD
ATOM     11  C   UNL     1       2.904  -2.132  -0.042  0.00  0.00    +0.198 A 
ATOM     12  N   UNL     1       3.447  -0.886  -0.035  0.00  0.00    -0.326 N 
ATOM     13  N   UNL     1       3.591  -3.271  -0.050  0.00  0.00    -0.146 NA
ATOM     14  H   UNL     1       4.394  -0.678  -0.035  0.00  0.00    +0.169 HD
ENDBRANCH   1  13
BRANCH   1  15
ATOM     15  C   UNL     1       5.684  -4.538  -0.290  0.00  0.00    +0.172 C 
BRANCH  15  16
ATOM     16  S   UNL     1       7.456  -4.176  -0.425  0.00  0.00    -0.116 S 
BRANCH  16  17
ATOM     17  C   UNL     1       8.206  -5.765  -0.565  0.00  0.00    +0.008 A 
ATOM     18  C   UNL     1       7.419  -6.910  -0.557  0.00  0.00    +0.017 A 
ATOM     19  C   UNL     1       8.010  -8.153  -0.667  0.00  0.00    +0.034 A 
ATOM     20  C   UNL     1       9.384  -8.259  -0.785  0.00  0.00    +0.126 A 
ATOM     21  C   UNL     1      10.171  -7.122  -0.792  0.00  0.00    +0.034 A 
ATOM     22  C   UNL     1       9.586  -5.875  -0.689  0.00  0.00    +0.017 A 
BRANCH  20  23
ATOM     23  N   UNL     1      10.014  -9.593  -0.902  0.00  0.00    +0.056 N 
ATOM     24  O   UNL     1       9.327 -10.588  -0.896  0.00  0.00    -0.126 OA
ATOM     25  O   UNL     1      11.215  -9.688  -1.005  0.00  0.00    -0.126 OA
ENDBRANCH  20  23
ENDBRANCH  16  17
ENDBRANCH  15  16
ENDBRANCH   1  15
TORSDOF 5
