REMARK  Name = ZINC01870153
REMARK  8 active torsions:
REMARK  status: ('A' for Active; 'I' for Inactive)
REMARK    1  A    between atoms: C_1  and  C_2
REMARK    2  A    between atoms: C_2  and  C_3
REMARK    3  A    between atoms: C_2  and  C_4
REMARK    4  A    between atoms: C_4  and  C_5
REMARK    5  A    between atoms: N_7  and  C_8
REMARK    6  A    between atoms: C_8  and  C_26
REMARK    7  A    between atoms: N_14  and  C_19
REMARK    8  A    between atoms: C_19  and  C_20
REMARK                            x       y       z     vdW  Elec       q    Type
REMARK                         _______ _______ _______ _____ _____    ______ ____
ROOT
ATOM      1  C   UNL     1      -2.558  -4.183  -0.262  0.00  0.00    +0.240 C 
ATOM      2  C   UNL     1      -3.964  -4.724  -0.363  0.00  0.00    +0.096 A 
ATOM      3  C   UNL     1      -5.067  -4.694   0.499  0.00  0.00    +0.262 A 
ATOM      4  N   UNL     1      -6.220  -5.282   0.118  0.00  0.00    -0.275 N 
ATOM      5  C   UNL     1      -6.304  -5.891  -1.080  0.00  0.00    +0.331 A 
ATOM      6  O   UNL     1      -7.350  -6.415  -1.408  0.00  0.00    -0.246 OA
ATOM      7  N   UNL     1      -5.256  -5.929  -1.920  0.00  0.00    -0.274 N 
ATOM      8  C   UNL     1      -4.057  -5.342  -1.575  0.00  0.00    +0.121 A 
ATOM      9  N   UNL     1      -2.870  -5.259  -2.262  0.00  0.00    -0.269 N 
ATOM     10  C   UNL     1      -1.923  -4.596  -1.575  0.00  0.00    +0.256 C 
ATOM     11  O   UNL     1      -0.787  -4.372  -1.935  0.00  0.00    -0.272 OA
ATOM     12  O   UNL     1      -4.986  -4.142   1.583  0.00  0.00    -0.267 OA
ATOM     13  H   UNL     1      -2.731  -5.637  -3.144  0.00  0.00    +0.156 HD
ATOM     14  H   UNL     1      -6.989  -5.267   0.708  0.00  0.00    +0.173 HD
ENDROOT
BRANCH   1  17
ATOM     15  C   UNL     1      -1.416  -2.035  -0.119  0.00  0.00    +0.214 C 
ATOM     16  O   UNL     1      -0.359  -2.623  -0.213  0.00  0.00    -0.276 OA
ATOM     17  N   UNL     1      -2.574  -2.724  -0.133  0.00  0.00    -0.291 N 
ATOM     18  H   UNL     1      -3.419  -2.253  -0.058  0.00  0.00    +0.150 HD
BRANCH  15  19
ATOM     19  C   UNL     1      -1.433  -0.534   0.013  0.00  0.00    +0.098 C 
BRANCH  19  21
ATOM     20  C   UNL     1      -0.019   1.526   0.010  0.00  0.00    +0.008 C 
ATOM     21  C   UNL     1       0.002  -0.004   0.002  0.00  0.00    -0.008 C 
ATOM     22  C   UNL     1       0.742  -0.511   1.242  0.00  0.00    +0.008 C 
ENDBRANCH  19  21
ENDBRANCH  15  19
ENDBRANCH   1  17
BRANCH   1  23
ATOM     23  C   UNL     1      -1.817  -4.817   0.917  0.00  0.00    +0.424 C 
ATOM     24  F   UNL     1      -2.469  -4.487   2.110  0.00  0.00    -0.167 F 
ATOM     25  F   UNL     1      -1.800  -6.207   0.764  0.00  0.00    -0.167 F 
ATOM     26  F   UNL     1      -0.503  -4.336   0.956  0.00  0.00    -0.167 F 
ENDBRANCH   1  23
BRANCH   7  27
ATOM     27  C   UNL     1      -5.389  -6.602  -3.215  0.00  0.00    +0.202 C 
BRANCH  27  28
ATOM     28  C   UNL     1      -5.862  -5.613  -4.249  0.00  0.00    +0.125 A 
ATOM     29  C   UNL     1      -5.074  -4.851  -5.028  0.00  0.00    +0.046 A 
ATOM     30  C   UNL     1      -5.930  -4.077  -5.845  0.00  0.00    +0.041 A 
ATOM     31  C   UNL     1      -7.190  -4.412  -5.516  0.00  0.00    +0.195 A 
ATOM     32  O   UNL     1      -7.143  -5.347  -4.553  0.00  0.00    -0.466 OA
ENDBRANCH  27  28
ENDBRANCH   7  27
TORSDOF 6
