REMARK  Name = ZINC24140986
REMARK  7 active torsions:
REMARK  status: ('A' for Active; 'I' for Inactive)
REMARK    1  A    between atoms: C_3  and  O_29
REMARK    2  A    between atoms: C_6  and  C_7
REMARK    3  A    between atoms: C_10  and  S_13
REMARK    4  A    between atoms: N_11  and  N_12
REMARK    5  A    between atoms: S_13  and  C_14
REMARK    6  A    between atoms: C_14  and  C_15
REMARK    7  A    between atoms: O_29  and  C_30
REMARK                            x       y       z     vdW  Elec       q    Type
REMARK                         _______ _______ _______ _____ _____    ______ ____
ROOT
ATOM      1  C   UNL     1      -0.582  -2.109  -0.022  0.00  0.00    +0.182 A 
ATOM      2  N   UNL     1       0.726  -2.007  -0.035  0.00  0.00    -0.127 NA
ATOM      3  N   UNL     1       1.070  -0.769  -0.028  0.00  0.00    -0.121 NA
ATOM      4  C   UNL     1       0.002  -0.004  -0.009  0.00  0.00    +0.209 A 
ATOM      5  N   UNL     1      -1.087  -0.829   0.001  0.00  0.00    -0.224 N 
ENDROOT
BRANCH   1  11
ATOM      6  C   UNL     1      -2.731  -3.334  -0.316  0.00  0.00    +0.015 A 
ATOM      7  C   UNL     1      -3.457  -4.505  -0.322  0.00  0.00    +0.046 A 
ATOM      8  C   UNL     1      -2.835  -5.712  -0.029  0.00  0.00    +0.127 A 
ATOM      9  C   UNL     1      -1.479  -5.744   0.267  0.00  0.00    +0.046 A 
ATOM     10  C   UNL     1      -0.744  -4.577   0.270  0.00  0.00    +0.015 A 
ATOM     11  C   UNL     1      -1.366  -3.362  -0.025  0.00  0.00    +0.021 A 
BRANCH   8  12
ATOM     12  O   UNL     1      -3.555  -6.864  -0.031  0.00  0.00    -0.434 OA
BRANCH  12  13
ATOM     13  C   UNL     1      -4.946  -6.759  -0.344  0.00  0.00    +0.541 C 
ATOM     14  F   UNL     1      -5.572  -5.926   0.590  0.00  0.00    -0.166 F 
ATOM     15  F   UNL     1      -5.096  -6.219  -1.625  0.00  0.00    -0.166 F 
ENDBRANCH  12  13
ENDBRANCH   8  12
ENDBRANCH   1  11
BRANCH   5  16
ATOM     16  N   UNL     1      -2.402  -0.461   0.025  0.00  0.00    -0.295 N 
ATOM     17  H   UNL     1      -2.674   0.605   0.042  0.00  0.00    +0.163 HD
ATOM     18  H   UNL     1      -3.189  -1.230   0.028  0.00  0.00    +0.163 HD
ENDBRANCH   5  16
BRANCH   4  19
ATOM     19  S   UNL     1      -0.022   1.758   0.008  0.00  0.00    -0.075 S 
BRANCH  19  20
ATOM     20  C   UNL     1       1.756   2.096  -0.009  0.00  0.00    +0.173 C 
BRANCH  20  21
ATOM     21  C   UNL     1       1.984   3.586   0.002  0.00  0.00    +0.226 C 
ATOM     22  O   UNL     1       1.038   4.344   0.020  0.00  0.00    -0.275 OA
ATOM     23  N   UNL     1       3.240   4.076  -0.007  0.00  0.00    -0.297 N 
ATOM     24  C   UNL     1       4.401   3.179   0.093  0.00  0.00    +0.108 C 
ATOM     25  C   UNL     1       5.353   3.465  -1.077  0.00  0.00    +0.019 C 
ATOM     26  C   UNL     1       5.702   4.956  -1.103  0.00  0.00    +0.007 C 
ATOM     27  C   UNL     1       4.423   5.768  -1.297  0.00  0.00    +0.010 C 
ATOM     28  C   UNL     1       3.485   5.518  -0.111  0.00  0.00    +0.079 C 
ATOM     29  C   UNL     1       2.175   6.270  -0.343  0.00  0.00    +0.023 C 
ATOM     30  C   UNL     1       2.471   7.770  -0.440  0.00  0.00    +0.002 C 
ATOM     31  C   UNL     1       3.434   8.035  -1.597  0.00  0.00    +0.000 C 
ATOM     32  C   UNL     1       4.737   7.261  -1.378  0.00  0.00    +0.005 C 
ENDBRANCH  20  21
ENDBRANCH  19  20
ENDBRANCH   4  19
TORSDOF 7
