REMARK  Name = ZINC09312759
REMARK  19 active torsions:
REMARK  status: ('A' for Active; 'I' for Inactive)
REMARK    1  A    between atoms: C_1  and  C_2
REMARK    2  A    between atoms: C_2  and  N_75
REMARK    3  A    between atoms: C_3  and  C_4
REMARK    4  A    between atoms: C_3  and  N_75
REMARK    5  A    between atoms: C_5  and  C_6
REMARK    6  A    between atoms: C_5  and  N_75
REMARK    7  A    between atoms: C_6  and  N_7
REMARK    8  A    between atoms: C_8  and  C_29
REMARK    9  A    between atoms: C_11  and  C_12
REMARK   10  A    between atoms: C_11  and  O_24
REMARK   11  A    between atoms: C_15  and  O_19
REMARK   12  A    between atoms: C_17  and  C_18
REMARK   13  A    between atoms: O_19  and  C_20
REMARK   14  A    between atoms: C_20  and  C_21
REMARK   15  A    between atoms: C_21  and  C_22
REMARK   16  A    between atoms: C_21  and  C_23
REMARK   17  A    between atoms: C_32  and  O_37
REMARK   18  A    between atoms: C_33  and  O_35
REMARK   19  A    between atoms: O_35  and  C_36
REMARK                            x       y       z     vdW  Elec       q    Type
REMARK                         _______ _______ _______ _____ _____    ______ ____
ROOT
ATOM      1  N   UNL     1       1.881   0.304  -0.741  0.00  0.00    -0.285 N 
ATOM      2  C   UNL     1       1.129   1.340  -0.027  0.00  0.00    +0.144 C 
ATOM      3  C   UNL     1      -0.333   0.980  -0.158  0.00  0.00    +0.071 C 
ATOM      4  C   UNL     1      -1.409   1.679   0.356  0.00  0.00    +0.133 C 
ATOM      5  C   UNL     1      -0.378  -0.202  -0.911  0.00  0.00    +0.249 C 
ATOM      6  O   UNL     1      -1.385  -0.808  -1.230  0.00  0.00    -0.282 OA
ATOM      7  C   UNL     1       1.017  -0.589  -1.253  0.00  0.00    +0.288 C 
ATOM      8  O   UNL     1       1.330  -1.567  -1.900  0.00  0.00    -0.266 OA
ENDROOT
BRANCH   4   9
ATOM      9  C   UNL     1      -2.768   1.128   0.237  0.00  0.00    +0.020 A 
ATOM     10  C   UNL     1      -3.100  -0.068   0.886  0.00  0.00    +0.015 A 
ATOM     11  C   UNL     1      -4.374  -0.577   0.775  0.00  0.00    +0.046 A 
ATOM     12  C   UNL     1      -5.327   0.089   0.012  0.00  0.00    +0.121 A 
ATOM     13  C   UNL     1      -5.001   1.274  -0.637  0.00  0.00    +0.049 A 
ATOM     14  C   UNL     1      -3.731   1.794  -0.529  0.00  0.00    -0.036 A 
ATOM     15  C   UNL     1      -3.379   3.078  -1.235  0.00  0.00    +0.044 C 
BRANCH  12  16
ATOM     16  O   UNL     1      -6.580  -0.420  -0.098  0.00  0.00    -0.492 OA
BRANCH  16  17
ATOM     17  C   UNL     1      -6.848  -1.641   0.595  0.00  0.00    +0.232 C 
BRANCH  17  18
ATOM     18  C   UNL     1      -8.301  -2.055   0.354  0.00  0.00    +0.020 C 
ATOM     19  C   UNL     1      -8.500  -2.379  -1.128  0.00  0.00    +0.010 C 
ATOM     20  C   UNL     1      -8.624  -3.292   1.194  0.00  0.00    +0.010 C 
ENDBRANCH  17  18
ENDBRANCH  16  17
ENDBRANCH  12  16
ENDBRANCH   4   9
BRANCH   2  21
ATOM     21  C   UNL     1       1.387   2.687  -0.651  0.00  0.00    -0.019 A 
ATOM     22  C   UNL     1       1.500   2.801  -2.024  0.00  0.00    +0.009 A 
ATOM     23  C   UNL     1       1.731   4.036  -2.601  0.00  0.00    +0.049 A 
ATOM     24  C   UNL     1       1.860   5.161  -1.803  0.00  0.00    +0.158 A 
ATOM     25  C   UNL     1       1.752   5.045  -0.420  0.00  0.00    +0.162 A 
ATOM     26  C   UNL     1       1.515   3.806   0.152  0.00  0.00    +0.055 A 
BRANCH  25  27
ATOM     27  O   UNL     1       1.878   6.146   0.367  0.00  0.00    -0.491 OA
ATOM     28  C   UNL     1       1.756   5.952   1.778  0.00  0.00    +0.277 C 
ENDBRANCH  25  27
BRANCH  24  29
ATOM     29  O   UNL     1       2.094   6.375  -2.369  0.00  0.00    -0.503 OA
ATOM     30  H   UNL     1       3.031   6.586  -2.476  0.00  0.00    +0.292 HD
ENDBRANCH  24  29
ENDBRANCH   2  21
BRANCH   4  31
ATOM     31  O   UNL     1      -1.213   2.867   0.967  0.00  0.00    -0.506 OA
ATOM     32  H   UNL     1      -2.091   3.231   1.276  0.00  0.00    +0.292 HD
ENDBRANCH   4  31
BRANCH   1  33
ATOM     33  C   UNL     1       3.339   0.251  -0.874  0.00  0.00    +0.090 C 
BRANCH  33  34
ATOM     34  C   UNL     1       3.764   1.007  -2.133  0.00  0.00    -0.060 C 
BRANCH  34  35
ATOM     35  N   UNL     1       5.238   0.963  -2.242  0.00  0.00    +0.380 N 
ATOM     36  H   UNL     1       5.647   1.276  -1.354  0.00  0.00    -0.082 HD
BRANCH  35  38
ATOM     37  C   UNL     1       5.004  -0.964  -3.773  0.00  0.00    -0.017 C 
ATOM     38  C   UNL     1       5.682  -0.421  -2.514  0.00  0.00    -0.082 C 
ENDBRANCH  35  38
BRANCH  35  39
ATOM     39  C   UNL     1       5.692   1.861  -3.324  0.00  0.00    -0.082 C 
ATOM     40  C   UNL     1       7.200   2.077  -3.182  0.00  0.00    -0.017 C 
ENDBRANCH  35  39
ENDBRANCH  34  35
ENDBRANCH  33  34
ENDBRANCH   1  33
TORSDOF 13
