REMARK  Name = ZINC39427795
REMARK  9 active torsions:
REMARK  status: ('A' for Active; 'I' for Inactive)
REMARK    1  A    between atoms: C_1  and  C_2
REMARK    2  A    between atoms: C_2  and  N_3
REMARK    3  A    between atoms: N_3  and  C_4
REMARK    4  A    between atoms: N_3  and  C_6
REMARK    5  A    between atoms: C_4  and  C_5
REMARK    6  A    between atoms: C_9  and  C_12
REMARK    7  A    between atoms: C_14  and  C_23
REMARK    8  A    between atoms: C_15  and  C_22
REMARK    9  A    between atoms: N_25  and  C_26
REMARK                            x       y       z     vdW  Elec       q    Type
REMARK                         _______ _______ _______ _____ _____    ______ ____
ROOT
ATOM      1  C   UNL     1      -3.989  -1.473   4.963  0.00  0.00    +0.177 C 
ATOM      2  C   UNL     1      -5.258  -0.665   5.040  0.00  0.00    +0.060 C 
ATOM      3  C   UNL     1      -6.478  -1.205   4.909  0.00  0.00    +0.018 C 
ATOM      4  N   UNL     1      -6.666  -2.550   4.704  0.00  0.00    -0.287 N 
ATOM      5  C   UNL     1      -5.573  -3.384   4.896  0.00  0.00    +0.218 A 
ATOM      6  N   UNL     1      -4.314  -2.895   5.024  0.00  0.00    -0.221 N 
ATOM      7  N   UNL     1      -3.478  -3.995   5.210  0.00  0.00    -0.156 NA
ATOM      8  C   UNL     1      -4.243  -5.059   5.181  0.00  0.00    +0.247 A 
ATOM      9  N   UNL     1      -5.512  -4.684   4.990  0.00  0.00    -0.201 NA
ATOM     10  C   UNL     1      -7.685  -0.305   4.989  0.00  0.00    +0.061 C 
ATOM     11  H   UNL     1      -7.528  -2.903   4.435  0.00  0.00    +0.155 HD
ENDROOT
BRANCH   1  15
ATOM     12  C   UNL     1      -1.981  -0.628   1.287  0.00  0.00    +0.030 A 
ATOM     13  C   UNL     1      -1.350  -0.376   2.498  0.00  0.00    +0.023 A 
ATOM     14  C   UNL     1      -2.002  -0.649   3.684  0.00  0.00    +0.008 A 
ATOM     15  C   UNL     1      -3.281  -1.175   3.667  0.00  0.00    -0.018 A 
ATOM     16  C   UNL     1      -3.912  -1.427   2.462  0.00  0.00    +0.008 A 
ATOM     17  C   UNL     1      -3.268  -1.150   1.273  0.00  0.00    +0.023 A 
BRANCH  12  18
ATOM     18  N   UNL     1      -1.324  -0.352   0.085  0.00  0.00    -0.330 N 
BRANCH  18  20
ATOM     19  C   UNL     1      -0.036   1.727   0.118  0.00  0.00    +0.024 C 
ATOM     20  C   UNL     1       0.033   0.199   0.102  0.00  0.00    +0.102 C 
ENDBRANCH  18  20
BRANCH  18  21
ATOM     21  C   UNL     1      -1.993  -0.613  -1.192  0.00  0.00    +0.102 C 
ATOM     22  C   UNL     1      -1.684  -2.040  -1.647  0.00  0.00    +0.024 C 
ENDBRANCH  18  21
ENDBRANCH  12  18
ENDBRANCH   1  15
BRANCH   2  23
ATOM     23  C   UNL     1      -5.157   0.728   5.261  0.00  0.00    +0.248 C 
ATOM     24  O   UNL     1      -4.970   1.154   6.387  0.00  0.00    -0.270 OA
ATOM     25  N   UNL     1      -5.268   1.585   4.227  0.00  0.00    -0.282 N 
ATOM     26  H   UNL     1      -5.501   1.253   3.345  0.00  0.00    +0.155 HD
BRANCH  25  27
ATOM     27  C   UNL     1      -5.049   2.952   4.424  0.00  0.00    +0.034 A 
ATOM     28  C   UNL     1      -4.223   3.382   5.454  0.00  0.00    +0.023 A 
ATOM     29  C   UNL     1      -4.008   4.733   5.646  0.00  0.00    +0.002 A 
ATOM     30  C   UNL     1      -4.613   5.656   4.813  0.00  0.00    +0.000 A 
ATOM     31  C   UNL     1      -5.436   5.231   3.786  0.00  0.00    +0.002 A 
ATOM     32  C   UNL     1      -5.651   3.881   3.586  0.00  0.00    +0.023 A 
ENDBRANCH  25  27
ENDBRANCH   2  23
TORSDOF 6
