REMARK  Name = ZINC35671615
REMARK  4 active torsions:
REMARK  status: ('A' for Active; 'I' for Inactive)
REMARK    1  A    between atoms: C_3  and  C_6
REMARK    2  A    between atoms: C_6  and  C_8
REMARK    3  A    between atoms: C_6  and  N_24
REMARK    4  A    between atoms: C_8  and  N_9
REMARK                            x       y       z     vdW  Elec       q    Type
REMARK                         _______ _______ _______ _____ _____    ______ ____
ROOT
ATOM      1  N   UNL     1       3.444   2.699  -2.284  0.00  0.00    -0.300 N 
ATOM      2  C   UNL     1       2.314   2.195  -2.848  0.00  0.00    +0.202 A 
ATOM      3  N   UNL     1       1.525   2.892  -3.600  0.00  0.00    -0.235 NA
ATOM      4  C   UNL     1       1.776   4.213  -3.887  0.00  0.00    +0.107 A 
ATOM      5  C   UNL     1       1.002   5.079  -4.687  0.00  0.00    +0.081 A 
ATOM      6  C   UNL     1       1.461   6.368  -4.832  0.00  0.00    +0.070 A 
ATOM      7  S   UNL     1       2.946   6.439  -3.883  0.00  0.00    -0.073 S 
ATOM      8  C   UNL     1       2.941   4.757  -3.313  0.00  0.00    +0.105 A 
ATOM      9  C   UNL     1       3.775   3.994  -2.503  0.00  0.00    +0.268 A 
ATOM     10  O   UNL     1       4.780   4.477  -2.007  0.00  0.00    -0.266 OA
ATOM     11  S   UNL     1       0.669   7.610  -5.783  0.00  0.00    -0.107 S 
ATOM     12  C   UNL     1      -0.256   6.601  -6.989  0.00  0.00    +0.171 C 
ATOM     13  C   UNL     1      -0.800   5.384  -6.296  0.00  0.00    +0.227 C 
ATOM     14  O   UNL     1      -1.894   4.998  -6.653  0.00  0.00    -0.275 OA
ATOM     15  N   UNL     1      -0.205   4.688  -5.332  0.00  0.00    -0.282 N 
ATOM     16  H   UNL     1      -0.620   3.858  -5.050  0.00  0.00    +0.155 HD
ENDROOT
BRANCH   1  17
ATOM     17  C   UNL     1       4.292   1.851  -1.443  0.00  0.00    +0.116 C 
BRANCH  17  18
ATOM     18  C   UNL     1       3.916   2.052   0.027  0.00  0.00    -0.011 C 
BRANCH  18  19
ATOM     19  N   UNL     1       4.837   1.286   0.877  0.00  0.00    +0.386 N 
ATOM     20  C   UNL     1       6.199   1.806   0.713  0.00  0.00    -0.078 C 
ATOM     21  C   UNL     1       7.175   0.960   1.534  0.00  0.00    -0.019 C 
ATOM     22  C   UNL     1       6.777   1.022   3.012  0.00  0.00    -0.004 C 
ATOM     23  C   UNL     1       5.329   0.547   3.161  0.00  0.00    -0.019 C 
ATOM     24  C   UNL     1       4.422   1.408   2.280  0.00  0.00    -0.078 C 
ATOM     25  H   UNL     1       4.815   0.314   0.605  0.00  0.00    -0.081 HD
ENDBRANCH  18  19
BRANCH  18  28
ATOM     26  C   UNL     1       0.166   1.633   0.553  0.00  0.00    +0.008 A 
ATOM     27  C   UNL     1       1.361   2.293   0.338  0.00  0.00    +0.009 A 
ATOM     28  C   UNL     1       2.505   1.572   0.254  0.00  0.00    -0.022 A 
ATOM     29  S   UNL     1       1.908  -0.095   0.481  0.00  0.00    -0.103 S 
ATOM     30  C   UNL     1       0.174   0.283   0.673  0.00  0.00    +0.045 A 
ENDBRANCH  18  28
ENDBRANCH  17  18
ENDBRANCH   1  17
TORSDOF 4
