REMARK  Name = ZINC30822731
REMARK  8 active torsions:
REMARK  status: ('A' for Active; 'I' for Inactive)
REMARK    1  A    between atoms: C_1  and  C_2
REMARK    2  A    between atoms: C_9  and  C_17
REMARK    3  A    between atoms: C_10  and  C_11
REMARK    4  A    between atoms: C_18  and  C_32
REMARK    5  A    between atoms: N_21  and  N_22
REMARK    6  A    between atoms: N_22  and  C_23
REMARK    7  A    between atoms: C_23  and  N_25
REMARK    8  A    between atoms: N_25  and  C_26
REMARK                            x       y       z     vdW  Elec       q    Type
REMARK                         _______ _______ _______ _____ _____    ______ ____
ROOT
ATOM      1  C   UNL     1      -0.267   0.258  -0.100  0.00  0.00    +0.051 C 
ATOM      2  C   UNL     1      -0.879   0.638   1.224  0.00  0.00    +0.035 A 
ATOM      3  C   UNL     1      -2.104   1.277   1.260  0.00  0.00    +0.144 A 
ATOM      4  C   UNL     1      -2.678   1.629   2.494  0.00  0.00    +0.026 A 
ATOM      5  C   UNL     1      -2.015   1.346   3.682  0.00  0.00    +0.024 A 
ATOM      6  C   UNL     1      -0.781   0.708   3.638  0.00  0.00    +0.029 A 
ATOM      7  C   UNL     1      -0.207   0.350   2.406  0.00  0.00    +0.142 A 
ATOM      8  O   UNL     1       0.974  -0.246   2.668  0.00  0.00    -0.459 OA
ATOM      9  C   UNL     1       1.208  -0.301   3.990  0.00  0.00    +0.111 A 
ATOM     10  C   UNL     1       0.180   0.262   4.665  0.00  0.00    +0.031 A 
ATOM     11  C   UNL     1       2.434  -0.902   4.627  0.00  0.00    +0.087 C 
ATOM     12  C   UNL     1      -3.991   2.308   2.508  0.00  0.00    -0.002 A 
ATOM     13  C   UNL     1      -4.598   2.562   1.312  0.00  0.00    +0.076 A 
ATOM     14  C   UNL     1      -3.963   2.175   0.109  0.00  0.00    +0.212 A 
ATOM     15  N   UNL     1      -4.553   2.423  -1.033  0.00  0.00    -0.275 N 
ATOM     16  O   UNL     1      -2.762   1.555   0.108  0.00  0.00    -0.438 OA
ATOM     17  H   UNL     1      -4.122   2.041  -1.970  0.00  0.00    +0.187 HD
ENDROOT
BRANCH  10  18
ATOM     18  C   UNL     1       0.047   0.403   6.135  0.00  0.00    -0.014 A 
ATOM     19  C   UNL     1      -0.970  -0.267   6.813  0.00  0.00    +0.008 A 
ATOM     20  C   UNL     1      -1.086  -0.136   8.181  0.00  0.00    +0.001 A 
ATOM     21  C   UNL     1      -0.202   0.667   8.879  0.00  0.00    +0.000 A 
ATOM     22  C   UNL     1       0.806   1.339   8.211  0.00  0.00    +0.001 A 
ATOM     23  C   UNL     1       0.935   1.211   6.843  0.00  0.00    +0.008 A 
ENDBRANCH  10  18
BRANCH  12  24
ATOM     24  C   UNL     1      -4.631   2.700   3.783  0.00  0.00    -0.017 A 
ATOM     25  C   UNL     1      -4.603   1.833   4.877  0.00  0.00    +0.008 A 
ATOM     26  C   UNL     1      -5.197   2.207   6.064  0.00  0.00    +0.001 A 
ATOM     27  C   UNL     1      -5.828   3.434   6.170  0.00  0.00    +0.000 A 
ATOM     28  C   UNL     1      -5.864   4.296   5.088  0.00  0.00    +0.001 A 
ATOM     29  C   UNL     1      -5.269   3.936   3.896  0.00  0.00    +0.008 A 
ENDBRANCH  12  24
BRANCH  15  30
ATOM     30  N   UNL     1      -5.735   3.176  -1.062  0.00  0.00    -0.239 N 
ATOM     31  H   UNL     1      -6.120   3.630  -0.137  0.00  0.00    +0.174 HD
BRANCH  30  32
ATOM     32  C   UNL     1      -6.398   3.345  -2.223  0.00  0.00    +0.149 C 
ATOM     33  S   UNL     1      -7.842   4.265  -2.258  0.00  0.00    -0.017 S 
BRANCH  32  34
ATOM     34  N   UNL     1      -5.925   2.789  -3.356  0.00  0.00    -0.322 N 
ATOM     35  H   UNL     1      -4.998   2.199  -3.333  0.00  0.00    +0.148 HD
BRANCH  34  36
ATOM     36  C   UNL     1      -6.647   2.973  -4.618  0.00  0.00    +0.072 C 
ATOM     37  C   UNL     1      -7.714   1.871  -4.781  0.00  0.00    +0.022 C 
ATOM     38  C   UNL     1      -7.697   1.547  -6.296  0.00  0.00    +0.002 C 
ATOM     39  C   UNL     1      -6.191   1.640  -6.648  0.00  0.00    +0.002 C 
ATOM     40  C   UNL     1      -5.678   2.826  -5.805  0.00  0.00    +0.022 C 
ENDBRANCH  34  36
ENDBRANCH  32  34
ENDBRANCH  30  32
ENDBRANCH  15  30
TORSDOF 6
