REMARK  Name = ZINC34735148
REMARK  8 active torsions:
REMARK  status: ('A' for Active; 'I' for Inactive)
REMARK    1  A    between atoms: C_1  and  C_2
REMARK    2  A    between atoms: C_2  and  C_4
REMARK    3  A    between atoms: C_4  and  N_5
REMARK    4  A    between atoms: N_18  and  C_21
REMARK    5  A    between atoms: C_21  and  C_22
REMARK    6  A    between atoms: N_24  and  C_25
REMARK    7  A    between atoms: C_33  and  C_35
REMARK    8  A    between atoms: C_33  and  C_36
REMARK                            x       y       z     vdW  Elec       q    Type
REMARK                         _______ _______ _______ _____ _____    ______ ____
ROOT
ATOM      1  N   UNL     1      -2.701  -1.181   2.594  0.00  0.00    -0.276 N 
ATOM      2  C   UNL     1      -2.352  -2.063   3.549  0.00  0.00    +0.264 A 
ATOM      3  O   UNL     1      -1.730  -3.071   3.260  0.00  0.00    -0.267 OA
ATOM      4  C   UNL     1      -2.719  -1.801   4.907  0.00  0.00    +0.076 A 
ATOM      5  C   UNL     1      -2.449  -2.609   6.094  0.00  0.00    -0.018 A 
ATOM      6  C   UNL     1      -2.906  -2.139   7.275  0.00  0.00    +0.021 A 
ATOM      7  S   UNL     1      -3.711  -0.613   6.881  0.00  0.00    -0.071 S 
ATOM      8  C   UNL     1      -3.432  -0.610   5.128  0.00  0.00    +0.118 A 
ATOM      9  N   UNL     1      -3.747   0.219   4.139  0.00  0.00    -0.208 NA
ATOM     10  C   UNL     1      -3.392  -0.045   2.898  0.00  0.00    +0.202 A 
ATOM     11  N   UNL     1      -3.725   0.833   1.897  0.00  0.00    -0.304 N 
ATOM     12  C   UNL     1      -2.913   2.033   1.641  0.00  0.00    +0.089 C 
ATOM     13  C   UNL     1      -3.845   3.248   1.585  0.00  0.00    -0.059 C 
ATOM     14  N   UNL     1      -4.901   3.008   0.594  0.00  0.00    +0.387 N 
ATOM     15  C   UNL     1      -5.743   1.884   1.022  0.00  0.00    -0.059 C 
ATOM     16  C   UNL     1      -4.902   0.598   1.046  0.00  0.00    +0.089 C 
ATOM     17  C   UNL     1      -2.748  -2.797   8.611  0.00  0.00    +0.203 C 
ATOM     18  O   UNL     1      -2.317  -4.149   8.389  0.00  0.00    -0.368 OA
ATOM     19  C   UNL     1      -1.222  -4.256   7.476  0.00  0.00    +0.068 C 
ATOM     20  C   UNL     1      -1.688  -3.932   6.053  0.00  0.00    +0.071 C 
ATOM     21  C   UNL     1      -0.123  -3.273   7.885  0.00  0.00    +0.041 C 
ATOM     22  C   UNL     1      -0.665  -5.680   7.515  0.00  0.00    +0.041 C 
ATOM     23  H   UNL     1      -4.481   2.792  -0.298  0.00  0.00    -0.081 HD
ENDROOT
BRANCH   1  24
ATOM     24  C   UNL     1      -2.329  -1.444   1.202  0.00  0.00    +0.158 C 
BRANCH  24  26
ATOM     25  C   UNL     1      -0.605   0.437   0.649  0.00  0.00    +0.040 C 
ATOM     26  C   UNL     1      -0.906  -1.004   0.971  0.00  0.00    -0.060 C 
ATOM     27  C   UNL     1       0.070  -1.875   1.051  0.00  0.00    +0.009 C 
ENDBRANCH  24  26
ENDBRANCH   1  24
BRANCH  14  28
ATOM     28  C   UNL     1      -5.728   4.215   0.461  0.00  0.00    +0.019 C 
BRANCH  28  29
ATOM     29  C   UNL     1      -6.735   4.014  -0.642  0.00  0.00    +0.201 C 
ATOM     30  O   UNL     1      -6.761   2.970  -1.257  0.00  0.00    -0.278 OA
ATOM     31  N   UNL     1      -7.607   4.997  -0.945  0.00  0.00    -0.287 N 
ATOM     32  H   UNL     1      -7.544   5.856  -0.499  0.00  0.00    +0.155 HD
BRANCH  31  33
ATOM     33  C   UNL     1      -8.603   4.777  -1.903  0.00  0.00    +0.033 A 
ATOM     34  C   UNL     1      -9.865   5.331  -1.734  0.00  0.00    +0.023 A 
ATOM     35  C   UNL     1     -10.846   5.113  -2.682  0.00  0.00    +0.002 A 
ATOM     36  C   UNL     1     -10.572   4.343  -3.797  0.00  0.00    +0.000 A 
ATOM     37  C   UNL     1      -9.317   3.789  -3.968  0.00  0.00    +0.002 A 
ATOM     38  C   UNL     1      -8.330   4.009  -3.027  0.00  0.00    +0.023 A 
ENDBRANCH  31  33
ENDBRANCH  28  29
ENDBRANCH  14  28
TORSDOF 5
