REMARK  Name = ZINC12828876
REMARK  6 active torsions:
REMARK  status: ('A' for Active; 'I' for Inactive)
REMARK    1  A    between atoms: C_1  and  C_2
REMARK    2  A    between atoms: C_2  and  C_4
REMARK    3  A    between atoms: C_2  and  S_17
REMARK    4  A    between atoms: S_17  and  C_18
REMARK    5  A    between atoms: C_18  and  C_19
REMARK    6  A    between atoms: C_25  and  C_30
REMARK                            x       y       z     vdW  Elec       q    Type
REMARK                         _______ _______ _______ _____ _____    ______ ____
ROOT
ATOM      1  C   UNL     1       1.731   2.272  -0.002  0.00  0.00    +0.144 C 
ENDROOT
BRANCH   1   2
ATOM      2  C   UNL     1       1.855   3.774   0.005  0.00  0.00    +0.121 A 
ATOM      3  N   UNL     1       3.088   4.343   0.002  0.00  0.00    -0.310 N 
ATOM      4  H   UNL     1       3.873   3.774  -0.005  0.00  0.00    +0.170 HD
ATOM      5  C   UNL     1       3.241   5.680   0.002  0.00  0.00    +0.260 A 
ATOM      6  O   UNL     1       4.356   6.175  -0.006  0.00  0.00    -0.267 OA
ATOM      7  C   UNL     1       2.077   6.512   0.017  0.00  0.00    +0.080 A 
ATOM      8  C   UNL     1       1.982   7.967   0.026  0.00  0.00    +0.004 A 
ATOM      9  C   UNL     1       0.755   8.540   0.041  0.00  0.00    +0.056 A 
ATOM     10  S   UNL     1      -0.353   7.144   0.044  0.00  0.00    -0.076 S 
ATOM     11  C   UNL     1       0.846   5.836   0.025  0.00  0.00    +0.116 A 
ATOM     12  N   UNL     1       0.774   4.507   0.019  0.00  0.00    -0.226 NA
BRANCH   8  13
ATOM     13  C   UNL     1       3.206   8.803   0.019  0.00  0.00    -0.017 A 
ATOM     14  C   UNL     1       4.228   8.557   0.935  0.00  0.00    +0.008 A 
ATOM     15  C   UNL     1       5.367   9.335   0.921  0.00  0.00    +0.001 A 
ATOM     16  C   UNL     1       5.492  10.366   0.006  0.00  0.00    +0.000 A 
ATOM     17  C   UNL     1       4.480  10.618  -0.903  0.00  0.00    +0.001 A 
ATOM     18  C   UNL     1       3.338   9.842  -0.901  0.00  0.00    +0.008 A 
ENDBRANCH   8  13
ENDBRANCH   1   2
BRANCH   1  19
ATOM     19  S   UNL     1      -0.022   1.810   0.012  0.00  0.00    -0.141 S 
BRANCH  19  21
ATOM     20  C   UNL     1       0.606  -0.499  -1.314  0.00  0.00    +0.029 C 
ATOM     21  C   UNL     1       0.002  -0.004   0.002  0.00  0.00    +0.130 C 
BRANCH  21  22
ATOM     22  C   UNL     1      -1.405  -0.526   0.137  0.00  0.00    +0.231 C 
ATOM     23  O   UNL     1      -2.342   0.158  -0.216  0.00  0.00    -0.274 OA
ATOM     24  N   UNL     1      -1.622  -1.754   0.648  0.00  0.00    -0.264 N 
ATOM     25  C   UNL     1      -2.920  -2.236   0.772  0.00  0.00    +0.165 A 
ATOM     26  N   UNL     1      -4.056  -1.648   0.455  0.00  0.00    -0.229 NA
ATOM     27  C   UNL     1      -5.240  -2.241   0.637  0.00  0.00    +0.054 A 
ATOM     28  C   UNL     1      -5.194  -3.482   1.155  0.00  0.00    +0.014 A 
ATOM     29  S   UNL     1      -3.465  -3.767   1.393  0.00  0.00    -0.057 S 
ATOM     30  C   UNL     1      -6.361  -4.404   1.406  0.00  0.00    +0.044 C 
ATOM     31  C   UNL     1      -7.195  -3.776   2.538  0.00  0.00    +0.005 C 
ATOM     32  C   UNL     1      -8.052  -2.657   1.995  0.00  0.00    +0.001 C 
ATOM     33  C   UNL     1      -7.340  -1.387   1.605  0.00  0.00    +0.006 C 
ATOM     34  C   UNL     1      -6.561  -1.548   0.297  0.00  0.00    +0.056 C 
ATOM     35  H   UNL     1      -0.873  -2.302   0.930  0.00  0.00    +0.157 HD
ENDBRANCH  21  22
ENDBRANCH  19  21
ENDBRANCH   1  19
TORSDOF 5
