REMARK  Name = ZINC49548507
REMARK  8 active torsions:
REMARK  status: ('A' for Active; 'I' for Inactive)
REMARK    1  A    between atoms: C_1  and  C_2
REMARK    2  A    between atoms: N_4  and  C_5
REMARK    3  A    between atoms: C_9  and  N_11
REMARK    4  A    between atoms: C_12  and  C_14
REMARK    5  A    between atoms: C_14  and  N_15
REMARK    6  A    between atoms: C_20  and  C_22
REMARK    7  A    between atoms: C_27  and  O_28
REMARK    8  A    between atoms: O_28  and  C_29
REMARK                            x       y       z     vdW  Elec       q    Type
REMARK                         _______ _______ _______ _____ _____    ______ ____
ROOT
ATOM      1  C   UNL     1      -4.517  -7.193   0.306  0.00  0.00    +0.243 C 
ENDROOT
BRANCH   1   2
ATOM      2  N   UNL     1      -4.189  -8.609   0.488  0.00  0.00    -0.220 N 
ATOM      3  C   UNL     1      -4.067  -9.098   1.736  0.00  0.00    +0.268 A 
ATOM      4  O   UNL     1      -4.230  -8.368   2.701  0.00  0.00    -0.266 OA
ATOM      5  C   UNL     1      -3.751 -10.462   1.922  0.00  0.00    +0.074 A 
ATOM      6  C   UNL     1      -3.580 -11.234   0.812  0.00  0.00    +0.035 A 
ATOM      7  C   UNL     1      -3.729 -10.626  -0.457  0.00  0.00    +0.095 A 
ATOM      8  N   UNL     1      -4.029  -9.351  -0.547  0.00  0.00    -0.168 NA
BRANCH   7   9
ATOM      9  C   UNL     1      -3.550 -11.432  -1.688  0.00  0.00    +0.044 A 
ATOM     10  C   UNL     1      -3.242 -12.788  -1.598  0.00  0.00    +0.016 A 
ATOM     11  C   UNL     1      -3.077 -13.534  -2.746  0.00  0.00    +0.039 A 
ATOM     12  C   UNL     1      -3.216 -12.940  -3.991  0.00  0.00    +0.127 A 
ATOM     13  C   UNL     1      -3.522 -11.594  -4.091  0.00  0.00    +0.084 A 
ATOM     14  C   UNL     1      -3.696 -10.835  -2.945  0.00  0.00    +0.132 A 
ATOM     15  F   UNL     1      -3.053 -13.678  -5.111  0.00  0.00    -0.205 F 
BRANCH  14  16
ATOM     16  O   UNL     1      -4.002  -9.515  -3.041  0.00  0.00    -0.494 OA
ATOM     17  C   UNL     1      -4.136  -8.975  -4.357  0.00  0.00    +0.277 C 
ENDBRANCH  14  16
ENDBRANCH   7   9
ENDBRANCH   1   2
BRANCH   1  19
ATOM     18  N   UNL     1      -3.302  -5.052   0.060  0.00  0.00    -0.284 N 
ATOM     19  C   UNL     1      -3.245  -6.388   0.228  0.00  0.00    +0.239 C 
ATOM     20  O   UNL     1      -2.170  -6.943   0.316  0.00  0.00    -0.273 OA
ATOM     21  H   UNL     1      -4.158  -4.617  -0.077  0.00  0.00    +0.155 HD
BRANCH  18  26
ATOM     22  C   UNL     1      -0.968  -2.267   0.650  0.00  0.00    +0.035 A 
ATOM     23  C   UNL     1       0.206  -2.797   0.128  0.00  0.00    +0.023 A 
ATOM     24  C   UNL     1       0.211  -4.069  -0.412  0.00  0.00    +0.004 A 
ATOM     25  C   UNL     1      -0.950  -4.817  -0.435  0.00  0.00    +0.023 A 
ATOM     26  C   UNL     1      -2.127  -4.293   0.085  0.00  0.00    +0.035 A 
ATOM     27  C   UNL     1      -2.134  -3.019   0.633  0.00  0.00    +0.046 A 
BRANCH  22  31
ATOM     28  C   UNL     1      -1.676   0.652   2.918  0.00  0.00    +0.109 C 
ATOM     29  C   UNL     1      -1.748  -0.704   2.264  0.00  0.00    +0.214 C 
ATOM     30  O   UNL     1      -2.505  -1.546   2.698  0.00  0.00    -0.276 OA
ATOM     31  N   UNL     1      -0.972  -0.980   1.197  0.00  0.00    -0.286 N 
ATOM     32  H   UNL     1      -0.417  -0.285   0.809  0.00  0.00    +0.155 HD
ENDBRANCH  22  31
ENDBRANCH  18  26
ENDBRANCH   1  19
TORSDOF 6
