REMARK  Name = ZINC06191674
REMARK  5 active torsions:
REMARK  status: ('A' for Active; 'I' for Inactive)
REMARK    1  A    between atoms: C_11  and  N_27
REMARK    2  A    between atoms: C_13  and  N_60
REMARK    3  A    between atoms: C_20  and  C_22
REMARK    4  A    between atoms: N_27  and  S_28
REMARK    5  A    between atoms: S_28  and  C_31
REMARK                            x       y       z     vdW  Elec       q    Type
REMARK                         _______ _______ _______ _____ _____    ______ ____
ROOT
ATOM      1  C   UNL     1      -3.575   2.041   1.389  0.00  0.00    +0.001 A 
ATOM      2  C   UNL     1      -2.474   1.435   1.923  0.00  0.00    +0.008 A 
ATOM      3  C   UNL     1      -1.310   2.197   2.117  0.00  0.00    -0.017 A 
ATOM      4  C   UNL     1      -0.116   1.694   2.660  0.00  0.00    +0.008 A 
ATOM      5  C   UNL     1       0.947   2.537   2.805  0.00  0.00    +0.001 A 
ATOM      6  C   UNL     1       0.888   3.884   2.437  0.00  0.00    +0.003 A 
ATOM      7  C   UNL     1      -0.255   4.404   1.912  0.00  0.00    -0.051 A 
ATOM      8  C   UNL     1      -1.347   3.556   1.758  0.00  0.00    -0.012 A 
ATOM      9  C   UNL     1      -2.477   4.160   1.216  0.00  0.00    -0.022 A 
ATOM     10  C   UNL     1      -3.587   3.392   1.035  0.00  0.00    +0.006 A 
ATOM     11  C   UNL     1      -2.135   5.607   0.959  0.00  0.00    +0.098 C 
ATOM     12  C   UNL     1      -0.670   5.769   1.418  0.00  0.00    -0.014 C 
ENDROOT
BRANCH  12  20
ATOM     13  C   UNL     1       1.586   5.856   0.542  0.00  0.00    -0.059 C 
ATOM     14  C   UNL     1       2.404   6.132  -0.724  0.00  0.00    +0.089 C 
ATOM     15  N   UNL     1       2.150   7.516  -1.153  0.00  0.00    -0.299 N 
ATOM     16  C   UNL     1       0.754   7.955  -1.295  0.00  0.00    +0.089 C 
ATOM     17  C   UNL     1       0.000   7.608  -0.007  0.00  0.00    -0.059 C 
ATOM     18  C   UNL     1       3.170   8.359  -1.408  0.00  0.00    +0.282 C 
ATOM     19  O   UNL     1       2.945   9.528  -1.659  0.00  0.00    -0.267 OA
ATOM     20  N   UNL     1       0.166   6.163   0.265  0.00  0.00    +0.388 N 
ATOM     21  H   UNL     1      -0.135   5.633  -0.561  0.00  0.00    -0.081 HD
BRANCH  18  22
ATOM     22  C   UNL     1       4.552   7.868  -1.383  0.00  0.00    +0.189 A 
ATOM     23  C   UNL     1       5.678   8.634  -1.483  0.00  0.00    +0.054 A 
ATOM     24  C   UNL     1       6.771   7.756  -1.410  0.00  0.00    +0.042 A 
ATOM     25  C   UNL     1       6.270   6.508  -1.279  0.00  0.00    +0.196 A 
ATOM     26  O   UNL     1       4.933   6.579  -1.264  0.00  0.00    -0.458 OA
ENDBRANCH  18  22
ENDBRANCH  12  20
BRANCH  11  27
ATOM     27  N   UNL     1      -2.259   5.912  -0.469  0.00  0.00    -0.184 NA
ATOM     28  H   UNL     1      -1.534   5.693  -1.076  0.00  0.00    +0.149 HD
BRANCH  27  29
ATOM     29  S   UNL     1      -3.635   6.630  -1.046  0.00  0.00    +0.059 S 
ATOM     30  O   UNL     1      -3.440   6.816  -2.442  0.00  0.00    -0.153 OA
ATOM     31  O   UNL     1      -4.729   5.891  -0.522  0.00  0.00    -0.153 OA
BRANCH  29  32
ATOM     32  C   UNL     1      -3.723   8.238  -0.331  0.00  0.00    +0.105 A 
ATOM     33  C   UNL     1      -4.382   8.424   0.870  0.00  0.00    +0.030 A 
ATOM     34  C   UNL     1      -4.447   9.684   1.434  0.00  0.00    +0.022 A 
ATOM     35  C   UNL     1      -3.862  10.761   0.792  0.00  0.00    +0.041 A 
ATOM     36  C   UNL     1      -3.207  10.574  -0.413  0.00  0.00    +0.022 A 
ATOM     37  C   UNL     1      -3.138   9.313  -0.973  0.00  0.00    +0.030 A 
ATOM     38 CL   UNL     1      -3.949  12.345   1.496  0.00  0.00    -0.084 Cl
ENDBRANCH  29  32
ENDBRANCH  27  29
ENDBRANCH  11  27
TORSDOF 5
