REMARK  Name = ZINC59023352
REMARK  9 active torsions:
REMARK  status: ('A' for Active; 'I' for Inactive)
REMARK    1  A    between atoms: C_1  and  C_2
REMARK    2  A    between atoms: C_2  and  C_3
REMARK    3  A    between atoms: C_9  and  C_11
REMARK    4  A    between atoms: C_11  and  S_12
REMARK    5  A    between atoms: S_12  and  C_13
REMARK    6  A    between atoms: N_18  and  N_19
REMARK    7  A    between atoms: C_20  and  C_21
REMARK    8  A    between atoms: C_20  and  C_22
REMARK    9  A    between atoms: C_23  and  C_24
REMARK                            x       y       z     vdW  Elec       q    Type
REMARK                         _______ _______ _______ _____ _____    ______ ____
ROOT
ATOM      1  C   UNL     1       5.184  -3.448  -8.516  0.00  0.00    +0.211 A 
ATOM      2  N   UNL     1       6.321  -3.810  -9.121  0.00  0.00    -0.186 NA
ATOM      3  C   UNL     1       6.071  -4.144 -10.370  0.00  0.00    +0.232 A 
ATOM      4  N   UNL     1       4.746  -3.997 -10.584  0.00  0.00    -0.245 N 
ATOM      5  N   UNL     1       4.195  -3.552  -9.371  0.00  0.00    -0.144 NA
ATOM      6  N   UNL     1       7.002  -4.570 -11.299  0.00  0.00    -0.205 N 
ATOM      7  H   UNL     1       6.721  -4.794 -12.200  0.00  0.00    +0.177 HD
ATOM      8  H   UNL     1       4.269  -4.169 -11.410  0.00  0.00    +0.192 HD
ENDROOT
BRANCH   6   9
ATOM      9  N   UNL     1       8.352  -4.676 -10.939  0.00  0.00    -0.185 NA
ATOM     10  C   UNL     1       9.214  -5.169 -11.783  0.00  0.00    +0.056 C 
ATOM     11  C   UNL     1      10.642  -5.394 -11.357  0.00  0.00    +0.067 C 
BRANCH  10  12
ATOM     12  C   UNL     1       8.808  -5.494 -13.102  0.00  0.00    +0.025 C 
ATOM     13  C   UNL     1       9.670  -6.105 -13.941  0.00  0.00    +0.010 C 
BRANCH  13  14
ATOM     14  C   UNL     1       9.216  -6.541 -15.272  0.00  0.00    -0.025 A 
ATOM     15  C   UNL     1       7.895  -6.318 -15.672  0.00  0.00    +0.008 A 
ATOM     16  C   UNL     1       7.478  -6.729 -16.921  0.00  0.00    +0.001 A 
ATOM     17  C   UNL     1       8.363  -7.361 -17.777  0.00  0.00    +0.000 A 
ATOM     18  C   UNL     1       9.672  -7.585 -17.388  0.00  0.00    +0.001 A 
ATOM     19  C   UNL     1      10.106  -7.175 -16.145  0.00  0.00    +0.008 A 
ENDBRANCH  13  14
ENDBRANCH  10  12
ENDBRANCH   6   9
BRANCH   1  20
ATOM     20  S   UNL     1       5.038  -2.924  -6.840  0.00  0.00    -0.075 S 
BRANCH  20  21
ATOM     21  C   UNL     1       3.267  -2.591  -6.638  0.00  0.00    +0.173 C 
BRANCH  21  28
ATOM     22  C   UNL     1       0.697  -0.570  -1.211  0.00  0.00    +0.103 A 
ATOM     23  N   UNL     1       1.974  -0.827  -1.412  0.00  0.00    -0.145 NA
ATOM     24  N   UNL     1       2.349  -1.225  -2.551  0.00  0.00    -0.126 NA
ATOM     25  C   UNL     1       1.500  -1.393  -3.545  0.00  0.00    +0.188 A 
ATOM     26  S   UNL     1       0.038  -0.960  -2.826  0.00  0.00    -0.035 S 
ATOM     27  N   UNL     1       1.745  -1.820  -4.846  0.00  0.00    -0.263 N 
ATOM     28  C   UNL     1       3.001  -2.128  -5.228  0.00  0.00    +0.229 C 
ATOM     29  O   UNL     1       3.916  -2.032  -4.439  0.00  0.00    -0.275 OA
ATOM     30  H   UNL     1       1.013  -1.896  -5.477  0.00  0.00    +0.157 HD
BRANCH  22  32
ATOM     31  C   UNL     1      -0.046   1.439   0.038  0.00  0.00    +0.011 C 
ATOM     32  C   UNL     1      -0.009  -0.091   0.031  0.00  0.00    +0.061 C 
ENDBRANCH  22  32
ENDBRANCH  21  28
ENDBRANCH  20  21
ENDBRANCH   1  20
TORSDOF 7
