REMARK  Name = ZINC20138547
REMARK  9 active torsions:
REMARK  status: ('A' for Active; 'I' for Inactive)
REMARK    1  A    between atoms: C_1  and  C_2
REMARK    2  A    between atoms: C_4  and  N_28
REMARK    3  A    between atoms: C_9  and  N_12
REMARK    4  A    between atoms: C_13  and  C_15
REMARK    5  A    between atoms: C_15  and  C_16
REMARK    6  A    between atoms: C_16  and  C_17
REMARK    7  A    between atoms: N_19  and  C_20
REMARK    8  A    between atoms: C_30  and  C_37
REMARK    9  A    between atoms: C_33  and  C_36
REMARK                            x       y       z     vdW  Elec       q    Type
REMARK                         _______ _______ _______ _____ _____    ______ ____
ROOT
ATOM      1  C   UNL     1      -5.771   4.578  -0.016  0.00  0.00    +0.044 C 
ATOM      2  C   UNL     1      -5.821   3.104  -0.325  0.00  0.00    -0.038 A 
ATOM      3  C   UNL     1      -7.013   2.469  -0.511  0.00  0.00    +0.045 A 
ATOM      4  C   UNL     1      -7.035   1.097  -0.797  0.00  0.00    +0.099 A 
ATOM      5  N   UNL     1      -5.925   0.394  -0.891  0.00  0.00    -0.343 N 
ATOM      6  C   UNL     1      -4.726   0.963  -0.719  0.00  0.00    +0.048 A 
ATOM      7  C   UNL     1      -4.637   2.346  -0.428  0.00  0.00    +0.003 A 
ATOM      8  C   UNL     1      -3.378   2.939  -0.248  0.00  0.00    +0.033 A 
ATOM      9  C   UNL     1      -2.243   2.165  -0.357  0.00  0.00    +0.034 A 
ATOM     10  C   UNL     1      -2.337   0.801  -0.650  0.00  0.00    +0.025 A 
ATOM     11  C   UNL     1      -3.547   0.204  -0.822  0.00  0.00    +0.028 A 
ATOM     12  H   UNL     1      -5.973  -0.681  -1.116  0.00  0.00    +0.167 HD
ENDROOT
BRANCH   4  13
ATOM     13  N   UNL     1      -8.256   0.464  -0.984  0.00  0.00    -0.316 N 
ATOM     14  C   UNL     1      -9.033   1.121  -2.042  0.00  0.00    +0.109 C 
ATOM     15  C   UNL     1     -10.425   0.491  -2.121  0.00  0.00    +0.004 C 
ATOM     16  C   UNL     1     -10.287  -1.005  -2.418  0.00  0.00    +0.009 C 
ATOM     17  C   UNL     1      -9.433  -1.657  -1.327  0.00  0.00    +0.004 C 
ATOM     18  C   UNL     1      -8.069  -0.964  -1.271  0.00  0.00    +0.109 C 
ATOM     19  C   UNL     1      -9.239  -3.140  -1.647  0.00  0.00    +0.009 C 
ATOM     20  C   UNL     1     -11.227   1.161  -3.238  0.00  0.00    +0.009 C 
ENDBRANCH   4  13
BRANCH   9  21
ATOM     21  N   UNL     1      -0.984   2.751  -0.180  0.00  0.00    -0.285 N 
ATOM     22  C   UNL     1       0.011   2.050   0.399  0.00  0.00    +0.218 C 
ATOM     23  O   UNL     1      -0.211   0.948   0.856  0.00  0.00    -0.275 OA
ATOM     24  H   UNL     1      -0.806   3.785  -0.513  0.00  0.00    +0.155 HD
BRANCH  22  25
ATOM     25  C   UNL     1       1.399   2.631   0.473  0.00  0.00    +0.105 C 
BRANCH  25  26
ATOM     26  C   UNL     1       2.332   1.636   1.166  0.00  0.00    +0.105 C 
BRANCH  26  27
ATOM     27  C   UNL     1       3.720   2.218   1.240  0.00  0.00    +0.218 C 
ATOM     28  O   UNL     1       3.942   3.319   0.784  0.00  0.00    -0.275 OA
ATOM     29  N   UNL     1       4.716   1.514   1.814  0.00  0.00    -0.284 N 
ATOM     30  H   UNL     1       4.538   0.480   2.147  0.00  0.00    +0.155 HD
BRANCH  29  31
ATOM     31  C   UNL     1       5.978   2.097   1.987  0.00  0.00    +0.052 A 
ATOM     32  C   UNL     1       6.084   3.454   2.263  0.00  0.00    +0.027 A 
ATOM     33  C   UNL     1       7.329   4.028   2.433  0.00  0.00    +0.040 A 
ATOM     34  C   UNL     1       8.471   3.252   2.328  0.00  0.00    +0.125 A 
ATOM     35  C   UNL     1       8.368   1.899   2.052  0.00  0.00    +0.060 A 
ATOM     36  C   UNL     1       7.124   1.319   1.887  0.00  0.00    +0.065 A 
ATOM     37 CL   UNL     1       6.995  -0.379   1.549  0.00  0.00    -0.082 Cl
ATOM     38  F   UNL     1       9.687   3.816   2.494  0.00  0.00    -0.205 F 
ENDBRANCH  29  31
ENDBRANCH  26  27
ENDBRANCH  25  26
ENDBRANCH  22  25
ENDBRANCH   9  21
TORSDOF 6
