REMARK  Name = ZINC02073733
REMARK  5 active torsions:
REMARK  status: ('A' for Active; 'I' for Inactive)
REMARK    1  A    between atoms: C_4  and  C_7
REMARK    2  A    between atoms: C_7  and  S_8
REMARK    3  A    between atoms: S_8  and  C_9
REMARK    4  A    between atoms: C_22  and  C_25
REMARK    5  A    between atoms: C_28  and  C_31
REMARK                            x       y       z     vdW  Elec       q    Type
REMARK                         _______ _______ _______ _____ _____    ______ ____
ROOT
ATOM      1  C   UNL     1       3.489   1.532  -2.737  0.00  0.00    +0.213 A 
ATOM      2  N   UNL     1       2.609   2.102  -1.918  0.00  0.00    -0.184 NA
ATOM      3  C   UNL     1       2.193   1.438  -0.853  0.00  0.00    +0.248 A 
ATOM      4  C   UNL     1       2.698   0.138  -0.623  0.00  0.00    +0.156 A 
ATOM      5  N   UNL     1       3.573  -0.371  -1.477  0.00  0.00    -0.141 NA
ATOM      6  N   UNL     1       3.953   0.312  -2.501  0.00  0.00    -0.122 NA
ATOM      7  C   UNL     1       2.241  -0.625   0.557  0.00  0.00    +0.028 A 
ATOM      8  C   UNL     1       3.137  -1.280   1.393  0.00  0.00    +0.012 A 
ATOM      9  C   UNL     1       2.667  -2.001   2.473  0.00  0.00    +0.001 A 
ATOM     10  C   UNL     1       1.308  -2.076   2.727  0.00  0.00    +0.002 A 
ATOM     11  C   UNL     1       0.406  -1.423   1.908  0.00  0.00    +0.024 A 
ATOM     12  C   UNL     1       0.861  -0.691   0.827  0.00  0.00    +0.039 A 
ATOM     13  N   UNL     1      -0.022  -0.004  -0.012  0.00  0.00    -0.305 N 
ATOM     14  C   UNL     1      -0.018   1.455   0.010  0.00  0.00    +0.294 C 
ATOM     15  O   UNL     1       1.305   1.980   0.014  0.00  0.00    -0.449 OA
ATOM     16  H   UNL     1      -0.625  -0.488  -0.597  0.00  0.00    +0.150 HD
ENDROOT
BRANCH  14  17
ATOM     17  C   UNL     1      -0.738   1.930   1.246  0.00  0.00    +0.011 A 
ATOM     18  C   UNL     1      -1.876   1.270   1.676  0.00  0.00    +0.010 A 
ATOM     19  C   UNL     1      -2.537   1.696   2.809  0.00  0.00    +0.015 A 
ATOM     20  C   UNL     1      -2.061   2.802   3.517  0.00  0.00    +0.063 A 
ATOM     21  C   UNL     1      -0.915   3.466   3.075  0.00  0.00    +0.015 A 
ATOM     22  C   UNL     1      -0.261   3.026   1.943  0.00  0.00    +0.010 A 
BRANCH  20  23
ATOM     23  C   UNL     1      -2.767   3.267   4.728  0.00  0.00    +0.387 C 
ATOM     24  O   UNL     1      -2.351   4.229   5.342  0.00  0.00    -0.241 OA
ATOM     25  O   UNL     1      -3.873   2.624   5.152  0.00  0.00    -0.241 OA
ENDBRANCH  20  23
ENDBRANCH  14  17
BRANCH   1  26
ATOM     26  S   UNL     1       4.046   2.412  -4.159  0.00  0.00    -0.080 S 
BRANCH  26  27
ATOM     27  C   UNL     1       5.180   1.189  -4.861  0.00  0.00    +0.112 C 
BRANCH  27  31
ATOM     28  C   UNL     1       6.921   2.748  -8.437  0.00  0.00    +0.000 A 
ATOM     29  C   UNL     1       7.537   2.961  -7.218  0.00  0.00    +0.000 A 
ATOM     30  C   UNL     1       6.974   2.457  -6.061  0.00  0.00    +0.004 A 
ATOM     31  C   UNL     1       5.794   1.739  -6.122  0.00  0.00    -0.037 A 
ATOM     32  C   UNL     1       5.181   1.521  -7.341  0.00  0.00    +0.004 A 
ATOM     33  C   UNL     1       5.741   2.030  -8.498  0.00  0.00    +0.000 A 
ENDBRANCH  27  31
ENDBRANCH  26  27
ENDBRANCH   1  26
TORSDOF 5
