REMARK  Name = ZINC12798302
REMARK  9 active torsions:
REMARK  status: ('A' for Active; 'I' for Inactive)
REMARK    1  A    between atoms: C_1  and  N_62
REMARK    2  A    between atoms: C_2  and  N_62
REMARK    3  A    between atoms: C_3  and  C_5
REMARK    4  A    between atoms: C_3  and  C_28
REMARK    5  A    between atoms: C_3  and  N_62
REMARK    6  A    between atoms: C_5  and  N_6
REMARK    7  A    between atoms: C_7  and  C_9
REMARK    8  A    between atoms: C_12  and  S_15
REMARK    9  A    between atoms: S_15  and  N_18
REMARK                            x       y       z     vdW  Elec       q    Type
REMARK                         _______ _______ _______ _____ _____    ______ ____
ROOT
ATOM      1  C   UNL     1      -6.098  -0.361  -1.099  0.00  0.00    +0.037 A 
ATOM      2  C   UNL     1      -6.337  -0.693   0.235  0.00  0.00    +0.015 A 
ATOM      3  C   UNL     1      -7.554  -1.228   0.602  0.00  0.00    +0.029 A 
ATOM      4  C   UNL     1      -8.533  -1.446  -0.351  0.00  0.00    +0.109 A 
ATOM      5  C   UNL     1      -8.300  -1.125  -1.677  0.00  0.00    +0.029 A 
ATOM      6  C   UNL     1      -7.089  -0.584  -2.056  0.00  0.00    +0.015 A 
ENDROOT
BRANCH   1   8
ATOM      7  N   UNL     1      -3.842   0.431  -0.573  0.00  0.00    -0.313 N 
ATOM      8  C   UNL     1      -4.797   0.217  -1.499  0.00  0.00    +0.244 C 
ATOM      9  O   UNL     1      -4.590   0.500  -2.663  0.00  0.00    -0.270 OA
ATOM     10  H   UNL     1      -4.007   0.205   0.356  0.00  0.00    +0.149 HD
BRANCH   7  11
ATOM     11  C   UNL     1      -2.553   1.005  -0.969  0.00  0.00    +0.094 C 
BRANCH  11  12
ATOM     12  C   UNL     1      -1.610   1.021   0.236  0.00  0.00    -0.021 C 
BRANCH  12  13
ATOM     13  C   UNL     1      -1.365  -0.392   0.700  0.00  0.00    -0.057 A 
ATOM     14  C   UNL     1      -0.445  -1.186   0.041  0.00  0.00    +0.002 A 
ATOM     15  C   UNL     1      -0.223  -2.484   0.462  0.00  0.00    +0.003 A 
ATOM     16  C   UNL     1      -0.917  -2.987   1.547  0.00  0.00    +0.038 A 
ATOM     17  C   UNL     1      -1.834  -2.191   2.211  0.00  0.00    +0.124 A 
ATOM     18  C   UNL     1      -2.055  -0.891   1.788  0.00  0.00    +0.040 A 
ATOM     19  F   UNL     1      -2.512  -2.681   3.271  0.00  0.00    -0.205 F 
ENDBRANCH  12  13
BRANCH  12  22
ATOM     20  C   UNL     1      -0.544   2.989  -0.688  0.00  0.00    -0.096 C 
ATOM     21  C   UNL     1       0.602   1.663   0.983  0.00  0.00    -0.096 C 
ATOM     22  N   UNL     1      -0.322   1.622  -0.170  0.00  0.00    +0.382 N 
ATOM     23  H   UNL     1       0.095   1.048  -0.912  0.00  0.00    -0.082 HD
ENDBRANCH  12  22
ENDBRANCH  11  12
ENDBRANCH   7  11
ENDBRANCH   1   8
BRANCH   4  24
ATOM     24  S   UNL     1     -10.083  -2.135   0.126  0.00  0.00    +0.075 S 
ATOM     25  O   UNL     1     -10.252  -1.841   1.506  0.00  0.00    -0.150 OA
ATOM     26  O   UNL     1     -11.026  -1.734  -0.859  0.00  0.00    -0.150 OA
BRANCH  24  27
ATOM     27  N   UNL     1      -9.945  -3.781   0.006  0.00  0.00    -0.203 N 
ATOM     28  C   UNL     1     -10.382  -4.481  -1.210  0.00  0.00    +0.132 C 
ATOM     29  C   UNL     1     -11.174  -5.719  -0.785  0.00  0.00    +0.025 C 
ATOM     30  C   UNL     1     -10.250  -6.657  -0.008  0.00  0.00    +0.038 C 
ATOM     31  C   UNL     1      -9.544  -5.909   1.093  0.00  0.00    -0.025 A 
ATOM     32  C   UNL     1      -9.415  -4.529   1.063  0.00  0.00    +0.054 A 
ATOM     33  C   UNL     1      -8.752  -3.870   2.093  0.00  0.00    +0.025 A 
ATOM     34  C   UNL     1      -8.225  -4.590   3.147  0.00  0.00    +0.002 A 
ATOM     35  C   UNL     1      -8.357  -5.965   3.177  0.00  0.00    +0.000 A 
ATOM     36  C   UNL     1      -9.014  -6.622   2.154  0.00  0.00    +0.005 A 
ENDBRANCH  24  27
ENDBRANCH   4  24
TORSDOF 7
