REMARK  Name = ZINC13804507
REMARK  9 active torsions:
REMARK  status: ('A' for Active; 'I' for Inactive)
REMARK    1  A    between atoms: C_4  and  S_7
REMARK    2  A    between atoms: S_7  and  N_10
REMARK    3  A    between atoms: N_10  and  C_11
REMARK    4  A    between atoms: C_11  and  C_12
REMARK    5  A    between atoms: C_15  and  C_18
REMARK    6  A    between atoms: C_18  and  N_72
REMARK    7  A    between atoms: C_19  and  N_72
REMARK    8  A    between atoms: C_29  and  C_31
REMARK    9  A    between atoms: C_31  and  C_32
REMARK                            x       y       z     vdW  Elec       q    Type
REMARK                         _______ _______ _______ _____ _____    ______ ____
ROOT
ATOM      1  N   UNL     1      -2.804   4.615   0.760  0.00  0.00    +0.381 N 
ATOM      2  H   UNL     1      -2.502   5.246   1.511  0.00  0.00    -0.085 HD
ATOM      3  H   UNL     1      -2.053   4.526   0.065  0.00  0.00    -0.085 HD
ENDROOT
BRANCH   1   4
ATOM      4  C   UNL     1      -3.100   3.287   1.329  0.00  0.00    -0.064 C 
ATOM      5  C   UNL     1      -3.680   3.446   2.739  0.00  0.00    -0.011 C 
ATOM      6  C   UNL     1      -4.190   2.085   3.207  0.00  0.00    +0.034 C 
ATOM      7  C   UNL     1      -3.127   1.032   3.030  0.00  0.00    -0.041 A 
ATOM      8  C   UNL     1      -3.275  -0.159   3.729  0.00  0.00    +0.042 A 
ATOM      9  C   UNL     1      -2.337  -1.166   3.605  0.00  0.00    +0.124 A 
ATOM     10  C   UNL     1      -1.242  -0.987   2.776  0.00  0.00    +0.038 A 
ATOM     11  C   UNL     1      -1.095   0.196   2.084  0.00  0.00    +0.007 A 
ATOM     12  C   UNL     1      -2.036   1.211   2.209  0.00  0.00    -0.042 A 
ATOM     13  C   UNL     1      -1.809   2.478   1.428  0.00  0.00    +0.010 C 
ATOM     14  F   UNL     1      -2.489  -2.322   4.289  0.00  0.00    -0.205 F 
BRANCH  13  15
ATOM     15  C   UNL     1      -1.326   2.123   0.020  0.00  0.00    +0.043 C 
BRANCH  15  16
ATOM     16  C   UNL     1      -2.433   1.427  -0.730  0.00  0.00    -0.029 A 
ATOM     17  C   UNL     1      -2.615   0.058  -0.603  0.00  0.00    +0.006 A 
ATOM     18  C   UNL     1      -3.642  -0.540  -1.315  0.00  0.00    +0.020 A 
ATOM     19  C   UNL     1      -4.446   0.242  -2.123  0.00  0.00    +0.111 A 
ATOM     20  N   UNL     1      -4.245   1.541  -2.219  0.00  0.00    -0.263 NA
ATOM     21  C   UNL     1      -3.277   2.144  -1.556  0.00  0.00    +0.114 A 
ENDBRANCH  15  16
ENDBRANCH  13  15
ENDBRANCH   1   4
BRANCH   1  22
ATOM     22  C   UNL     1      -4.004   5.173   0.109  0.00  0.00    -0.079 C 
BRANCH  22  26
ATOM     23  C   UNL     1      -4.197   9.421  -0.695  0.00  0.00    +0.005 C 
ATOM     24  C   UNL     1      -4.531   8.456  -1.834  0.00  0.00    +0.005 C 
ATOM     25  C   UNL     1      -4.868   7.080  -1.254  0.00  0.00    +0.002 C 
ATOM     26  C   UNL     1      -3.667   6.548  -0.471  0.00  0.00    -0.028 C 
ATOM     27  C   UNL     1      -3.333   7.514   0.668  0.00  0.00    +0.002 C 
ATOM     28  C   UNL     1      -2.995   8.889   0.089  0.00  0.00    +0.005 C 
BRANCH  23  29
ATOM     29  C   UNL     1      -3.859  10.796  -1.275  0.00  0.00    +0.109 C 
BRANCH  29  30
ATOM     30  N   UNL     1      -3.656  11.750  -0.182  0.00  0.00    -0.190 NA
ATOM     31  H   UNL     1      -3.950  11.530   0.716  0.00  0.00    +0.148 HD
BRANCH  30  32
ATOM     32  S   UNL     1      -2.924  13.206  -0.478  0.00  0.00    +0.058 S 
ATOM     33  O   UNL     1      -2.898  13.907   0.757  0.00  0.00    -0.153 OA
ATOM     34  O   UNL     1      -1.744  12.924  -1.219  0.00  0.00    -0.153 OA
BRANCH  32  38
ATOM     35  C   UNL     1      -5.654  15.540  -3.234  0.00  0.00    +0.000 A 
ATOM     36  C   UNL     1      -5.791  15.657  -1.863  0.00  0.00    +0.002 A 
ATOM     37  C   UNL     1      -4.958  14.943  -1.022  0.00  0.00    +0.028 A 
ATOM     38  C   UNL     1      -3.986  14.114  -1.551  0.00  0.00    +0.105 A 
ATOM     39  C   UNL     1      -3.845  14.002  -2.921  0.00  0.00    +0.028 A 
ATOM     40  C   UNL     1      -4.682  14.712  -3.763  0.00  0.00    +0.002 A 
ENDBRANCH  32  38
ENDBRANCH  30  32
ENDBRANCH  29  30
ENDBRANCH  23  29
ENDBRANCH  22  26
ENDBRANCH   1  22
TORSDOF 9
