REMARK  Name = ZINC48833720
REMARK  9 active torsions:
REMARK  status: ('A' for Active; 'I' for Inactive)
REMARK    1  A    between atoms: C_1  and  N_2
REMARK    2  A    between atoms: N_2  and  C_3
REMARK    3  A    between atoms: N_2  and  C_4
REMARK    4  A    between atoms: C_4  and  C_6
REMARK    5  A    between atoms: C_4  and  C_13
REMARK    6  A    between atoms: C_6  and  C_7
REMARK    7  A    between atoms: C_13  and  N_14
REMARK    8  A    between atoms: C_15  and  C_17
REMARK    9  A    between atoms: N_19  and  C_20
REMARK                            x       y       z     vdW  Elec       q    Type
REMARK                         _______ _______ _______ _____ _____    ______ ____
ROOT
ATOM      1  N   UNL     1      -2.658   1.172  -0.570  0.00  0.00    -0.309 N 
ATOM      2  C   UNL     1      -3.678   1.753  -1.232  0.00  0.00    +0.299 C 
ATOM      3  O   UNL     1      -4.545   1.068  -1.732  0.00  0.00    -0.265 OA
ATOM      4  H   UNL     1      -1.964   1.720  -0.170  0.00  0.00    +0.149 HD
ENDROOT
BRANCH   2   5
ATOM      5  C   UNL     1      -3.741   3.240  -1.349  0.00  0.00    +0.303 C 
ATOM      6  O   UNL     1      -2.873   3.926  -0.848  0.00  0.00    -0.265 OA
ATOM      7  N   UNL     1      -4.761   3.821  -2.011  0.00  0.00    -0.277 N 
ATOM      8  H   UNL     1      -5.493   3.280  -2.346  0.00  0.00    +0.155 HD
BRANCH   7   9
ATOM      9  C   UNL     1      -4.764   5.200  -2.214  0.00  0.00    +0.042 A 
ATOM     10  C   UNL     1      -3.578   5.880  -2.392  0.00  0.00    +0.024 A 
ATOM     11  C   UNL     1      -3.571   7.257  -2.595  0.00  0.00    +0.002 A 
ATOM     12  C   UNL     1      -4.731   7.969  -2.625  0.00  0.00    +0.008 A 
ATOM     13  C   UNL     1      -5.961   7.315  -2.448  0.00  0.00    -0.016 A 
ATOM     14  C   UNL     1      -5.983   5.912  -2.246  0.00  0.00    +0.003 A 
ATOM     15  C   UNL     1      -7.213   5.259  -2.075  0.00  0.00    +0.010 A 
ATOM     16  C   UNL     1      -8.369   5.978  -2.111  0.00  0.00    +0.001 A 
ATOM     17  C   UNL     1      -8.349   7.356  -2.316  0.00  0.00    +0.001 A 
ATOM     18  C   UNL     1      -7.174   8.025  -2.473  0.00  0.00    +0.008 A 
ENDBRANCH   7   9
ENDBRANCH   2   5
BRANCH   1  19
ATOM     19  C   UNL     1      -2.596  -0.287  -0.455  0.00  0.00    +0.090 C 
BRANCH  19  20
ATOM     20  C   UNL     1      -1.257  -0.694   0.164  0.00  0.00    -0.048 C 
BRANCH  20  22
ATOM     21  C   UNL     1      -0.488  -1.130  -2.065  0.00  0.00    -0.096 C 
ATOM     22  N   UNL     1      -0.177  -0.450  -0.801  0.00  0.00    +0.379 N 
ATOM     23  C   UNL     1      -0.050   0.994  -1.040  0.00  0.00    -0.096 C 
ATOM     24  H   UNL     1       0.691  -0.807  -0.432  0.00  0.00    -0.082 HD
ENDBRANCH  20  22
BRANCH  20  25
ATOM     25  C   UNL     1      -1.293  -2.180   0.526  0.00  0.00    +0.021 C 
BRANCH  25  26
ATOM     26  C   UNL     1      -0.019  -2.554   1.240  0.00  0.00    -0.049 A 
ATOM     27  C   UNL     1       1.092  -2.940   0.515  0.00  0.00    +0.003 A 
ATOM     28  C   UNL     1       2.260  -3.283   1.171  0.00  0.00    +0.000 A 
ATOM     29  C   UNL     1       2.316  -3.239   2.551  0.00  0.00    +0.000 A 
ATOM     30  C   UNL     1       1.205  -2.852   3.276  0.00  0.00    +0.000 A 
ATOM     31  C   UNL     1       0.038  -2.505   2.621  0.00  0.00    +0.003 A 
ENDBRANCH  25  26
ENDBRANCH  20  25
ENDBRANCH  19  20
ENDBRANCH   1  19
TORSDOF 7
