REMARK  Name = ZINC36490659
REMARK  9 active torsions:
REMARK  status: ('A' for Active; 'I' for Inactive)
REMARK    1  A    between atoms: C_1  and  C_2
REMARK    2  A    between atoms: C_2  and  C_3
REMARK    3  A    between atoms: C_2  and  C_4
REMARK    4  A    between atoms: C_2  and  N_5
REMARK    5  A    between atoms: C_6  and  C_8
REMARK    6  A    between atoms: C_8  and  C_10
REMARK    7  A    between atoms: C_8  and  N_24
REMARK    8  A    between atoms: N_24  and  C_25
REMARK    9  A    between atoms: C_31  and  C_33
REMARK                            x       y       z     vdW  Elec       q    Type
REMARK                         _______ _______ _______ _____ _____    ______ ____
ROOT
ATOM      1  C   UNL     1       2.681  -0.719  -2.416  0.00  0.00    +0.193 C 
ENDROOT
BRANCH   1   2
ATOM      2  C   UNL     1       1.663  -0.238  -3.417  0.00  0.00    -0.010 A 
ATOM      3  C   UNL     1       0.538   0.361  -2.978  0.00  0.00    +0.015 A 
ATOM      4  C   UNL     1      -0.448   0.830  -3.877  0.00  0.00    -0.017 A 
ATOM      5  C   UNL     1      -1.614   1.453  -3.410  0.00  0.00    +0.008 A 
ATOM      6  C   UNL     1      -2.548   1.895  -4.301  0.00  0.00    +0.001 A 
ATOM      7  C   UNL     1      -2.361   1.737  -5.669  0.00  0.00    +0.001 A 
ATOM      8  C   UNL     1      -1.236   1.135  -6.155  0.00  0.00    +0.009 A 
ATOM      9  C   UNL     1      -0.262   0.671  -5.269  0.00  0.00    -0.010 A 
ATOM     10  C   UNL     1       0.960   0.019  -5.747  0.00  0.00    -0.010 A 
ATOM     11  C   UNL     1       1.910  -0.421  -4.797  0.00  0.00    -0.012 A 
ATOM     12  C   UNL     1       3.085  -1.042  -5.245  0.00  0.00    +0.009 A 
ATOM     13  C   UNL     1       3.298  -1.206  -6.582  0.00  0.00    +0.001 A 
ATOM     14  C   UNL     1       2.364  -0.765  -7.513  0.00  0.00    +0.001 A 
ATOM     15  C   UNL     1       1.204  -0.168  -7.109  0.00  0.00    +0.009 A 
ENDBRANCH   1   2
BRANCH   1  17
ATOM     16  N   UNL     1       1.130  -1.093  -0.526  0.00  0.00    -0.309 N 
ATOM     17  C   UNL     1       2.191  -0.426  -1.021  0.00  0.00    +0.239 C 
ATOM     18  O   UNL     1       2.752   0.409  -0.344  0.00  0.00    -0.273 OA
ATOM     19  H   UNL     1       0.637  -1.708  -1.091  0.00  0.00    +0.149 HD
BRANCH  16  21
ATOM     20  C   UNL     1       0.366   0.584   1.082  0.00  0.00    +0.031 C 
ATOM     21  C   UNL     1       0.721  -0.888   0.866  0.00  0.00    +0.026 C 
ATOM     22  C   UNL     1       1.870  -1.279   1.798  0.00  0.00    +0.031 C 
ATOM     23  C   UNL     1      -0.501  -1.757   1.171  0.00  0.00    +0.031 C 
ENDBRANCH  16  21
ENDBRANCH   1  17
BRANCH   1  24
ATOM     24  N   UNL     1       3.953  -0.027  -2.642  0.00  0.00    -0.281 N 
ATOM     25  C   UNL     1       5.076  -0.738  -2.865  0.00  0.00    +0.237 C 
ATOM     26  O   UNL     1       5.027  -1.949  -2.918  0.00  0.00    -0.274 OA
BRANCH  25  27
ATOM     27  C   UNL     1       6.393  -0.028  -3.049  0.00  0.00    +0.159 C 
ATOM     28  C   UNL     1       6.454   0.633  -4.443  0.00  0.00    +0.041 C 
ATOM     29  C   UNL     1       7.154  -0.462  -5.281  0.00  0.00    +0.098 C 
ATOM     30  C   UNL     1       7.941  -1.260  -4.266  0.00  0.00    +0.214 C 
ATOM     31  O   UNL     1       8.841  -2.027  -4.532  0.00  0.00    -0.276 OA
ATOM     32  N   UNL     1       7.498  -0.993  -3.022  0.00  0.00    -0.304 N 
ATOM     33  H   UNL     1       7.862  -1.387  -2.214  0.00  0.00    +0.149 HD
ENDBRANCH  25  27
BRANCH  24  34
ATOM     34  C   UNL     1       4.003   1.437  -2.626  0.00  0.00    +0.077 C 
ATOM     35  C   UNL     1       2.581   1.997  -2.687  0.00  0.00    +0.022 C 
ATOM     36  C   UNL     1       2.633   3.526  -2.670  0.00  0.00    +0.002 C 
ATOM     37  C   UNL     1       3.312   3.998  -1.383  0.00  0.00    +0.000 C 
ATOM     38  C   UNL     1       4.735   3.438  -1.322  0.00  0.00    +0.002 C 
ATOM     39  C   UNL     1       4.682   1.909  -1.339  0.00  0.00    +0.022 C 
ENDBRANCH  24  34
ENDBRANCH   1  24
TORSDOF 6
