REMARK  Name = ZINC28827317
REMARK  3 active torsions:
REMARK  status: ('A' for Active; 'I' for Inactive)
REMARK    1  A    between atoms: C_5  and  C_7
REMARK    2  A    between atoms: C_11  and  N_17
REMARK    3  A    between atoms: C_23  and  N_26
REMARK                            x       y       z     vdW  Elec       q    Type
REMARK                         _______ _______ _______ _____ _____    ______ ____
ROOT
ATOM      1  N   UNL     1       2.264  -6.285   1.485  0.00  0.00    -0.288 N 
ATOM      2  C   UNL     1       3.442  -6.939   1.435  0.00  0.00    +0.303 C 
ATOM      3  O   UNL     1       4.373  -6.468   0.811  0.00  0.00    -0.253 OA
ATOM      4  N   UNL     1       3.587  -8.115   2.078  0.00  0.00    -0.285 N 
ATOM      5  C   UNL     1       2.442  -8.749   2.745  0.00  0.00    +0.111 C 
ATOM      6  C   UNL     1       2.308 -10.188   2.224  0.00  0.00    +0.044 C 
ATOM      7  C   UNL     1       3.637 -10.922   2.421  0.00  0.00    +0.095 C 
ATOM      8  C   UNL     1       4.734 -10.219   1.618  0.00  0.00    +0.044 C 
ATOM      9  C   UNL     1       4.894  -8.784   2.128  0.00  0.00    +0.111 C 
ATOM     10  H   UNL     1       1.398  -6.748   1.980  0.00  0.00    +0.151 HD
ENDROOT
BRANCH   7  11
ATOM     11  N   UNL     1       3.503 -12.305   1.958  0.00  0.00    -0.288 N 
ATOM     12  C   UNL     1       3.682 -13.447   2.734  0.00  0.00    +0.089 A 
ATOM     13  C   UNL     1       4.011 -13.658   4.065  0.00  0.00    +0.031 A 
ATOM     14  C   UNL     1       4.106 -14.966   4.517  0.00  0.00    +0.022 A 
ATOM     15  C   UNL     1       3.873 -16.006   3.636  0.00  0.00    +0.113 A 
ATOM     16  N   UNL     1       3.562 -15.776   2.376  0.00  0.00    -0.236 NA
ATOM     17  C   UNL     1       3.459 -14.546   1.900  0.00  0.00    +0.159 A 
ATOM     18  N   UNL     1       3.153 -14.037   0.644  0.00  0.00    -0.291 N 
ATOM     19  H   UNL     1       2.940 -14.721  -0.190  0.00  0.00    +0.172 HD
ATOM     20  C   UNL     1       3.181 -12.693   0.709  0.00  0.00    +0.329 A 
ATOM     21  O   UNL     1       2.953 -11.941  -0.221  0.00  0.00    -0.246 OA
ENDBRANCH   7  11
BRANCH   1  25
ATOM     22  C   UNL     1       1.101  -2.185  -0.015  0.00  0.00    +0.055 C 
ATOM     23  C   UNL     1       1.198  -2.693   1.413  0.00  0.00    +0.013 C 
ATOM     24  C   UNL     1       0.992  -4.191   1.545  0.00  0.00    +0.032 C 
ATOM     25  C   UNL     1       2.138  -4.956   0.880  0.00  0.00    +0.160 C 
ATOM     26  C   UNL     1       1.829  -5.097  -0.596  0.00  0.00    +0.233 C 
ATOM     27  O   UNL     1       1.527  -6.180  -1.049  0.00  0.00    -0.274 OA
ATOM     28  N   UNL     1       1.889  -4.033  -1.398  0.00  0.00    -0.313 N 
ATOM     29  C   UNL     1       2.261  -2.714  -0.861  0.00  0.00    +0.114 C 
ATOM     30  H   UNL     1       1.658  -4.146  -2.468  0.00  0.00    +0.149 HD
BRANCH  22  35
ATOM     31  C   UNL     1       2.381   1.360  -0.015  0.00  0.00    +0.003 A 
ATOM     32  C   UNL     1       1.173   2.041   0.004  0.00  0.00    +0.020 A 
ATOM     33  C   UNL     1      -0.006   1.320   0.016  0.00  0.00    +0.111 A 
ATOM     34  N   UNL     1       0.010   0.001   0.009  0.00  0.00    -0.260 NA
ATOM     35  C   UNL     1       1.139  -0.679  -0.009  0.00  0.00    +0.046 A 
ATOM     36  C   UNL     1       2.357  -0.026  -0.021  0.00  0.00    +0.023 A 
ENDBRANCH  22  35
ENDBRANCH   1  25
TORSDOF 3
