REMARK  Name = ZINC36571436
REMARK  17 active torsions:
REMARK  status: ('A' for Active; 'I' for Inactive)
REMARK    1  A    between atoms: C_1  and  C_2
REMARK    2  A    between atoms: C_2  and  C_3
REMARK    3  A    between atoms: C_3  and  N_4
REMARK    4  A    between atoms: N_4  and  C_5
REMARK    5  A    between atoms: C_5  and  C_7
REMARK    6  A    between atoms: C_5  and  C_14
REMARK    7  A    between atoms: N_16  and  C_17
REMARK    8  A    between atoms: C_17  and  C_18
REMARK    9  A    between atoms: C_17  and  C_19
REMARK   10  A    between atoms: C_17  and  C_20
REMARK   11  A    between atoms: C_20  and  C_21
REMARK   12  A    between atoms: C_21  and  C_22
REMARK   13  A    between atoms: C_21  and  C_23
REMARK   14  A    between atoms: C_21  and  C_24
REMARK   15  A    between atoms: C_25  and  C_27
REMARK   16  A    between atoms: C_31  and  O_34
REMARK   17  A    between atoms: C_32  and  O_33
REMARK                            x       y       z     vdW  Elec       q    Type
REMARK                         _______ _______ _______ _____ _____    ______ ____
ROOT
ATOM      1  C   UNL     1       0.786  -4.333  -1.420  0.00  0.00    +0.192 C 
ENDROOT
BRANCH   1   2
ATOM      2  C   UNL     1      -0.007  -3.355  -0.592  0.00  0.00    -0.018 A 
ATOM      3  C   UNL     1       0.452  -2.063  -0.420  0.00  0.00    +0.007 A 
ATOM      4  C   UNL     1      -0.275  -1.165   0.339  0.00  0.00    +0.020 A 
ATOM      5  C   UNL     1      -1.463  -1.561   0.928  0.00  0.00    +0.041 A 
ATOM      6  C   UNL     1      -1.922  -2.855   0.756  0.00  0.00    +0.020 A 
ATOM      7  C   UNL     1      -1.197  -3.749  -0.009  0.00  0.00    +0.007 A 
ATOM      8 CL   UNL     1      -2.376  -0.435   1.882  0.00  0.00    -0.084 Cl
ENDBRANCH   1   2
BRANCH   1   9
ATOM      9  C   UNL     1      -0.075  -4.857  -2.540  0.00  0.00    +0.239 C 
ATOM     10  O   UNL     1       0.223  -4.626  -3.693  0.00  0.00    -0.273 OA
ATOM     11  N   UNL     1      -1.177  -5.582  -2.261  0.00  0.00    -0.308 N 
ATOM     12  H   UNL     1      -1.415  -5.767  -1.339  0.00  0.00    +0.149 HD
BRANCH  11  13
ATOM     13  C   UNL     1      -2.014  -6.092  -3.350  0.00  0.00    +0.030 C 
ATOM     14  C   UNL     1      -2.896  -4.963  -3.886  0.00  0.00    +0.031 C 
ATOM     15  C   UNL     1      -1.121  -6.619  -4.475  0.00  0.00    +0.031 C 
BRANCH  13  16
ATOM     16  C   UNL     1      -2.898  -7.225  -2.826  0.00  0.00    +0.031 C 
BRANCH  16  17
ATOM     17  C   UNL     1      -2.086  -8.107  -1.875  0.00  0.00    -0.036 C 
ATOM     18  C   UNL     1      -2.241  -7.591  -0.443  0.00  0.00    +0.010 C 
ATOM     19  C   UNL     1      -2.596  -9.548  -1.956  0.00  0.00    +0.010 C 
ATOM     20  C   UNL     1      -0.610  -8.066  -2.276  0.00  0.00    +0.010 C 
ENDBRANCH  16  17
ENDBRANCH  13  16
ENDBRANCH  11  13
ENDBRANCH   1   9
BRANCH   1  21
ATOM     21  N   UNL     1       1.959  -3.659  -1.980  0.00  0.00    -0.282 N 
ATOM     22  C   UNL     1       3.095  -3.572  -1.260  0.00  0.00    +0.251 C 
ATOM     23  O   UNL     1       4.082  -3.049  -1.740  0.00  0.00    -0.270 OA
BRANCH  22  24
ATOM     24  C   UNL     1       3.141  -4.112   0.113  0.00  0.00    +0.082 A 
ATOM     25  C   UNL     1       1.955  -4.381   0.802  0.00  0.00    +0.017 A 
ATOM     26  C   UNL     1       2.002  -4.886   2.083  0.00  0.00    +0.005 A 
ATOM     27  C   UNL     1       3.220  -5.130   2.695  0.00  0.00    +0.049 A 
ATOM     28  C   UNL     1       4.404  -4.869   2.025  0.00  0.00    +0.159 A 
ATOM     29  C   UNL     1       4.372  -4.364   0.729  0.00  0.00    +0.171 A 
BRANCH  29  30
ATOM     30  O   UNL     1       5.530  -4.112   0.067  0.00  0.00    -0.503 OA
ATOM     31  H   UNL     1       5.872  -3.217   0.198  0.00  0.00    +0.292 HD
ENDBRANCH  29  30
BRANCH  28  32
ATOM     32  O   UNL     1       5.596  -5.111   2.632  0.00  0.00    -0.503 OA
ATOM     33  H   UNL     1       5.939  -6.002   2.484  0.00  0.00    +0.292 HD
ENDBRANCH  28  32
ENDBRANCH  22  24
BRANCH  21  34
ATOM     34  C   UNL     1       1.899  -3.079  -3.324  0.00  0.00    +0.109 C 
BRANCH  34  36
ATOM     35  C   UNL     1       2.723  -3.339  -5.668  0.00  0.00    +0.005 C 
ATOM     36  C   UNL     1       2.965  -3.728  -4.209  0.00  0.00    +0.016 C 
ENDBRANCH  34  36
ENDBRANCH  21  34
ENDBRANCH   1  21
TORSDOF 11
