REMARK  Name = ZINC09951206
REMARK  9 active torsions:
REMARK  status: ('A' for Active; 'I' for Inactive)
REMARK    1  A    between atoms: C_1  and  N_2
REMARK    2  A    between atoms: N_2  and  C_3
REMARK    3  A    between atoms: N_2  and  S_4
REMARK    4  A    between atoms: S_4  and  C_7
REMARK    5  A    between atoms: C_11  and  C_13
REMARK    6  A    between atoms: C_13  and  S_14
REMARK    7  A    between atoms: S_14  and  C_15
REMARK    8  A    between atoms: C_18  and  C_21
REMARK    9  A    between atoms: N_19  and  N_20
REMARK                            x       y       z     vdW  Elec       q    Type
REMARK                         _______ _______ _______ _____ _____    ______ ____
ROOT
ATOM      1  C   UNL     1      -0.022   1.758   0.012  0.00  0.00    +0.209 A 
ATOM      2  N   UNL     1       1.026   2.552   0.006  0.00  0.00    -0.121 NA
ATOM      3  N   UNL     1       0.648   3.780   0.016  0.00  0.00    -0.127 NA
ATOM      4  C   UNL     1      -0.663   3.846   0.029  0.00  0.00    +0.182 A 
ATOM      5  N   UNL     1      -1.132   2.553   0.021  0.00  0.00    -0.224 N 
ENDROOT
BRANCH   4   6
ATOM      6  C   UNL     1      -1.480   5.078   0.043  0.00  0.00    +0.021 A 
ATOM      7  C   UNL     1      -2.838   5.014   0.362  0.00  0.00    +0.013 A 
ATOM      8  C   UNL     1      -3.594   6.167   0.380  0.00  0.00    +0.021 A 
ATOM      9  C   UNL     1      -3.012   7.385   0.071  0.00  0.00    +0.041 A 
ATOM     10  C   UNL     1      -1.667   7.454  -0.252  0.00  0.00    +0.021 A 
ATOM     11  C   UNL     1      -0.899   6.308  -0.267  0.00  0.00    +0.013 A 
ATOM     12 CL   UNL     1      -3.972   8.831   0.088  0.00  0.00    -0.084 Cl
ENDBRANCH   4   6
BRANCH   5  13
ATOM     13  N   UNL     1      -2.437   2.148   0.023  0.00  0.00    -0.295 N 
ATOM     14  H   UNL     1      -2.779   2.036   0.966  0.00  0.00    +0.163 HD
ATOM     15  H   UNL     1      -3.016   2.791  -0.497  0.00  0.00    +0.163 HD
ENDBRANCH   5  13
BRANCH   1  16
ATOM     16  S   UNL     1       0.002  -0.004   0.002  0.00  0.00    -0.080 S 
BRANCH  16  17
ATOM     17  C   UNL     1       1.789  -0.294  -0.016  0.00  0.00    +0.112 C 
BRANCH  17  22
ATOM     18  C   UNL     1       2.437  -3.824   1.157  0.00  0.00    +0.106 A 
ATOM     19  C   UNL     1       2.549  -4.497  -0.045  0.00  0.00    +0.028 A 
ATOM     20  C   UNL     1       2.415  -3.811  -1.238  0.00  0.00    +0.002 A 
ATOM     21  C   UNL     1       2.169  -2.451  -1.228  0.00  0.00    +0.004 A 
ATOM     22  C   UNL     1       2.057  -1.777  -0.026  0.00  0.00    -0.035 A 
ATOM     23  C   UNL     1       2.196  -2.463   1.166  0.00  0.00    +0.033 A 
BRANCH  18  24
ATOM     24  S   UNL     1       2.609  -4.699   2.676  0.00  0.00    +0.060 S 
ATOM     25  O   UNL     1       1.920  -3.941   3.662  0.00  0.00    -0.153 OA
ATOM     26  O   UNL     1       2.293  -6.056   2.401  0.00  0.00    -0.153 OA
BRANCH  24  28
ATOM     27  C   UNL     1       4.733  -3.564   3.908  0.00  0.00    +0.131 C 
ATOM     28  N   UNL     1       4.213  -4.659   3.086  0.00  0.00    -0.183 NA
ATOM     29  C   UNL     1       5.113  -5.719   2.624  0.00  0.00    +0.131 C 
ENDBRANCH  24  28
ENDBRANCH  18  24
ENDBRANCH  17  22
ENDBRANCH  16  17
ENDBRANCH   1  16
TORSDOF 7
