REMARK  Name = ZINC38850501
REMARK  6 active torsions:
REMARK  status: ('A' for Active; 'I' for Inactive)
REMARK    1  A    between atoms: C_6  and  C_7
REMARK    2  A    between atoms: C_7  and  N_8
REMARK    3  A    between atoms: C_11  and  C_14
REMARK    4  A    between atoms: N_16  and  C_17
REMARK    5  A    between atoms: C_20  and  S_23
REMARK    6  A    between atoms: S_23  and  N_26
REMARK                            x       y       z     vdW  Elec       q    Type
REMARK                         _______ _______ _______ _____ _____    ______ ____
ROOT
ATOM      1  C   UNL     1      -2.983  -2.839  -5.004  0.00  0.00    +0.220 C 
ATOM      2  O   UNL     1      -2.262  -2.440  -5.893  0.00  0.00    -0.275 OA
ATOM      3  N   UNL     1      -4.181  -3.383  -5.301  0.00  0.00    -0.285 N 
ATOM      4  H   UNL     1      -4.728  -3.763  -4.597  0.00  0.00    +0.155 HD
ENDROOT
BRANCH   1   8
ATOM      5  N   UNL     1      -1.723  -1.036  -1.364  0.00  0.00    +0.382 N 
ATOM      6  C   UNL     1      -0.748  -1.897  -2.043  0.00  0.00    -0.078 C 
ATOM      7  C   UNL     1      -1.156  -2.079  -3.507  0.00  0.00    -0.006 C 
ATOM      8  C   UNL     1      -2.542  -2.728  -3.568  0.00  0.00    +0.072 C 
ATOM      9  C   UNL     1      -3.536  -1.859  -2.792  0.00  0.00    -0.006 C 
ATOM     10  C   UNL     1      -3.040  -1.684  -1.355  0.00  0.00    -0.078 C 
ATOM     11  H   UNL     1      -1.787  -0.154  -1.850  0.00  0.00    -0.081 HD
BRANCH   5  12
ATOM     12  C   UNL     1      -1.286  -0.800   0.019  0.00  0.00    -0.043 C 
BRANCH  12  18
ATOM     13  C   UNL     1      -0.016   1.357   0.028  0.00  0.00    +0.003 A 
ATOM     14  C   UNL     1       1.169   2.068   0.022  0.00  0.00    +0.015 A 
ATOM     15  C   UNL     1       2.378   1.396  -0.001  0.00  0.00    +0.018 A 
ATOM     16  C   UNL     1       2.400   0.013  -0.017  0.00  0.00    +0.015 A 
ATOM     17  C   UNL     1       1.214  -0.697  -0.011  0.00  0.00    +0.003 A 
ATOM     18  C   UNL     1       0.006  -0.025   0.012  0.00  0.00    -0.064 A 
ATOM     19 BR   UNL     1       4.000   2.368  -0.010  0.00  0.00    -0.050 Br
ENDBRANCH  12  18
ENDBRANCH   5  12
ENDBRANCH   1   8
BRANCH   3  20
ATOM     20  C   UNL     1      -4.633  -3.399  -6.625  0.00  0.00    +0.034 A 
ATOM     21  C   UNL     1      -5.984  -3.239  -6.901  0.00  0.00    +0.025 A 
ATOM     22  C   UNL     1      -6.428  -3.255  -8.209  0.00  0.00    +0.030 A 
ATOM     23  C   UNL     1      -5.527  -3.430  -9.243  0.00  0.00    +0.106 A 
ATOM     24  C   UNL     1      -4.181  -3.590  -8.972  0.00  0.00    +0.030 A 
ATOM     25  C   UNL     1      -3.730  -3.568  -7.667  0.00  0.00    +0.025 A 
BRANCH  23  26
ATOM     26  S   UNL     1      -6.097  -3.450 -10.911  0.00  0.00    +0.061 S 
ATOM     27  O   UNL     1      -5.131  -4.173 -11.661  0.00  0.00    -0.153 OA
ATOM     28  O   UNL     1      -7.466  -3.826 -10.867  0.00  0.00    -0.153 OA
BRANCH  26  29
ATOM     29  N   UNL     1      -6.052  -1.889 -11.462  0.00  0.00    -0.172 NA
ATOM     30  C   UNL     1      -7.212  -0.997 -11.307  0.00  0.00    +0.137 C 
ATOM     31  C   UNL     1      -6.732   0.316 -10.678  0.00  0.00    +0.177 C 
ATOM     32  O   UNL     1      -5.634   0.828 -11.438  0.00  0.00    -0.377 OA
ATOM     33  C   UNL     1      -4.485  -0.022 -11.453  0.00  0.00    +0.177 C 
ATOM     34  C   UNL     1      -4.848  -1.351 -12.116  0.00  0.00    +0.137 C 
ENDBRANCH  26  29
ENDBRANCH  23  26
ENDBRANCH   3  20
TORSDOF 6
