REMARK  Name = ZINC64109009
REMARK  5 active torsions:
REMARK  status: ('A' for Active; 'I' for Inactive)
REMARK    1  A    between atoms: C_1  and  C_2
REMARK    2  A    between atoms: C_7  and  C_11
REMARK    3  A    between atoms: C_7  and  C_12
REMARK    4  A    between atoms: C_14  and  C_16
REMARK    5  A    between atoms: C_21  and  C_24
REMARK                            x       y       z     vdW  Elec       q    Type
REMARK                         _______ _______ _______ _____ _____    ______ ____
ROOT
ATOM      1  C   UNL     1       2.160  -0.337  -1.176  0.00  0.00    +0.252 C 
ATOM      2  O   UNL     1       2.307  -0.932  -2.222  0.00  0.00    -0.272 OA
ATOM      3  N   UNL     1       2.829   0.812  -0.954  0.00  0.00    -0.262 N 
ATOM      4  C   UNL     1       3.603   1.371  -1.963  0.00  0.00    +0.165 A 
ATOM      5  N   UNL     1       4.327   2.471  -1.942  0.00  0.00    -0.223 NA
ATOM      6  C   UNL     1       5.017   2.865  -3.014  0.00  0.00    +0.095 A 
ATOM      7  C   UNL     1       4.965   2.102  -4.157  0.00  0.00    +0.078 A 
ATOM      8  S   UNL     1       3.882   0.782  -3.627  0.00  0.00    -0.060 S 
ATOM      9  H   UNL     1       2.770   1.248  -0.090  0.00  0.00    +0.157 HD
ENDROOT
BRANCH   1  22
ATOM     10  C   UNL     1      -0.015   1.509   0.007  0.00  0.00    +0.042 C 
ATOM     11  C   UNL     1       0.001   0.003  -0.002  0.00  0.00    -0.026 C 
ATOM     12  C   UNL     1      -1.047  -0.786   0.089  0.00  0.00    +0.025 C 
ATOM     13  C   UNL     1      -0.578  -2.240   0.053  0.00  0.00    +0.154 C 
ATOM     14  C   UNL     1      -1.573  -2.969  -0.848  0.00  0.00    +0.043 C 
ATOM     15  C   UNL     1      -2.983  -2.929  -0.286  0.00  0.00    -0.025 C 
ATOM     16  C   UNL     1      -3.303  -1.736   0.598  0.00  0.00    +0.086 C 
ATOM     17  C   UNL     1      -2.491  -0.517   0.177  0.00  0.00    +0.162 C 
ATOM     18  O   UNL     1      -2.980   0.573  -0.037  0.00  0.00    -0.292 OA
ATOM     19  C   UNL     1      -3.967  -2.935  -1.458  0.00  0.00    +0.011 C 
ATOM     20  C   UNL     1      -3.211  -4.204   0.529  0.00  0.00    +0.011 C 
ATOM     21  O   UNL     1       0.737  -2.180  -0.514  0.00  0.00    -0.355 OA
ATOM     22  C   UNL     1       1.228  -0.881  -0.124  0.00  0.00    +0.231 C 
ENDBRANCH   1  22
BRANCH   6  23
ATOM     23  C   UNL     1       5.818   4.093  -2.973  0.00  0.00    +0.071 C 
ATOM     24  N   UNL     1       6.533   4.596  -3.943  0.00  0.00    -0.258 NA
ATOM     25  C   UNL     1       7.161   5.740  -3.603  0.00  0.00    +0.107 C 
ATOM     26  C   UNL     1       6.911   6.104  -2.347  0.00  0.00    -0.001 C 
ATOM     27  C   UNL     1       5.980   5.039  -1.799  0.00  0.00    +0.086 C 
ENDBRANCH   6  23
TORSDOF 2
