REMARK  Name = ZINC19883810
REMARK  8 active torsions:
REMARK  status: ('A' for Active; 'I' for Inactive)
REMARK    1  A    between atoms: C_1  and  C_2
REMARK    2  A    between atoms: C_2  and  N_3
REMARK    3  A    between atoms: N_6  and  C_9
REMARK    4  A    between atoms: C_15  and  C_17
REMARK    5  A    between atoms: C_20  and  C_32
REMARK    6  A    between atoms: C_22  and  N_23
REMARK    7  A    between atoms: C_27  and  C_30
REMARK    8  A    between atoms: C_30  and  O_31
REMARK                            x       y       z     vdW  Elec       q    Type
REMARK                         _______ _______ _______ _____ _____    ______ ____
ROOT
ATOM      1  C   UNL     1       3.663   7.122   0.297  0.00  0.00    +0.077 A 
ATOM      2  C   UNL     1       4.759   7.234  -0.571  0.00  0.00    +0.018 A 
ATOM      3  C   UNL     1       5.894   6.523  -0.288  0.00  0.00    +0.029 A 
ATOM      4  C   UNL     1       5.934   5.712   0.848  0.00  0.00    +0.074 A 
ATOM      5  N   UNL     1       4.888   5.623   1.662  0.00  0.00    -0.231 NA
ATOM      6  C   UNL     1       3.768   6.287   1.424  0.00  0.00    +0.134 A 
ENDROOT
BRANCH   1  13
ATOM      7  C   UNL     1       2.465  11.932   0.618  0.00  0.00    +0.059 C 
ATOM      8  C   UNL     1       1.188  11.098   0.737  0.00  0.00    +0.038 C 
ATOM      9  C   UNL     1       1.219   9.972  -0.302  0.00  0.00    +0.109 C 
ATOM     10  N   UNL     1       2.459   9.204  -0.129  0.00  0.00    -0.297 N 
ATOM     11  C   UNL     1       3.741   9.922  -0.131  0.00  0.00    +0.109 C 
ATOM     12  C   UNL     1       3.682  11.047   0.901  0.00  0.00    +0.038 C 
ATOM     13  C   UNL     1       2.421   7.866   0.033  0.00  0.00    +0.250 C 
ATOM     14  O   UNL     1       1.361   7.274  -0.040  0.00  0.00    -0.270 OA
BRANCH   7  18
ATOM     15  N   UNL     1       2.387  15.761   2.400  0.00  0.00    +0.381 N 
ATOM     16  C   UNL     1       3.591  14.940   2.585  0.00  0.00    -0.063 C 
ATOM     17  C   UNL     1       3.637  13.856   1.505  0.00  0.00    +0.066 C 
ATOM     18  N   UNL     1       2.424  13.032   1.591  0.00  0.00    -0.303 NA
ATOM     19  C   UNL     1       1.219  13.853   1.406  0.00  0.00    +0.066 C 
ATOM     20  C   UNL     1       1.173  14.937   2.485  0.00  0.00    -0.063 C 
ATOM     21  H   UNL     1       2.427  16.203   1.393  0.00  0.00    -0.082 HD
BRANCH  15  23
ATOM     22  C   UNL     1       1.223  17.832   2.997  0.00  0.00    -0.017 C 
ATOM     23  C   UNL     1       2.345  16.861   3.373  0.00  0.00    -0.082 C 
ENDBRANCH  15  23
ENDBRANCH   7  18
ENDBRANCH   1  13
BRANCH   6  24
ATOM     24  N   UNL     1       2.699   6.165   2.292  0.00  0.00    -0.314 N 
ATOM     25  C   UNL     1       2.105   4.824   2.210  0.00  0.00    +0.106 C 
ATOM     26  C   UNL     1       0.841   4.771   3.071  0.00  0.00    +0.019 C 
ATOM     27  C   UNL     1       1.204   5.101   4.521  0.00  0.00    +0.009 C 
ATOM     28  C   UNL     1       1.864   6.481   4.573  0.00  0.00    +0.032 C 
ATOM     29  C   UNL     1       3.098   6.485   3.668  0.00  0.00    +0.112 C 
BRANCH  28  30
ATOM     30  C   UNL     1       2.283   6.794   6.011  0.00  0.00    +0.160 C 
BRANCH  30  31
ATOM     31  O   UNL     1       1.120   6.905   6.833  0.00  0.00    -0.395 OA
ATOM     32  H   UNL     1       1.223   7.128   7.905  0.00  0.00    +0.209 HD
ENDBRANCH  30  31
ENDBRANCH  28  30
ENDBRANCH   6  24
BRANCH   4  33
ATOM     33  C   UNL     1       7.162   4.945   1.153  0.00  0.00    +0.007 A 
ATOM     34  C   UNL     1       7.199   4.052   2.224  0.00  0.00    +0.017 A 
ATOM     35  C   UNL     1       8.352   3.381   2.441  0.00  0.00    +0.046 A 
ATOM     36  S   UNL     1       9.408   4.007   1.148  0.00  0.00    -0.104 S 
ATOM     37  C   UNL     1       8.290   5.098   0.397  0.00  0.00    +0.055 A 
ENDBRANCH   4  33
TORSDOF 7
