REMARK  Name = ZINC06378963
REMARK  11 active torsions:
REMARK  status: ('A' for Active; 'I' for Inactive)
REMARK    1  A    between atoms: C_1  and  N_56
REMARK    2  A    between atoms: C_2  and  N_56
REMARK    3  A    between atoms: C_3  and  C_4
REMARK    4  A    between atoms: C_3  and  N_56
REMARK    5  A    between atoms: C_7  and  C_10
REMARK    6  A    between atoms: C_14  and  C_23
REMARK    7  A    between atoms: C_17  and  C_19
REMARK    8  A    between atoms: C_26  and  C_29
REMARK    9  A    between atoms: C_29  and  N_58
REMARK   10  A    between atoms: C_30  and  N_58
REMARK   11  A    between atoms: C_31  and  N_58
REMARK                            x       y       z     vdW  Elec       q    Type
REMARK                         _______ _______ _______ _____ _____    ______ ____
ROOT
ATOM      1  C   UNL     1      -0.013   1.086   0.008  0.00  0.00    +0.124 C 
ATOM      2  C   UNL     1      -0.783   1.608   1.247  0.00  0.00    +0.031 C 
ATOM      3  C   UNL     1      -2.255   1.496   0.768  0.00  0.00    +0.031 C 
ATOM      4  C   UNL     1      -2.158   1.845  -0.732  0.00  0.00    +0.124 C 
ATOM      5  N   UNL     1      -0.768   1.595  -1.151  0.00  0.00    -0.277 N 
ATOM      6  C   UNL     1      -0.268   1.798  -2.386  0.00  0.00    +0.321 C 
ATOM      7  O   UNL     1       0.898   1.557  -2.616  0.00  0.00    -0.266 OA
ENDROOT
BRANCH   1  11
ATOM      8  C   UNL     1       3.587   1.787   0.266  0.00  0.00    -0.000 A 
ATOM      9  C   UNL     1       3.163   2.945  -0.278  0.00  0.00    +0.021 A 
ATOM     10  C   UNL     1       1.768   2.845  -0.449  0.00  0.00    +0.024 A 
ATOM     11  C   UNL     1       1.393   1.629  -0.003  0.00  0.00    +0.037 A 
ATOM     12  N   UNL     1       2.505   0.977   0.443  0.00  0.00    -0.362 N 
ATOM     13  H   UNL     1       2.523   0.084   0.821  0.00  0.00    +0.165 HD
BRANCH   8  14
ATOM     14  C   UNL     1       5.012   1.448   0.623  0.00  0.00    -0.025 C 
BRANCH  14  17
ATOM     15  C   UNL     1       4.451   0.871   2.906  0.00  0.00    -0.096 C 
ATOM     16  C   UNL     1       6.676   1.660   2.368  0.00  0.00    -0.096 C 
ATOM     17  N   UNL     1       5.239   1.778   2.045  0.00  0.00    +0.380 N 
ATOM     18  H   UNL     1       4.937   2.745   2.215  0.00  0.00    -0.082 HD
ENDBRANCH  14  17
ENDBRANCH   8  14
ENDBRANCH   1  11
BRANCH   4  19
ATOM     19  C   UNL     1      -3.099   0.974  -1.523  0.00  0.00    +0.037 A 
ATOM     20  C   UNL     1      -2.844  -0.278  -1.955  0.00  0.00    +0.024 A 
ATOM     21  C   UNL     1      -3.985  -0.725  -2.649  0.00  0.00    +0.021 A 
ATOM     22  C   UNL     1      -4.894   0.270  -2.615  0.00  0.00    -0.000 A 
ATOM     23  N   UNL     1      -4.359   1.313  -1.920  0.00  0.00    -0.362 N 
ATOM     24  H   UNL     1      -4.800   2.158  -1.740  0.00  0.00    +0.165 HD
BRANCH  22  25
ATOM     25  C   UNL     1      -6.268   0.232  -3.233  0.00  0.00    -0.025 C 
BRANCH  25  28
ATOM     26  C   UNL     1      -7.370   0.835  -1.163  0.00  0.00    -0.096 C 
ATOM     27  C   UNL     1      -8.556  -0.455  -2.834  0.00  0.00    -0.096 C 
ATOM     28  N   UNL     1      -7.241  -0.202  -2.208  0.00  0.00    +0.380 N 
ATOM     29  H   UNL     1      -6.904  -1.071  -1.776  0.00  0.00    -0.082 HD
ENDBRANCH  25  28
ENDBRANCH  22  25
ENDBRANCH   4  19
BRANCH   6  30
ATOM     30  C   UNL     1      -1.159   2.326  -3.482  0.00  0.00    +0.470 C 
ATOM     31  F   UNL     1      -0.420   2.452  -4.663  0.00  0.00    -0.162 F 
ATOM     32  F   UNL     1      -2.220   1.438  -3.688  0.00  0.00    -0.162 F 
ATOM     33  F   UNL     1      -1.663   3.577  -3.111  0.00  0.00    -0.162 F 
ENDBRANCH   6  30
TORSDOF 7
