REMARK  Name = ZINC20503965
REMARK  8 active torsions:
REMARK  status: ('A' for Active; 'I' for Inactive)
REMARK    1  A    between atoms: C_1  and  C_2
REMARK    2  A    between atoms: C_2  and  C_3
REMARK    3  A    between atoms: C_9  and  C_11
REMARK    4  A    between atoms: C_11  and  C_12
REMARK    5  A    between atoms: N_14  and  C_15
REMARK    6  A    between atoms: C_15  and  C_16
REMARK    7  A    between atoms: C_16  and  N_17
REMARK    8  A    between atoms: N_25  and  C_26
REMARK                            x       y       z     vdW  Elec       q    Type
REMARK                         _______ _______ _______ _____ _____    ______ ____
ROOT
ATOM      1  C   UNL     1       0.609  -0.497  -1.315  0.00  0.00    +0.010 C 
ATOM      2  C   UNL     1       0.595  -2.029  -1.334  0.00  0.00    +0.113 C 
ATOM      3  N   UNL     1       1.280  -2.523  -0.133  0.00  0.00    -0.285 N 
ATOM      4  C   UNL     1       0.838  -2.039   1.182  0.00  0.00    +0.109 C 
ATOM      5  C   UNL     1       0.850  -0.507   1.173  0.00  0.00    +0.023 C 
ATOM      6  C   UNL     1       0.005  -0.002   0.002  0.00  0.00    +0.004 C 
ATOM      7  C   UNL     1       2.296  -3.403  -0.235  0.00  0.00    +0.302 C 
ATOM      8  O   UNL     1       2.592  -3.866  -1.319  0.00  0.00    -0.253 OA
ATOM      9  N   UNL     1       2.982  -3.771   0.866  0.00  0.00    -0.296 N 
ATOM     10  H   UNL     1       2.662  -3.418   1.857  0.00  0.00    +0.151 HD
ENDROOT
BRANCH   9  11
ATOM     11  C   UNL     1       4.154  -4.640   0.741  0.00  0.00    +0.074 C 
ATOM     12  C   UNL     1       3.705  -6.103   0.712  0.00  0.00    +0.022 C 
ATOM     13  C   UNL     1       4.929  -7.010   0.582  0.00  0.00    +0.002 C 
ATOM     14  C   UNL     1       5.859  -6.787   1.776  0.00  0.00    +0.000 C 
ATOM     15  C   UNL     1       6.309  -5.324   1.805  0.00  0.00    +0.002 C 
ATOM     16  C   UNL     1       5.085  -4.417   1.935  0.00  0.00    +0.022 C 
ENDBRANCH   9  11
BRANCH   1  18
ATOM     17  C   UNL     1       2.611  -0.387  -2.805  0.00  0.00    +0.004 C 
ATOM     18  C   UNL     1       2.050   0.002  -1.436  0.00  0.00    +0.002 C 
ENDBRANCH   1  18
BRANCH   6  19
ATOM     19  C   UNL     1      -0.014   1.528   0.010  0.00  0.00    +0.099 C 
BRANCH  19  20
ATOM     20  C   UNL     1      -0.719   2.015   1.250  0.00  0.00    +0.213 C 
ATOM     21  O   UNL     1      -1.162   1.217   2.048  0.00  0.00    -0.276 OA
ATOM     22  N   UNL     1      -0.857   3.337   1.472  0.00  0.00    -0.314 N 
ATOM     23  H   UNL     1      -0.454   4.061   0.748  0.00  0.00    +0.149 HD
BRANCH  22  24
ATOM     24  C   UNL     1      -1.542   3.810   2.677  0.00  0.00    +0.119 C 
BRANCH  24  25
ATOM     25  C   UNL     1      -1.561   5.340   2.685  0.00  0.00    +0.103 C 
BRANCH  25  26
ATOM     26  N   UNL     1      -2.249   5.814   3.893  0.00  0.00    -0.297 NA
ATOM     27  C   UNL     1      -3.674   5.454   3.865  0.00  0.00    +0.112 C 
ATOM     28  C   UNL     1      -4.337   5.913   5.166  0.00  0.00    +0.175 C 
ATOM     29  O   UNL     1      -4.138   7.320   5.326  0.00  0.00    -0.377 OA
ATOM     30  C   UNL     1      -2.761   7.707   5.358  0.00  0.00    +0.175 C 
ATOM     31  C   UNL     1      -2.082   7.266   4.059  0.00  0.00    +0.112 C 
ENDBRANCH  25  26
ENDBRANCH  24  25
ENDBRANCH  22  24
ENDBRANCH  19  20
ENDBRANCH   6  19
TORSDOF 7
