REMARK  Name = ZINC12534909
REMARK  9 active torsions:
REMARK  status: ('A' for Active; 'I' for Inactive)
REMARK    1  A    between atoms: C_1  and  C_2
REMARK    2  A    between atoms: C_2  and  N_3
REMARK    3  A    between atoms: N_3  and  C_4
REMARK    4  A    between atoms: N_3  and  S_6
REMARK    5  A    between atoms: C_4  and  C_5
REMARK    6  A    between atoms: S_6  and  C_9
REMARK    7  A    between atoms: C_17  and  C_19
REMARK    8  A    between atoms: C_19  and  S_20
REMARK    9  A    between atoms: S_20  and  C_21
REMARK                            x       y       z     vdW  Elec       q    Type
REMARK                         _______ _______ _______ _____ _____    ______ ____
ROOT
ATOM      1  C   UNL     1      11.097   5.705  -0.690  0.00  0.00    +0.108 A 
ATOM      2  C   UNL     1      11.071   5.689   0.697  0.00  0.00    +0.031 A 
ATOM      3  C   UNL     1       9.909   5.436   1.369  0.00  0.00    +0.032 A 
ATOM      4  C   UNL     1       8.732   5.189   0.657  0.00  0.00    +0.089 A 
ATOM      5  C   UNL     1       8.758   5.205  -0.748  0.00  0.00    +0.068 A 
ATOM      6  C   UNL     1       9.948   5.464  -1.414  0.00  0.00    +0.056 A 
ATOM      7  N   UNL     1       7.468   4.932  -1.156  0.00  0.00    -0.341 N 
ATOM      8  H   UNL     1       7.146   4.870  -2.100  0.00  0.00    +0.167 HD
ATOM      9  C   UNL     1       6.716   4.763  -0.035  0.00  0.00    +0.118 A 
ATOM     10  N   UNL     1       7.454   4.918   1.026  0.00  0.00    -0.232 NA
ENDROOT
BRANCH   1  11
ATOM     11  S   UNL     1      12.609   6.035  -1.533  0.00  0.00    +0.061 S 
ATOM     12  O   UNL     1      12.258   6.532  -2.817  0.00  0.00    -0.153 OA
ATOM     13  O   UNL     1      13.426   6.766  -0.630  0.00  0.00    -0.153 OA
BRANCH  11  14
ATOM     14  N   UNL     1      13.360   4.579  -1.779  0.00  0.00    -0.177 NA
BRANCH  14  16
ATOM     15  C   UNL     1      14.173   4.134  -4.042  0.00  0.00    +0.022 C 
ATOM     16  C   UNL     1      13.097   3.817  -3.002  0.00  0.00    +0.106 C 
ENDBRANCH  14  16
BRANCH  14  17
ATOM     17  C   UNL     1      14.287   4.054  -0.774  0.00  0.00    +0.106 C 
ATOM     18  C   UNL     1      13.541   3.098   0.159  0.00  0.00    +0.022 C 
ENDBRANCH  14  17
ENDBRANCH  11  14
ENDBRANCH   1  11
BRANCH   9  19
ATOM     19  C   UNL     1       5.242   4.449  -0.023  0.00  0.00    +0.151 C 
BRANCH  19  20
ATOM     20  S   UNL     1       5.008   2.654  -0.030  0.00  0.00    -0.080 S 
BRANCH  20  21
ATOM     21  C   UNL     1       3.248   2.575  -0.015  0.00  0.00    +0.168 A 
ATOM     22  N   UNL     1       2.514   1.422  -0.014  0.00  0.00    -0.333 N 
ATOM     23  H   UNL     1       2.874   0.489  -0.022  0.00  0.00    +0.168 HD
ATOM     24  C   UNL     1       1.178   1.787   0.000  0.00  0.00    +0.067 A 
ATOM     25  C   UNL     1      -0.013   1.076   0.008  0.00  0.00    +0.028 A 
ATOM     26  C   UNL     1      -1.216   1.751   0.017  0.00  0.00    +0.002 A 
ATOM     27  C   UNL     1      -1.243   3.138   0.030  0.00  0.00    +0.002 A 
ATOM     28  C   UNL     1      -0.071   3.860   0.023  0.00  0.00    +0.030 A 
ATOM     29  C   UNL     1       1.156   3.191   0.008  0.00  0.00    +0.090 A 
ATOM     30  N   UNL     1       2.448   3.612  -0.001  0.00  0.00    -0.222 NA
ENDBRANCH  20  21
ENDBRANCH  19  20
ENDBRANCH   9  19
TORSDOF 7
