REMARK  Name = ZINC04942634
REMARK  5 active torsions:
REMARK  status: ('A' for Active; 'I' for Inactive)
REMARK    1  A    between atoms: C_1  and  C_2
REMARK    2  A    between atoms: C_4  and  N_9
REMARK    3  A    between atoms: C_10  and  C_19
REMARK    4  A    between atoms: C_10  and  O_23
REMARK    5  A    between atoms: C_12  and  C_14
REMARK                            x       y       z     vdW  Elec       q    Type
REMARK                         _______ _______ _______ _____ _____    ______ ____
ROOT
ATOM      1  N   UNL     1      -2.373   4.306   0.048  0.00  0.00    -0.166 N 
ATOM      2  C   UNL     1      -2.474   5.774   0.063  0.00  0.00    +0.256 C 
ATOM      3  C   UNL     1      -3.994   6.032   0.074  0.00  0.00    +0.127 C 
ATOM      4  C   UNL     1      -4.600   4.647   0.072  0.00  0.00    +0.106 C 
ATOM      5  N   UNL     1      -3.656   3.765   0.058  0.00  0.00    -0.176 NA
ENDROOT
BRANCH   1   9
ATOM      6  C   UNL     1       0.002  -0.004   0.002  0.00  0.00    +0.066 C 
ATOM      7  C   UNL     1      -0.018   1.503   0.010  0.00  0.00    +0.045 A 
ATOM      8  C   UNL     1      -1.220   2.184   0.020  0.00  0.00    +0.068 A 
ATOM      9  C   UNL     1      -1.193   3.581   0.032  0.00  0.00    +0.149 A 
ATOM     10  N   UNL     1      -0.018   4.204   0.024  0.00  0.00    -0.198 NA
ATOM     11  C   UNL     1       1.111   3.513   0.010  0.00  0.00    +0.215 A 
ATOM     12  N   UNL     1       1.116   2.188   0.003  0.00  0.00    -0.220 NA
ATOM     13  N   UNL     1       2.318   4.191   0.002  0.00  0.00    -0.327 N 
ATOM     14  H   UNL     1       3.152   3.697  -0.008  0.00  0.00    +0.145 HD
ATOM     15  H   UNL     1       2.329   5.161   0.007  0.00  0.00    +0.145 HD
ENDBRANCH   1   9
BRANCH   4  16
ATOM     16  C   UNL     1      -6.036   4.351   0.085  0.00  0.00    +0.150 A 
ATOM     17  C   UNL     1      -6.598   3.107   0.083  0.00  0.00    +0.051 A 
ATOM     18  C   UNL     1      -7.993   3.294   0.098  0.00  0.00    +0.042 A 
ATOM     19  C   UNL     1      -8.215   4.623   0.108  0.00  0.00    +0.196 A 
ATOM     20  O   UNL     1      -7.032   5.259   0.106  0.00  0.00    -0.462 OA
ENDBRANCH   4  16
BRANCH   2  21
ATOM     21  C   UNL     1      -1.839   6.371  -1.194  0.00  0.00    +0.438 C 
ATOM     22  F   UNL     1      -2.477   5.857  -2.328  0.00  0.00    -0.166 F 
ATOM     23  F   UNL     1      -1.978   7.763  -1.172  0.00  0.00    -0.166 F 
ATOM     24  F   UNL     1      -0.481   6.038  -1.233  0.00  0.00    -0.166 F 
ENDBRANCH   2  21
BRANCH   2  25
ATOM     25  O   UNL     1      -1.863   6.308   1.239  0.00  0.00    -0.363 OA
ATOM     26  H   UNL     1      -0.918   6.116   1.313  0.00  0.00    +0.212 HD
ENDBRANCH   2  25
TORSDOF 4
