REMARK  Name = ZINC39152853
REMARK  7 active torsions:
REMARK  status: ('A' for Active; 'I' for Inactive)
REMARK    1  A    between atoms: C_4  and  C_7
REMARK    2  A    between atoms: C_9  and  C_33
REMARK    3  A    between atoms: C_11  and  N_22
REMARK    4  A    between atoms: C_14  and  C_16
REMARK    5  A    between atoms: C_23  and  C_25
REMARK    6  A    between atoms: C_25  and  S_26
REMARK    7  A    between atoms: S_26  and  C_27
REMARK                            x       y       z     vdW  Elec       q    Type
REMARK                         _______ _______ _______ _____ _____    ______ ____
ROOT
ATOM      1  C   UNL     1       3.750  -0.649  -0.002  0.00  0.00    +0.073 C 
ATOM      2  C   UNL     1       3.749  -1.642  -1.190  0.00  0.00    +0.149 C 
ATOM      3  C   UNL     1       4.405  -2.898  -0.563  0.00  0.00    +0.224 C 
ATOM      4  O   UNL     1       3.889  -2.911   0.785  0.00  0.00    -0.349 OA
ATOM      5  C   UNL     1       3.877  -1.546   1.245  0.00  0.00    +0.159 C 
ENDROOT
BRANCH   1   9
ATOM      6  C   UNL     1       0.093   1.556   0.106  0.00  0.00    +0.000 A 
ATOM      7  C   UNL     1       1.294   2.199   0.338  0.00  0.00    +0.000 A 
ATOM      8  C   UNL     1       2.478   1.485   0.303  0.00  0.00    +0.004 A 
ATOM      9  C   UNL     1       2.460   0.129   0.037  0.00  0.00    -0.040 A 
ATOM     10  C   UNL     1       1.258  -0.514  -0.194  0.00  0.00    +0.004 A 
ATOM     11  C   UNL     1       0.075   0.199  -0.160  0.00  0.00    +0.000 A 
ENDBRANCH   1   9
BRANCH   5  12
ATOM     12  C   UNL     1       2.701  -1.321   2.159  0.00  0.00    -0.018 A 
ATOM     13  C   UNL     1       1.585  -2.132   2.062  0.00  0.00    +0.006 A 
ATOM     14  C   UNL     1       0.506  -1.926   2.902  0.00  0.00    +0.000 A 
ATOM     15  C   UNL     1       0.543  -0.910   3.838  0.00  0.00    +0.000 A 
ATOM     16  C   UNL     1       1.659  -0.100   3.936  0.00  0.00    +0.000 A 
ATOM     17  C   UNL     1       2.740  -0.309   3.099  0.00  0.00    +0.006 A 
ENDBRANCH   5  12
BRANCH   3  18
ATOM     18  N   UNL     1       4.000  -4.107  -1.285  0.00  0.00    -0.288 N 
ATOM     19  C   UNL     1       4.870  -5.124  -1.438  0.00  0.00    +0.225 C 
ATOM     20  O   UNL     1       5.989  -5.040  -0.976  0.00  0.00    -0.275 OA
ATOM     21  H   UNL     1       3.106  -4.174  -1.654  0.00  0.00    +0.151 HD
BRANCH  19  22
ATOM     22  C   UNL     1       4.454  -6.367  -2.181  0.00  0.00    +0.173 C 
BRANCH  22  23
ATOM     23  S   UNL     1       5.835  -7.543  -2.215  0.00  0.00    -0.077 S 
BRANCH  23  24
ATOM     24  C   UNL     1       5.198  -8.923  -3.106  0.00  0.00    +0.184 A 
ATOM     25  H   UNL     1       6.782 -10.273  -3.157  0.00  0.00    +0.191 HD
ATOM     26  N   UNL     1       3.987  -9.027  -3.612  0.00  0.00    -0.209 NA
ATOM     27  C   UNL     1       3.854 -10.207  -4.218  0.00  0.00    +0.245 A 
ATOM     28  N   UNL     1       4.972 -10.873  -4.110  0.00  0.00    -0.160 NA
ATOM     29  N   UNL     1       5.867 -10.060  -3.396  0.00  0.00    -0.254 N 
ENDBRANCH  23  24
ENDBRANCH  22  23
ENDBRANCH  19  22
ENDBRANCH   3  18
BRANCH   2  30
ATOM     30  C   UNL     1       4.558  -1.127  -2.306  0.00  0.00    +0.071 C 
ATOM     31  N   UNL     1       5.183  -0.729  -3.167  0.00  0.00    -0.196 NA
ENDBRANCH   2  30
TORSDOF 7
