REMARK  Name = ZINC39850329
REMARK  10 active torsions:
REMARK  status: ('A' for Active; 'I' for Inactive)
REMARK    1  A    between atoms: C_1  and  C_2
REMARK    2  A    between atoms: C_2  and  C_3
REMARK    3  A    between atoms: C_3  and  O_4
REMARK    4  A    between atoms: O_4  and  C_5
REMARK    5  A    between atoms: C_8  and  C_11
REMARK    6  A    between atoms: C_13  and  C_25
REMARK    7  A    between atoms: C_15  and  C_20
REMARK    8  A    between atoms: C_15  and  O_24
REMARK    9  A    between atoms: C_25  and  C_27
REMARK   10  A    between atoms: C_30  and  C_33
REMARK                            x       y       z     vdW  Elec       q    Type
REMARK                         _______ _______ _______ _____ _____    ______ ____
ROOT
ATOM      1  C   UNL     1       3.240  -4.426  -5.648  0.00  0.00    +0.120 C 
ATOM      2  C   UNL     1       2.176  -4.887  -6.650  0.00  0.00    +0.144 C 
ATOM      3  C   UNL     1       2.870  -5.664  -7.774  0.00  0.00    +0.243 C 
ATOM      4  N   UNL     1       3.647  -6.760  -7.192  0.00  0.00    -0.264 N 
ATOM      5  C   UNL     1       4.165  -6.669  -5.958  0.00  0.00    +0.302 C 
ATOM      6  O   UNL     1       4.811  -7.604  -5.526  0.00  0.00    -0.253 OA
ATOM      7  N   UNL     1       3.999  -5.587  -5.181  0.00  0.00    -0.292 N 
ATOM      8  H   UNL     1       3.791  -7.568  -7.710  0.00  0.00    +0.153 HD
ATOM      9  H   UNL     1       4.388  -5.575  -4.293  0.00  0.00    +0.151 HD
ENDROOT
BRANCH   1  13
ATOM     10  C   UNL     1       1.341  -2.529  -2.322  0.00  0.00    +0.121 A 
ATOM     11  C   UNL     1       1.909  -1.762  -3.329  0.00  0.00    +0.046 A 
ATOM     12  C   UNL     1       2.522  -2.377  -4.403  0.00  0.00    +0.009 A 
ATOM     13  C   UNL     1       2.571  -3.757  -4.475  0.00  0.00    -0.026 A 
ATOM     14  C   UNL     1       2.006  -4.524  -3.473  0.00  0.00    +0.009 A 
ATOM     15  C   UNL     1       1.397  -3.914  -2.394  0.00  0.00    +0.046 A 
BRANCH  10  16
ATOM     16  O   UNL     1       0.738  -1.926  -1.265  0.00  0.00    -0.492 OA
BRANCH  16  17
ATOM     17  C   UNL     1       0.718  -0.497  -1.257  0.00  0.00    +0.229 C 
BRANCH  17  19
ATOM     18  C   UNL     1      -0.019   1.526   0.010  0.00  0.00    +0.007 C 
ATOM     19  C   UNL     1       0.002  -0.004   0.002  0.00  0.00    +0.038 C 
ENDBRANCH  17  19
ENDBRANCH  16  17
ENDBRANCH  10  16
ENDBRANCH   1  13
BRANCH   3  20
ATOM     20  C   UNL     1       1.817  -6.234  -8.727  0.00  0.00    +0.436 C 
ATOM     21  F   UNL     1       1.070  -5.187  -9.277  0.00  0.00    -0.166 F 
ATOM     22  F   UNL     1       2.451  -6.943  -9.752  0.00  0.00    -0.166 F 
ATOM     23  F   UNL     1       0.967  -7.094  -8.022  0.00  0.00    -0.166 F 
ENDBRANCH   3  20
BRANCH   3  24
ATOM     24  O   UNL     1       3.742  -4.789  -8.492  0.00  0.00    -0.364 OA
ATOM     25  H   UNL     1       4.215  -5.215  -9.220  0.00  0.00    +0.212 HD
ENDBRANCH   3  24
BRANCH   2  26
ATOM     26  C   UNL     1       1.466  -3.688  -7.222  0.00  0.00    +0.173 C 
ATOM     27  O   UNL     1       2.051  -2.632  -7.332  0.00  0.00    -0.292 OA
BRANCH  26  28
ATOM     28  C   UNL     1       0.062  -3.799  -7.649  0.00  0.00    +0.018 A 
ATOM     29  C   UNL     1      -0.618  -5.014  -7.519  0.00  0.00    +0.011 A 
ATOM     30  C   UNL     1      -1.934  -5.110  -7.920  0.00  0.00    +0.004 A 
ATOM     31  C   UNL     1      -2.582  -4.007  -8.450  0.00  0.00    -0.050 A 
ATOM     32  C   UNL     1      -1.915  -2.801  -8.582  0.00  0.00    +0.004 A 
ATOM     33  C   UNL     1      -0.601  -2.688  -8.180  0.00  0.00    +0.011 A 
ATOM     34  C   UNL     1      -4.020  -4.120  -8.886  0.00  0.00    +0.044 C 
ENDBRANCH  26  28
ENDBRANCH   2  26
TORSDOF 8
