REMARK  Name = ZINC14261164
REMARK  9 active torsions:
REMARK  status: ('A' for Active; 'I' for Inactive)
REMARK    1  A    between atoms: C_1  and  C_2
REMARK    2  A    between atoms: C_4  and  C_29
REMARK    3  A    between atoms: C_5  and  N_9
REMARK    4  A    between atoms: C_6  and  C_8
REMARK    5  A    between atoms: C_10  and  C_12
REMARK    6  A    between atoms: C_12  and  N_13
REMARK    7  A    between atoms: C_14  and  C_16
REMARK    8  A    between atoms: C_16  and  N_17
REMARK    9  A    between atoms: C_19  and  C_22
REMARK                            x       y       z     vdW  Elec       q    Type
REMARK                         _______ _______ _______ _____ _____    ______ ____
ROOT
ATOM      1  N   UNL     1      -5.999   2.898  -1.138  0.00  0.00    -0.305 N 
ATOM      2  C   UNL     1      -7.260   3.314  -1.369  0.00  0.00    +0.237 C 
ATOM      3  O   UNL     1      -7.562   4.472  -1.175  0.00  0.00    -0.274 OA
ATOM      4  H   UNL     1      -5.758   1.972  -1.293  0.00  0.00    +0.149 HD
ENDROOT
BRANCH   1   5
ATOM      5  C   UNL     1      -4.993   3.846  -0.653  0.00  0.00    +0.200 C 
BRANCH   5   7
ATOM      6  N   UNL     1      -2.598   3.812  -0.036  0.00  0.00    -0.284 N 
ATOM      7  C   UNL     1      -3.676   3.135  -0.477  0.00  0.00    +0.234 C 
ATOM      8  O   UNL     1      -3.587   1.952  -0.732  0.00  0.00    -0.274 OA
ATOM      9  H   UNL     1      -2.685   4.739   0.234  0.00  0.00    +0.155 HD
BRANCH   6  14
ATOM     10  C   UNL     1       2.452   1.240   0.236  0.00  0.00    +0.044 C 
ATOM     11  C   UNL     1       1.110   1.923   0.163  0.00  0.00    -0.050 A 
ATOM     12  C   UNL     1       0.499   2.114  -1.062  0.00  0.00    +0.008 A 
ATOM     13  C   UNL     1      -0.728   2.745  -1.132  0.00  0.00    -0.029 A 
ATOM     14  C   UNL     1      -1.352   3.178   0.031  0.00  0.00    +0.039 A 
ATOM     15  C   UNL     1      -0.735   2.984   1.260  0.00  0.00    -0.029 A 
ATOM     16  C   UNL     1       0.494   2.357   1.323  0.00  0.00    +0.008 A 
ATOM     17  C   UNL     1      -1.406   3.457   2.523  0.00  0.00    +0.045 C 
ATOM     18  C   UNL     1      -1.391   2.958  -2.468  0.00  0.00    +0.045 C 
ENDBRANCH   6  14
ENDBRANCH   5   7
ENDBRANCH   1   5
BRANCH   2  19
ATOM     19  C   UNL     1      -8.295   2.339  -1.868  0.00  0.00    +0.263 C 
BRANCH  19  20
ATOM     20  N   UNL     1      -9.575   3.031  -2.039  0.00  0.00    -0.154 N 
ATOM     21  N   UNL     1     -10.487   3.145  -1.136  0.00  0.00    -0.130 NA
ATOM     22  C   UNL     1     -11.486   3.831  -1.655  0.00  0.00    +0.205 A 
ATOM     23  N   UNL     1     -11.138   4.119  -2.918  0.00  0.00    -0.108 NA
ATOM     24  N   UNL     1      -9.968   3.615  -3.117  0.00  0.00    -0.045 NA
BRANCH  22  25
ATOM     25  C   UNL     1     -12.751   4.207  -0.977  0.00  0.00    +0.023 A 
ATOM     26  C   UNL     1     -12.974   3.829   0.346  0.00  0.00    +0.013 A 
ATOM     27  C   UNL     1     -14.149   4.186   0.975  0.00  0.00    +0.021 A 
ATOM     28  C   UNL     1     -15.111   4.908   0.290  0.00  0.00    +0.041 A 
ATOM     29  C   UNL     1     -14.897   5.282  -1.026  0.00  0.00    +0.021 A 
ATOM     30  C   UNL     1     -13.722   4.934  -1.661  0.00  0.00    +0.013 A 
ATOM     31 CL   UNL     1     -16.591   5.348   1.083  0.00  0.00    -0.084 Cl
ENDBRANCH  22  25
ENDBRANCH  19  20
ENDBRANCH   2  19
TORSDOF 6
