REMARK  Name = ZINC39664531
REMARK  8 active torsions:
REMARK  status: ('A' for Active; 'I' for Inactive)
REMARK    1  A    between atoms: C_1  and  N_2
REMARK    2  A    between atoms: N_2  and  C_3
REMARK    3  A    between atoms: N_2  and  C_4
REMARK    4  A    between atoms: C_4  and  C_5
REMARK    5  A    between atoms: C_5  and  C_7
REMARK    6  A    between atoms: C_5  and  N_13
REMARK    7  A    between atoms: C_14  and  C_16
REMARK    8  A    between atoms: C_27  and  C_29
REMARK                            x       y       z     vdW  Elec       q    Type
REMARK                         _______ _______ _______ _____ _____    ______ ____
ROOT
ATOM      1  C   UNL     1       1.427  -2.654  -3.019  0.00  0.00    +0.100 C 
ATOM      2  C   UNL     1       0.584  -3.920  -3.290  0.00  0.00    +0.121 C 
ATOM      3  N   UNL     1       1.565  -4.934  -3.742  0.00  0.00    -0.296 N 
ATOM      4  C   UNL     1       2.751  -4.710  -2.881  0.00  0.00    +0.115 C 
ATOM      5  C   UNL     1       2.849  -3.177  -2.750  0.00  0.00    -0.004 C 
ATOM      6  C   UNL     1       3.295  -2.795  -1.342  0.00  0.00    -0.010 C 
ATOM      7  C   UNL     1       4.732  -3.275  -1.119  0.00  0.00    -0.082 C 
ATOM      8  N   UNL     1       5.615  -2.660  -2.117  0.00  0.00    +0.379 N 
ATOM      9  C   UNL     1       5.237  -3.106  -3.463  0.00  0.00    -0.082 C 
ATOM     10  C   UNL     1       3.821  -2.620  -3.785  0.00  0.00    -0.010 C 
ATOM     11  C   UNL     1       1.414  -5.853  -4.716  0.00  0.00    +0.249 C 
ATOM     12  O   UNL     1       2.287  -6.675  -4.917  0.00  0.00    -0.270 OA
ATOM     13  H   UNL     1       5.535  -1.655  -2.062  0.00  0.00    -0.086 HD
ATOM     14  H   UNL     1       6.569  -2.929  -1.930  0.00  0.00    -0.086 HD
ENDROOT
BRANCH  11  15
ATOM     15  C   UNL     1       0.188  -5.861  -5.540  0.00  0.00    +0.072 A 
ATOM     16  C   UNL     1      -1.049  -5.570  -4.960  0.00  0.00    +0.016 A 
ATOM     17  C   UNL     1      -2.189  -5.579  -5.734  0.00  0.00    +0.001 A 
ATOM     18  C   UNL     1      -2.113  -5.876  -7.085  0.00  0.00    +0.003 A 
ATOM     19  C   UNL     1      -0.893  -6.166  -7.667  0.00  0.00    +0.039 A 
ATOM     20  C   UNL     1       0.260  -6.155  -6.905  0.00  0.00    +0.135 A 
ATOM     21  F   UNL     1       1.453  -6.433  -7.476  0.00  0.00    -0.205 F 
ENDBRANCH  11  15
BRANCH   1  23
ATOM     22  N   UNL     1       0.675  -2.589  -0.664  0.00  0.00    -0.310 N 
ATOM     23  C   UNL     1       0.901  -1.921  -1.812  0.00  0.00    +0.219 C 
ATOM     24  O   UNL     1       0.681  -0.730  -1.875  0.00  0.00    -0.275 OA
ATOM     25  H   UNL     1       0.922  -3.524  -0.590  0.00  0.00    +0.149 HD
BRANCH  22  26
ATOM     26  C   UNL     1       0.056  -1.902   0.473  0.00  0.00    +0.087 C 
BRANCH  26  27
ATOM     27  C   UNL     1       0.621  -2.449   1.758  0.00  0.00    -0.029 A 
ATOM     28  C   UNL     1       0.862  -3.804   1.886  0.00  0.00    +0.005 A 
ATOM     29  C   UNL     1       1.380  -4.306   3.066  0.00  0.00    +0.000 A 
ATOM     30  C   UNL     1       1.658  -3.452   4.117  0.00  0.00    +0.000 A 
ATOM     31  C   UNL     1       1.418  -2.097   3.989  0.00  0.00    +0.000 A 
ATOM     32  C   UNL     1       0.903  -1.595   2.808  0.00  0.00    +0.005 A 
ENDBRANCH  26  27
BRANCH  26  33
ATOM     33  C   UNL     1      -1.457  -2.129   0.444  0.00  0.00    -0.052 C 
BRANCH  33  35
ATOM     34  C   UNL     1      -3.416  -2.007  -0.935  0.00  0.00    -0.097 C 
ATOM     35  N   UNL     1      -2.005  -1.616  -0.819  0.00  0.00    +0.377 N 
ATOM     36  C   UNL     1      -1.899  -0.151  -0.839  0.00  0.00    -0.097 C 
ATOM     37  H   UNL     1      -1.484  -2.001  -1.593  0.00  0.00    -0.083 HD
ENDBRANCH  33  35
ENDBRANCH  26  33
ENDBRANCH  22  26
ENDBRANCH   1  23
TORSDOF 6
