REMARK  Name = ZINC14275767
REMARK  8 active torsions:
REMARK  status: ('A' for Active; 'I' for Inactive)
REMARK    1  A    between atoms: C_1  and  C_2
REMARK    2  A    between atoms: C_2  and  C_3
REMARK    3  A    between atoms: C_6  and  N_9
REMARK    4  A    between atoms: C_13  and  C_31
REMARK    5  A    between atoms: C_14  and  N_18
REMARK    6  A    between atoms: N_18  and  C_19
REMARK    7  A    between atoms: C_19  and  N_21
REMARK    8  A    between atoms: C_22  and  C_24
REMARK                            x       y       z     vdW  Elec       q    Type
REMARK                         _______ _______ _______ _____ _____    ______ ____
ROOT
ATOM      1  N   UNL     1       1.254   1.690   0.569  0.00  0.00    -0.149 N 
ATOM      2  N   UNL     1       2.064   0.802   0.107  0.00  0.00    -0.147 NA
ATOM      3  C   UNL     1       1.416  -0.346  -0.016  0.00  0.00    +0.114 A 
ATOM      4  C   UNL     1       1.725  -1.648  -0.448  0.00  0.00    +0.037 A 
ATOM      5  C   UNL     1       0.763  -2.606  -0.432  0.00  0.00    -0.027 A 
ATOM      6  C   UNL     1      -0.540  -2.332   0.005  0.00  0.00    +0.038 A 
ATOM      7  C   UNL     1      -0.902  -1.089   0.436  0.00  0.00    +0.055 A 
ATOM      8  C   UNL     1       0.049  -0.055   0.443  0.00  0.00    +0.115 A 
ATOM      9  N   UNL     1       0.071   1.226   0.777  0.00  0.00    -0.147 NA
ATOM     10  C   UNL     1       1.104  -3.998  -0.896  0.00  0.00    +0.046 C 
ENDROOT
BRANCH   1  14
ATOM     11  C   UNL     1       2.346   5.642   1.313  0.00  0.00    -0.047 A 
ATOM     12  C   UNL     1       1.052   5.225   1.565  0.00  0.00    +0.006 A 
ATOM     13  C   UNL     1       0.687   3.916   1.319  0.00  0.00    +0.030 A 
ATOM     14  C   UNL     1       1.621   3.018   0.819  0.00  0.00    +0.086 A 
ATOM     15  C   UNL     1       2.921   3.439   0.573  0.00  0.00    +0.030 A 
ATOM     16  C   UNL     1       3.278   4.751   0.815  0.00  0.00    +0.006 A 
BRANCH  11  18
ATOM     17  C   UNL     1       3.251   7.198   3.019  0.00  0.00    +0.009 C 
ATOM     18  C   UNL     1       2.740   7.072   1.582  0.00  0.00    +0.032 C 
ENDBRANCH  11  18
ENDBRANCH   1  14
BRANCH   6  19
ATOM     19  N   UNL     1      -1.492  -3.357  -0.001  0.00  0.00    -0.296 N 
ATOM     20  H   UNL     1      -1.261  -4.235   0.341  0.00  0.00    +0.154 HD
BRANCH  19  21
ATOM     21  C   UNL     1      -2.730  -3.125  -0.480  0.00  0.00    +0.141 C 
ATOM     22  S   UNL     1      -3.096  -1.621  -1.212  0.00  0.00    -0.018 S 
BRANCH  21  23
ATOM     23  N   UNL     1      -3.679  -4.077  -0.385  0.00  0.00    -0.264 N 
ATOM     24  C   UNL     1      -4.917  -3.845  -0.865  0.00  0.00    +0.250 C 
ATOM     25  O   UNL     1      -5.177  -2.777  -1.384  0.00  0.00    -0.270 OA
ATOM     26  H   UNL     1      -3.471  -4.929   0.029  0.00  0.00    +0.157 HD
BRANCH  24  27
ATOM     27  C   UNL     1      -5.957  -4.888  -0.760  0.00  0.00    +0.037 A 
ATOM     28  C   UNL     1      -5.660  -6.118  -0.170  0.00  0.00    +0.014 A 
ATOM     29  C   UNL     1      -6.637  -7.086  -0.069  0.00  0.00    +0.016 A 
ATOM     30  C   UNL     1      -7.908  -6.844  -0.564  0.00  0.00    +0.018 A 
ATOM     31  C   UNL     1      -8.208  -5.629  -1.156  0.00  0.00    +0.016 A 
ATOM     32  C   UNL     1      -7.241  -4.651  -1.256  0.00  0.00    +0.014 A 
ATOM     33 BR   UNL     1      -9.240  -8.180  -0.429  0.00  0.00    -0.050 Br
ENDBRANCH  24  27
ENDBRANCH  21  23
ENDBRANCH  19  21
ENDBRANCH   6  19
TORSDOF 6
