REMARK  Name = ZINC20103655
REMARK  12 active torsions:
REMARK  status: ('A' for Active; 'I' for Inactive)
REMARK    1  A    between atoms: C_1  and  C_2
REMARK    2  A    between atoms: C_2  and  N_3
REMARK    3  A    between atoms: N_6  and  C_9
REMARK    4  A    between atoms: C_9  and  C_10
REMARK    5  A    between atoms: C_10  and  C_11
REMARK    6  A    between atoms: C_11  and  N_12
REMARK    7  A    between atoms: C_13  and  C_15
REMARK    8  A    between atoms: C_15  and  C_16
REMARK    9  A    between atoms: C_16  and  C_17
REMARK   10  A    between atoms: C_17  and  N_18
REMARK   11  A    between atoms: C_19  and  C_21
REMARK   12  A    between atoms: C_21  and  N_22
REMARK                            x       y       z     vdW  Elec       q    Type
REMARK                         _______ _______ _______ _____ _____    ______ ____
ROOT
ATOM      1  C   UNL     1       2.848  -7.409  -3.968  0.00  0.00    +0.104 C 
ENDROOT
BRANCH   1   2
ATOM      2  N   UNL     1       2.912  -7.042  -2.551  0.00  0.00    -0.314 N 
ATOM      3  C   UNL     1       2.147  -6.037  -2.080  0.00  0.00    +0.233 C 
ATOM      4  O   UNL     1       1.407  -5.436  -2.830  0.00  0.00    -0.274 OA
ATOM      5  H   UNL     1       3.584  -7.587  -1.872  0.00  0.00    +0.149 HD
BRANCH   3   6
ATOM      6  C   UNL     1       2.213  -5.659  -0.623  0.00  0.00    +0.221 C 
BRANCH   6   7
ATOM      7  N   UNL     1       1.295  -4.547  -0.365  0.00  0.00    -0.290 N 
ATOM      8  C   UNL     1       0.019  -4.832  -0.011  0.00  0.00    +0.203 A 
ATOM      9  N   UNL     1      -0.879  -3.905   0.240  0.00  0.00    -0.230 NA
ATOM     10  C   UNL     1      -0.494  -2.637   0.136  0.00  0.00    +0.116 A 
ATOM     11  C   UNL     1       0.812  -2.239  -0.226  0.00  0.00    +0.076 A 
ATOM     12  C   UNL     1       1.762  -3.282  -0.491  0.00  0.00    +0.263 A 
ATOM     13  O   UNL     1       2.914  -3.045  -0.810  0.00  0.00    -0.267 OA
ATOM     14  C   UNL     1       1.051  -0.808  -0.290  0.00  0.00    -0.023 A 
ATOM     15  C   UNL     1       0.002  -0.004   0.002  0.00  0.00    -0.004 A 
ATOM     16  S   UNL     1      -1.339  -1.106   0.372  0.00  0.00    -0.073 S 
ATOM     17  C   UNL     1      -0.018   1.493   0.010  0.00  0.00    +0.043 C 
ATOM     18  C   UNL     1       1.431   1.999  -0.001  0.00  0.00    +0.005 C 
ATOM     19  C   UNL     1       2.205   1.245  -1.085  0.00  0.00    +0.005 C 
ATOM     20  C   UNL     1       2.405  -0.211  -0.663  0.00  0.00    +0.037 C 
ENDBRANCH   6   7
ENDBRANCH   3   6
ENDBRANCH   1   2
BRANCH   1  21
ATOM     21  C   UNL     1       3.807  -8.571  -4.238  0.00  0.00    +0.028 C 
BRANCH  21  22
ATOM     22  C   UNL     1       3.740  -8.954  -5.718  0.00  0.00    +0.097 C 
BRANCH  22  24
ATOM     23  N   UNL     1       4.794 -10.606  -7.226  0.00  0.00    -0.315 N 
ATOM     24  C   UNL     1       4.684 -10.098  -5.983  0.00  0.00    +0.213 C 
ATOM     25  O   UNL     1       5.346 -10.561  -5.078  0.00  0.00    -0.276 OA
ATOM     26  H   UNL     1       4.195 -10.186  -8.047  0.00  0.00    +0.149 HD
BRANCH  23  27
ATOM     27  C   UNL     1       5.712 -11.718  -7.485  0.00  0.00    +0.105 C 
BRANCH  27  28
ATOM     28  C   UNL     1       5.646 -12.102  -8.964  0.00  0.00    +0.034 C 
BRANCH  28  29
ATOM     29  C   UNL     1       6.604 -13.263  -9.234  0.00  0.00    +0.086 C 
BRANCH  29  33
ATOM     30  N   UNL     1       6.240 -15.424 -12.845  0.00  0.00    +0.381 N 
ATOM     31  C   UNL     1       7.558 -14.872 -12.504  0.00  0.00    -0.063 C 
ATOM     32  C   UNL     1       7.611 -14.576 -11.003  0.00  0.00    +0.066 C 
ATOM     33  N   UNL     1       6.540 -13.631 -10.655  0.00  0.00    -0.306 NA
ATOM     34  C   UNL     1       5.222 -14.184 -10.997  0.00  0.00    +0.066 C 
ATOM     35  C   UNL     1       5.170 -14.479 -12.498  0.00  0.00    -0.063 C 
ATOM     36  H   UNL     1       6.091 -16.339 -12.253  0.00  0.00    -0.082 HD
BRANCH  30  38
ATOM     37  C   UNL     1       4.895 -16.586 -14.530  0.00  0.00    -0.017 C 
ATOM     38  C   UNL     1       6.176 -15.793 -14.266  0.00  0.00    -0.082 C 
ENDBRANCH  30  38
ENDBRANCH  29  33
ENDBRANCH  28  29
ENDBRANCH  27  28
ENDBRANCH  23  27
ENDBRANCH  22  24
ENDBRANCH  21  22
ENDBRANCH   1  21
TORSDOF 11
