REMARK  Name = ZINC35349220
REMARK  12 active torsions:
REMARK  status: ('A' for Active; 'I' for Inactive)
REMARK    1  A    between atoms: C_1  and  C_2
REMARK    2  A    between atoms: C_2  and  C_35
REMARK    3  A    between atoms: C_6  and  C_22
REMARK    4  A    between atoms: N_9  and  C_10
REMARK    5  A    between atoms: C_10  and  C_11
REMARK    6  A    between atoms: C_11  and  C_12
REMARK    7  A    between atoms: C_12  and  O_13
REMARK    8  A    between atoms: O_13  and  C_14
REMARK    9  A    between atoms: C_16  and  C_20
REMARK   10  A    between atoms: C_16  and  C_21
REMARK   11  A    between atoms: C_25  and  O_31
REMARK   12  A    between atoms: C_26  and  N_28
REMARK                            x       y       z     vdW  Elec       q    Type
REMARK                         _______ _______ _______ _____ _____    ______ ____
ROOT
ATOM      1  C   UNL     1      -0.022   1.537   0.002  0.00  0.00    +0.011 C 
ATOM      2  C   UNL     1      -0.006   0.007  -0.005  0.00  0.00    -0.023 C 
ATOM      3  C   UNL     1       0.733  -0.494  -1.248  0.00  0.00    +0.058 C 
ATOM      4  C   UNL     1       2.160  -0.009  -1.216  0.00  0.00    +0.019 C 
ATOM      5  C   UNL     1       2.805   0.183  -0.045  0.00  0.00    +0.024 C 
ATOM      6  C   UNL     1       4.234   0.659  -0.029  0.00  0.00    +0.089 C 
ATOM      7  C   UNL     1       4.604   1.313  -1.334  0.00  0.00    +0.024 C 
ATOM      8  C   UNL     1       3.881   1.075  -2.449  0.00  0.00    +0.019 C 
ATOM      9  N   UNL     1       2.797   0.241  -2.400  0.00  0.00    -0.306 N 
ATOM     10  C   UNL     1       4.248   1.712  -3.765  0.00  0.00    +0.058 C 
ATOM     11  C   UNL     1       4.898   3.075  -3.514  0.00  0.00    -0.023 C 
ATOM     12  C   UNL     1       6.132   2.869  -2.629  0.00  0.00    +0.086 C 
ATOM     13  C   UNL     1       5.714   2.175  -1.361  0.00  0.00    +0.162 C 
ATOM     14  O   UNL     1       6.348   2.364  -0.341  0.00  0.00    -0.292 OA
ATOM     15  C   UNL     1       5.319   3.697  -4.846  0.00  0.00    +0.011 C 
ATOM     16  C   UNL     1       3.904   3.995  -2.803  0.00  0.00    +0.011 C 
ATOM     17  C   UNL     1       2.161  -0.051   1.183  0.00  0.00    +0.162 C 
ATOM     18  O   UNL     1       2.774   0.117   2.219  0.00  0.00    -0.292 OA
ATOM     19  C   UNL     1       0.729  -0.506   1.238  0.00  0.00    +0.086 C 
ATOM     20  C   UNL     1      -1.442  -0.521  -0.007  0.00  0.00    +0.011 C 
ENDROOT
BRANCH   6  21
ATOM     21  C   UNL     1       5.144  -0.518   0.209  0.00  0.00    -0.033 A 
ATOM     22  C   UNL     1       5.153  -1.575  -0.682  0.00  0.00    +0.008 A 
ATOM     23  C   UNL     1       5.986  -2.656  -0.467  0.00  0.00    +0.048 A 
ATOM     24  C   UNL     1       6.815  -2.680   0.646  0.00  0.00    +0.147 A 
ATOM     25  C   UNL     1       6.804  -1.618   1.539  0.00  0.00    +0.168 A 
ATOM     26  C   UNL     1       5.972  -0.538   1.316  0.00  0.00    +0.041 A 
BRANCH  25  27
ATOM     27  N   UNL     1       7.686  -1.641   2.727  0.00  0.00    +0.060 N 
ATOM     28  O   UNL     1       7.677  -0.715   3.505  0.00  0.00    -0.126 OA
ATOM     29  O   UNL     1       8.417  -2.585   2.920  0.00  0.00    -0.126 OA
ENDBRANCH  25  27
BRANCH  24  30
ATOM     30  O   UNL     1       7.635  -3.742   0.861  0.00  0.00    -0.504 OA
ATOM     31  H   UNL     1       8.509  -3.651   0.458  0.00  0.00    +0.292 HD
ENDBRANCH  24  30
ENDBRANCH   6  21
BRANCH   9  32
ATOM     32  C   UNL     1       2.313  -0.390  -3.630  0.00  0.00    +0.112 C 
BRANCH  32  33
ATOM     33  C   UNL     1       3.111  -1.669  -3.895  0.00  0.00    +0.047 C 
BRANCH  33  34
ATOM     34  C   UNL     1       2.690  -2.262  -5.241  0.00  0.00    +0.161 C 
BRANCH  34  35
ATOM     35  O   UNL     1       3.435  -3.457  -5.488  0.00  0.00    -0.383 OA
ATOM     36  C   UNL     1       3.117  -4.094  -6.727  0.00  0.00    +0.193 C 
ENDBRANCH  34  35
ENDBRANCH  33  34
ENDBRANCH  32  33
ENDBRANCH   9  32
TORSDOF 7
