REMARK  Name = ZINC36207127
REMARK  14 active torsions:
REMARK  status: ('A' for Active; 'I' for Inactive)
REMARK    1  A    between atoms: C_1  and  O_2
REMARK    2  A    between atoms: O_2  and  C_3
REMARK    3  A    between atoms: C_8  and  C_9
REMARK    4  A    between atoms: C_18  and  C_20
REMARK    5  A    between atoms: C_20  and  N_21
REMARK    6  A    between atoms: N_21  and  C_22
REMARK    7  A    between atoms: N_21  and  C_29
REMARK    8  A    between atoms: C_22  and  C_23
REMARK    9  A    between atoms: C_29  and  C_30
REMARK   10  A    between atoms: C_30  and  C_32
REMARK   11  A    between atoms: C_30  and  O_37
REMARK   12  A    between atoms: C_32  and  O_33
REMARK   13  A    between atoms: O_33  and  C_34
REMARK   14  A    between atoms: C_34  and  C_35
REMARK                            x       y       z     vdW  Elec       q    Type
REMARK                         _______ _______ _______ _____ _____    ______ ____
ROOT
ATOM      1  C   UNL     1      -6.717   1.946   3.639  0.00  0.00    +0.007 A 
ATOM      2  C   UNL     1      -6.909   1.893   4.979  0.00  0.00    +0.056 A 
ATOM      3  S   UNL     1      -6.609   0.179   5.370  0.00  0.00    -0.076 S 
ATOM      4  C   UNL     1      -6.238  -0.419   3.742  0.00  0.00    +0.116 A 
ATOM      5  C   UNL     1      -6.361   0.723   2.932  0.00  0.00    +0.080 A 
ATOM      6  C   UNL     1      -6.114   0.522   1.537  0.00  0.00    +0.260 A 
ATOM      7  O   UNL     1      -6.191   1.453   0.754  0.00  0.00    -0.267 OA
ATOM      8  N   UNL     1      -5.795  -0.711   1.101  0.00  0.00    -0.312 N 
ATOM      9  H   UNL     1      -5.626  -0.853   0.157  0.00  0.00    +0.170 HD
ATOM     10  C   UNL     1      -5.703  -1.760   1.958  0.00  0.00    +0.094 A 
ATOM     11  N   UNL     1      -5.912  -1.606   3.239  0.00  0.00    -0.229 NA
ENDROOT
BRANCH   1  17
ATOM     12  C   UNL     1      -7.897   3.373   1.963  0.00  0.00    +0.128 A 
ATOM     13  C   UNL     1      -8.039   4.572   1.286  0.00  0.00    +0.046 A 
ATOM     14  C   UNL     1      -7.169   5.617   1.536  0.00  0.00    +0.004 A 
ATOM     15  C   UNL     1      -6.153   5.472   2.464  0.00  0.00    +0.001 A 
ATOM     16  C   UNL     1      -5.999   4.282   3.146  0.00  0.00    +0.012 A 
ATOM     17  C   UNL     1      -6.874   3.225   2.905  0.00  0.00    +0.025 A 
BRANCH  12  19
ATOM     18  C   UNL     1      -9.773   2.570   0.743  0.00  0.00    +0.277 C 
ATOM     19  O   UNL     1      -8.752   2.345   1.718  0.00  0.00    -0.495 OA
ENDBRANCH  12  19
ENDBRANCH   1  17
BRANCH  10  20
ATOM     20  C   UNL     1      -5.342  -3.123   1.425  0.00  0.00    -0.003 C 
BRANCH  20  21
ATOM     21  N   UNL     1      -5.443  -4.113   2.506  0.00  0.00    +0.389 N 
ATOM     22  H   UNL     1      -4.895  -3.807   3.295  0.00  0.00    -0.081 HD
BRANCH  21  23
ATOM     23  C   UNL     1      -4.937  -5.408   2.031  0.00  0.00    -0.042 C 
BRANCH  23  24
ATOM     24  C   UNL     1      -3.462  -5.296   1.742  0.00  0.00    -0.064 A 
ATOM     25  C   UNL     1      -3.027  -5.063   0.450  0.00  0.00    +0.002 A 
ATOM     26  C   UNL     1      -1.674  -4.960   0.185  0.00  0.00    +0.000 A 
ATOM     27  C   UNL     1      -0.757  -5.088   1.211  0.00  0.00    +0.000 A 
ATOM     28  C   UNL     1      -1.192  -5.320   2.502  0.00  0.00    +0.000 A 
ATOM     29  C   UNL     1      -2.545  -5.419   2.768  0.00  0.00    +0.002 A 
ENDBRANCH  23  24
ENDBRANCH  21  23
BRANCH  21  30
ATOM     30  C   UNL     1      -6.848  -4.255   2.910  0.00  0.00    -0.044 C 
BRANCH  30  31
ATOM     31  C   UNL     1      -6.939  -5.192   4.117  0.00  0.00    +0.124 C 
BRANCH  31  32
ATOM     32  O   UNL     1      -6.282  -4.593   5.235  0.00  0.00    -0.391 OA
ATOM     33  H   UNL     1      -6.658  -3.744   5.504  0.00  0.00    +0.210 HD
ENDBRANCH  31  32
BRANCH  31  34
ATOM     34  C   UNL     1      -8.409  -5.439   4.461  0.00  0.00    +0.189 C 
BRANCH  34  35
ATOM     35  O   UNL     1      -8.496  -6.404   5.512  0.00  0.00    -0.373 OA
BRANCH  35  36
ATOM     36  C   UNL     1      -9.834  -6.708   5.911  0.00  0.00    +0.186 C 
BRANCH  36  37
ATOM     37  C   UNL     1      -9.808  -7.730   7.018  0.00  0.00    -0.007 C 
ATOM     38  C   UNL     1     -10.569  -7.574   8.072  0.00  0.00    +0.006 C 
ENDBRANCH  36  37
ENDBRANCH  35  36
ENDBRANCH  34  35
ENDBRANCH  31  34
ENDBRANCH  30  31
ENDBRANCH  21  30
ENDBRANCH  20  21
ENDBRANCH  10  20
TORSDOF 13
