REMARK  Name = ZINC13111365
REMARK  10 active torsions:
REMARK  status: ('A' for Active; 'I' for Inactive)
REMARK    1  A    between atoms: C_1  and  C_2
REMARK    2  A    between atoms: C_2  and  C_3
REMARK    3  A    between atoms: C_3  and  N_4
REMARK    4  A    between atoms: C_8  and  S_27
REMARK    5  A    between atoms: C_12  and  S_13
REMARK    6  A    between atoms: S_13  and  C_14
REMARK    7  A    between atoms: C_14  and  C_15
REMARK    8  A    between atoms: C_19  and  C_26
REMARK    9  A    between atoms: C_22  and  C_25
REMARK   10  A    between atoms: S_27  and  N_30
REMARK                            x       y       z     vdW  Elec       q    Type
REMARK                         _______ _______ _______ _____ _____    ______ ____
ROOT
ATOM      1  N   UNL     1       2.096   0.639  -0.015  0.00  0.00    -0.319 N 
ATOM      2  C   UNL     1       1.320   1.787  -0.001  0.00  0.00    +0.070 A 
ATOM      3  C   UNL     1       1.609   3.143   0.004  0.00  0.00    +0.030 A 
ATOM      4  C   UNL     1       0.582   4.064   0.018  0.00  0.00    +0.030 A 
ATOM      5  C   UNL     1      -0.739   3.643   0.029  0.00  0.00    +0.107 A 
ATOM      6  C   UNL     1      -1.045   2.300   0.029  0.00  0.00    +0.058 A 
ATOM      7  C   UNL     1      -0.016   1.355   0.009  0.00  0.00    +0.092 A 
ATOM      8  N   UNL     1       0.002  -0.004   0.002  0.00  0.00    -0.222 NA
ATOM      9  C   UNL     1       1.242  -0.427  -0.012  0.00  0.00    +0.170 A 
ENDROOT
BRANCH   5  10
ATOM     10  S   UNL     1      -2.037   4.835   0.048  0.00  0.00    +0.056 S 
ATOM     11  O   UNL     1      -3.173   4.189   0.606  0.00  0.00    -0.153 OA
ATOM     12  O   UNL     1      -1.488   6.024   0.600  0.00  0.00    -0.153 OA
BRANCH  10  13
ATOM     13  N   UNL     1      -2.412   5.175  -1.529  0.00  0.00    -0.204 NA
ATOM     14  H   UNL     1      -1.934   4.732  -2.248  0.00  0.00    +0.144 HD
ATOM     15  H   UNL     1      -3.111   5.816  -1.734  0.00  0.00    +0.144 HD
ENDBRANCH  10  13
ENDBRANCH   5  10
BRANCH   1  16
ATOM     16  C   UNL     1       3.560   0.581  -0.029  0.00  0.00    +0.124 C 
BRANCH  16  18
ATOM     17  C   UNL     1       5.585   0.507  -1.491  0.00  0.00    +0.005 C 
ATOM     18  C   UNL     1       4.056   0.568  -1.476  0.00  0.00    +0.018 C 
ENDBRANCH  16  18
ENDBRANCH   1  16
BRANCH   9  19
ATOM     19  S   UNL     1       1.735  -2.119  -0.026  0.00  0.00    -0.078 S 
BRANCH  19  20
ATOM     20  C   UNL     1       0.111  -2.919  -0.015  0.00  0.00    +0.173 C 
BRANCH  20  21
ATOM     21  C   UNL     1       0.289  -4.416  -0.025  0.00  0.00    +0.226 C 
ATOM     22  O   UNL     1       1.403  -4.894  -0.038  0.00  0.00    -0.275 OA
ATOM     23  N   UNL     1      -0.791  -5.222  -0.020  0.00  0.00    -0.300 N 
ATOM     24  C   UNL     1      -0.634  -6.683  -0.029  0.00  0.00    +0.111 C 
ATOM     25  C   UNL     1      -1.448  -7.259  -1.192  0.00  0.00    +0.004 C 
ATOM     26  C   UNL     1      -2.898  -6.783  -1.079  0.00  0.00    +0.009 C 
ATOM     27  C   UNL     1      -2.944  -5.256  -1.167  0.00  0.00    +0.004 C 
ATOM     28  C   UNL     1      -2.147  -4.658   0.002  0.00  0.00    +0.111 C 
ATOM     29  C   UNL     1      -4.397  -4.784  -1.087  0.00  0.00    +0.009 C 
ATOM     30  C   UNL     1      -1.405  -8.787  -1.138  0.00  0.00    +0.009 C 
ENDBRANCH  20  21
ENDBRANCH  19  20
ENDBRANCH   9  19
TORSDOF 7
