REMARK  Name = ZINC63273811
REMARK  11 active torsions:
REMARK  status: ('A' for Active; 'I' for Inactive)
REMARK    1  A    between atoms: C_1  and  C_2
REMARK    2  A    between atoms: C_5  and  N_8
REMARK    3  A    between atoms: C_12  and  C_15
REMARK    4  A    between atoms: N_17  and  C_18
REMARK    5  A    between atoms: C_18  and  C_20
REMARK    6  A    between atoms: C_18  and  C_30
REMARK    7  A    between atoms: C_20  and  C_21
REMARK    8  A    between atoms: C_30  and  O_32
REMARK    9  A    between atoms: O_32  and  C_33
REMARK   10  A    between atoms: C_37  and  C_39
REMARK   11  A    between atoms: C_37  and  C_40
REMARK                            x       y       z     vdW  Elec       q    Type
REMARK                         _______ _______ _______ _____ _____    ______ ____
ROOT
ATOM      1  N   UNL     1       0.325  -4.192  -0.029  0.00  0.00    -0.280 N 
ATOM      2  C   UNL     1       0.201  -4.835   1.151  0.00  0.00    +0.038 A 
ATOM      3  C   UNL     1      -0.037  -6.198   1.186  0.00  0.00    +0.038 A 
ATOM      4  C   UNL     1      -0.142  -6.942  -0.009  0.00  0.00    +0.031 A 
ATOM      5  C   UNL     1      -0.010  -6.282  -1.223  0.00  0.00    +0.102 A 
ATOM      6  C   UNL     1       0.227  -4.837  -1.204  0.00  0.00    +0.268 A 
ATOM      7  O   UNL     1       0.338  -4.222  -2.249  0.00  0.00    -0.266 OA
ATOM      8  C   UNL     1      -0.193  -6.894   2.475  0.00  0.00    +0.165 C 
ATOM      9  O   UNL     1      -0.605  -8.034   2.526  0.00  0.00    -0.292 OA
ATOM     10  C   UNL     1       0.179  -6.141   3.735  0.00  0.00    +0.086 C 
ATOM     11  C   UNL     1      -0.363  -4.713   3.588  0.00  0.00    -0.023 C 
ATOM     12  C   UNL     1       0.334  -4.028   2.417  0.00  0.00    +0.061 C 
ATOM     13  C   UNL     1      -1.870  -4.763   3.327  0.00  0.00    +0.011 C 
ATOM     14  C   UNL     1      -0.092  -3.929   4.874  0.00  0.00    +0.011 C 
ENDROOT
BRANCH   1  19
ATOM     15  C   UNL     1       1.269   1.403  -0.032  0.00  0.00    +0.044 C 
ATOM     16  C   UNL     1       1.018  -0.083  -0.031  0.00  0.00    -0.050 A 
ATOM     17  C   UNL     1      -0.258  -0.567  -0.252  0.00  0.00    +0.005 A 
ATOM     18  C   UNL     1      -0.491  -1.928  -0.253  0.00  0.00    +0.026 A 
ATOM     19  C   UNL     1       0.558  -2.811  -0.030  0.00  0.00    +0.050 A 
ATOM     20  C   UNL     1       1.839  -2.321   0.192  0.00  0.00    +0.026 A 
ATOM     21  C   UNL     1       2.066  -0.959   0.186  0.00  0.00    +0.005 A 
ENDBRANCH   1  19
BRANCH   5  22
ATOM     22  C   UNL     1      -0.111  -7.014  -2.496  0.00  0.00    +0.250 C 
ATOM     23  O   UNL     1      -0.189  -8.228  -2.495  0.00  0.00    -0.270 OA
ATOM     24  N   UNL     1      -0.117  -6.340  -3.663  0.00  0.00    -0.298 N 
ATOM     25  H   UNL     1       0.014  -5.379  -3.668  0.00  0.00    +0.150 HD
BRANCH  24  26
ATOM     26  C   UNL     1      -0.323  -7.058  -4.923  0.00  0.00    +0.186 C 
BRANCH  26  27
ATOM     27  C   UNL     1       0.994  -7.603  -5.411  0.00  0.00    +0.328 C 
ATOM     28  O   UNL     1       2.002  -7.411  -4.772  0.00  0.00    -0.249 OA
BRANCH  27  29
ATOM     29  O   UNL     1       1.049  -8.302  -6.556  0.00  0.00    -0.467 OA
ATOM     30  C   UNL     1       2.331  -8.788  -6.959  0.00  0.00    +0.280 C 
ENDBRANCH  27  29
ENDBRANCH  26  27
BRANCH  26  31
ATOM     31  C   UNL     1      -0.898  -6.100  -5.968  0.00  0.00    +0.067 C 
BRANCH  31  32
ATOM     32  C   UNL     1      -2.270  -5.651  -5.537  0.00  0.00    -0.039 C 
ATOM     33  C   UNL     1      -2.581  -4.519  -4.864  0.00  0.00    -0.001 A 
ATOM     34  C   UNL     1      -1.766  -3.412  -4.350  0.00  0.00    +0.010 A 
ATOM     35  C   UNL     1      -2.376  -2.395  -3.700  0.00  0.00    +0.001 A 
ATOM     36  C   UNL     1      -3.764  -2.372  -3.505  0.00  0.00    +0.002 A 
ATOM     37  C   UNL     1      -4.579  -3.352  -3.948  0.00  0.00    +0.026 A 
ATOM     38  C   UNL     1      -4.044  -4.471  -4.645  0.00  0.00    +0.043 A 
ATOM     39  N   UNL     1      -4.616  -5.531  -5.164  0.00  0.00    -0.380 N 
ATOM     40  C   UNL     1      -3.579  -6.370  -5.775  0.00  0.00    +0.144 C 
ATOM     41  H   UNL     1      -5.566  -5.726  -5.149  0.00  0.00    +0.160 HD
ENDBRANCH  31  32
ENDBRANCH  26  31
ENDBRANCH  24  26
ENDBRANCH   5  22
TORSDOF 7
