REMARK  Name = ZINC65138169
REMARK  5 active torsions:
REMARK  status: ('A' for Active; 'I' for Inactive)
REMARK    1  A    between atoms: C_1  and  C_2
REMARK    2  A    between atoms: C_5  and  C_7
REMARK    3  A    between atoms: C_9  and  N_13
REMARK    4  A    between atoms: C_10  and  C_12
REMARK    5  A    between atoms: C_14  and  C_16
REMARK                            x       y       z     vdW  Elec       q    Type
REMARK                         _______ _______ _______ _____ _____    ______ ____
ROOT
ATOM      1  N   UNL     1       0.117  -6.342   3.587  0.00  0.00    -0.283 N 
ATOM      2  C   UNL     1       0.026  -7.064   2.452  0.00  0.00    +0.248 C 
ATOM      3  O   UNL     1       0.015  -6.503   1.377  0.00  0.00    -0.273 OA
ATOM      4  H   UNL     1       0.187  -6.792   4.443  0.00  0.00    +0.155 HD
ENDROOT
BRANCH   2   5
ATOM      5  C   UNL     1      -0.061  -8.567   2.520  0.00  0.00    +0.241 C 
ATOM      6  C   UNL     1       1.310  -9.175   2.667  0.00  0.00    -0.012 C 
ATOM      7  C   UNL     1       1.471  -9.929   1.574  0.00  0.00    +0.065 C 
ATOM      8  C   UNL     1       2.724 -10.733   1.305  0.00  0.00    +0.057 C 
ATOM      9  C   UNL     1       3.846 -10.200   2.203  0.00  0.00    +0.006 C 
ATOM     10  C   UNL     1       3.356 -10.125   3.652  0.00  0.00    +0.005 C 
ATOM     11  C   UNL     1       2.310  -9.007   3.772  0.00  0.00    +0.035 C 
ATOM     12  N   UNL     1       0.371  -9.850   0.792  0.00  0.00    -0.158 NA
ATOM     13  N   UNL     1      -0.529  -9.122   1.235  0.00  0.00    -0.170 NA
ENDBRANCH   2   5
BRANCH   1  16
ATOM     14  C   UNL     1       0.659  -2.904   2.449  0.00  0.00    +0.046 A 
ATOM     15  C   UNL     1       0.689  -4.276   2.466  0.00  0.00    +0.041 A 
ATOM     16  C   UNL     1       0.108  -4.936   3.530  0.00  0.00    +0.044 A 
ATOM     17  C   UNL     1      -0.473  -4.207   4.523  0.00  0.00    +0.009 A 
ATOM     18  S   UNL     1      -0.201  -2.532   3.969  0.00  0.00    -0.090 S 
ATOM     19  C   UNL     1      -1.165  -4.690   5.772  0.00  0.00    +0.053 C 
BRANCH  14  24
ATOM     20  C   UNL     1       1.683   1.527   0.428  0.00  0.00    +0.066 C 
ATOM     21  C   UNL     1       1.720   0.020   0.427  0.00  0.00    +0.046 A 
ATOM     22  C   UNL     1       2.311  -0.645  -0.600  0.00  0.00    +0.070 A 
ATOM     23  S   UNL     1       2.063  -2.339  -0.083  0.00  0.00    -0.075 S 
ATOM     24  C   UNL     1       1.201  -1.979   1.441  0.00  0.00    +0.115 A 
ATOM     25  N   UNL     1       1.186  -0.651   1.421  0.00  0.00    -0.244 NA
ENDBRANCH  14  24
ENDBRANCH   1  16
TORSDOF 3
