REMARK  Name = ZINC66207846
REMARK  6 active torsions:
REMARK  status: ('A' for Active; 'I' for Inactive)
REMARK    1  A    between atoms: C_1  and  S_2
REMARK    2  A    between atoms: S_2  and  C_3
REMARK    3  A    between atoms: C_6  and  N_9
REMARK    4  A    between atoms: C_10  and  C_12
REMARK    5  A    between atoms: N_14  and  C_15
REMARK    6  A    between atoms: C_20  and  C_23
REMARK                            x       y       z     vdW  Elec       q    Type
REMARK                         _______ _______ _______ _____ _____    ______ ____
ROOT
ATOM      1  C   UNL     1       3.803  -0.550  -7.143  0.00  0.00    +0.300 C 
ATOM      2  O   UNL     1       4.001  -1.698  -7.481  0.00  0.00    -0.265 OA
ATOM      3  N   UNL     1       4.145   0.464  -7.963  0.00  0.00    -0.305 N 
ATOM      4  H   UNL     1       3.986   1.381  -7.692  0.00  0.00    +0.149 HD
ENDROOT
BRANCH   3   5
ATOM      5  C   UNL     1       4.756   0.179  -9.263  0.00  0.00    +0.074 C 
ATOM      6  C   UNL     1       3.658  -0.091 -10.295  0.00  0.00    +0.022 C 
ATOM      7  C   UNL     1       4.296  -0.388 -11.653  0.00  0.00    +0.002 C 
ATOM      8  C   UNL     1       5.130   0.815 -12.099  0.00  0.00    +0.012 C 
ATOM      9  C   UNL     1       6.228   1.084 -11.068  0.00  0.00    +0.095 C 
ATOM     10  C   UNL     1       5.590   1.382  -9.709  0.00  0.00    +0.034 C 
BRANCH   9  11
ATOM     11  C   UNL     1       7.062   2.287 -11.514  0.00  0.00    +0.393 C 
ATOM     12  F   UNL     1       6.237   3.412 -11.622  0.00  0.00    -0.170 F 
ATOM     13  F   UNL     1       8.066   2.534 -10.571  0.00  0.00    -0.170 F 
ATOM     14  F   UNL     1       7.646   2.015 -12.756  0.00  0.00    -0.170 F 
ENDBRANCH   9  11
ENDBRANCH   3   5
BRANCH   1  16
ATOM     15  N   UNL     1       2.838  -1.273  -4.997  0.00  0.00    -0.276 N 
ATOM     16  C   UNL     1       3.180  -0.260  -5.817  0.00  0.00    +0.303 C 
ATOM     17  O   UNL     1       2.982   0.889  -5.478  0.00  0.00    -0.265 OA
ATOM     18  H   UNL     1       3.066  -2.186  -5.233  0.00  0.00    +0.155 HD
BRANCH  15  22
ATOM     19  C   UNL     1       0.863  -0.556  -1.448  0.00  0.00    +0.097 A 
ATOM     20  C   UNL     1       0.601   0.279  -2.531  0.00  0.00    +0.036 A 
ATOM     21  C   UNL     1       1.254   0.054  -3.728  0.00  0.00    +0.027 A 
ATOM     22  C   UNL     1       2.155  -1.008  -3.804  0.00  0.00    +0.052 A 
ATOM     23  C   UNL     1       2.366  -1.799  -2.684  0.00  0.00    +0.135 A 
ATOM     24  N   UNL     1       1.729  -1.552  -1.556  0.00  0.00    -0.247 NA
BRANCH  19  26
ATOM     25  C   UNL     1       0.688  -1.578   1.172  0.00  0.00    +0.091 C 
ATOM     26  S   UNL     1       0.038  -0.280   0.084  0.00  0.00    -0.109 S 
ENDBRANCH  19  26
ENDBRANCH  15  22
ENDBRANCH   1  16
TORSDOF 5
