REMARK  Name = ZINC38573901
REMARK  13 active torsions:
REMARK  status: ('A' for Active; 'I' for Inactive)
REMARK    1  A    between atoms: C_1  and  O_2
REMARK    2  A    between atoms: O_2  and  C_3
REMARK    3  A    between atoms: C_5  and  C_13
REMARK    4  A    between atoms: C_7  and  O_11
REMARK    5  A    between atoms: C_8  and  O_9
REMARK    6  A    between atoms: O_9  and  C_10
REMARK    7  A    between atoms: O_11  and  C_12
REMARK    8  A    between atoms: N_15  and  C_16
REMARK    9  A    between atoms: C_16  and  C_18
REMARK   10  A    between atoms: C_16  and  C_22
REMARK   11  A    between atoms: C_18  and  C_19
REMARK   12  A    between atoms: C_19  and  S_20
REMARK   13  A    between atoms: S_20  and  C_21
REMARK                            x       y       z     vdW  Elec       q    Type
REMARK                         _______ _______ _______ _____ _____    ______ ____
ROOT
ATOM      1  C   UNL     1      -7.287   0.382   0.056  0.00  0.00    +0.160 C 
ENDROOT
BRANCH   1   2
ATOM      2  C   UNL     1      -8.350  -0.530   0.612  0.00  0.00    +0.236 C 
ATOM      3  O   UNL     1      -8.134  -1.718   0.721  0.00  0.00    -0.274 OA
ATOM      4  N   UNL     1      -9.542  -0.025   0.989  0.00  0.00    -0.300 N 
ATOM      5  C   UNL     1      -9.862   1.390   0.757  0.00  0.00    +0.106 C 
ATOM      6  C   UNL     1     -11.186   1.477  -0.009  0.00  0.00    +0.009 C 
ATOM      7  C   UNL     1     -12.263   0.704   0.752  0.00  0.00    -0.037 C 
ATOM      8  C   UNL     1     -11.863  -0.768   0.865  0.00  0.00    +0.009 C 
ATOM      9  C   UNL     1     -10.548  -0.880   1.633  0.00  0.00    +0.106 C 
ATOM     10  C   UNL     1     -13.598   0.821   0.015  0.00  0.00    +0.140 C 
ATOM     11  C   UNL     1     -13.973   2.299   0.073  0.00  0.00    +0.042 C 
ATOM     12  N   UNL     1     -14.138   2.670  -1.136  0.00  0.00    -0.243 NA
ATOM     13  C   UNL     1     -13.837   1.678  -2.010  0.00  0.00    +0.216 C 
ATOM     14  N   UNL     1     -13.484   0.555  -1.420  0.00  0.00    -0.264 NA
ATOM     15  C   UNL     1     -13.972   3.058   1.375  0.00  0.00    +0.034 C 
ATOM     16  C   UNL     1     -12.632   2.726   2.059  0.00  0.00    -0.076 C 
ATOM     17  N   UNL     1     -12.424   1.276   2.097  0.00  0.00    +0.385 N 
ATOM     18  H   UNL     1     -13.218   0.843   2.544  0.00  0.00    -0.085 HD
ATOM     19  H   UNL     1     -11.596   1.078   2.639  0.00  0.00    -0.085 HD
ENDBRANCH   1   2
BRANCH   1  22
ATOM     20  C   UNL     1      -4.882   0.601   0.378  0.00  0.00    +0.245 C 
ATOM     21  O   UNL     1      -5.001   1.802   0.230  0.00  0.00    -0.270 OA
ATOM     22  N   UNL     1      -5.966  -0.198   0.309  0.00  0.00    -0.300 N 
ATOM     23  H   UNL     1      -5.871  -1.156   0.428  0.00  0.00    +0.150 HD
BRANCH  20  26
ATOM     24  C   UNL     1      -1.181   0.295   0.945  0.00  0.00    +0.166 A 
ATOM     25  C   UNL     1      -2.426   0.844   0.705  0.00  0.00    +0.062 A 
ATOM     26  C   UNL     1      -3.550   0.017   0.634  0.00  0.00    +0.044 A 
ATOM     27  C   UNL     1      -3.412  -1.362   0.805  0.00  0.00    +0.062 A 
ATOM     28  C   UNL     1      -2.164  -1.906   1.044  0.00  0.00    +0.166 A 
ATOM     29  C   UNL     1      -1.045  -1.081   1.110  0.00  0.00    +0.204 A 
BRANCH  24  31
ATOM     30  C   UNL     1      -0.298   2.501   0.836  0.00  0.00    +0.277 C 
ATOM     31  O   UNL     1      -0.086   1.099   1.015  0.00  0.00    -0.491 OA
ENDBRANCH  24  31
BRANCH  29  32
ATOM     32  O   UNL     1       0.182  -1.619   1.341  0.00  0.00    -0.488 OA
ATOM     33  C   UNL     1       0.590  -1.743   2.705  0.00  0.00    +0.277 C 
ENDBRANCH  29  32
BRANCH  28  34
ATOM     34  O   UNL     1      -2.029  -3.249   1.212  0.00  0.00    -0.491 OA
ATOM     35  C   UNL     1      -3.219  -4.037   1.127  0.00  0.00    +0.277 C 
ENDBRANCH  28  34
ENDBRANCH  20  26
ENDBRANCH   1  22
BRANCH   1  36
ATOM     36  C   UNL     1      -7.492   0.543  -1.452  0.00  0.00    +0.042 C 
BRANCH  36  37
ATOM     37  C   UNL     1      -6.504   1.579  -1.993  0.00  0.00    +0.071 C 
BRANCH  37  38
ATOM     38  S   UNL     1      -6.747   1.770  -3.780  0.00  0.00    -0.164 S 
ATOM     39  C   UNL     1      -5.517   3.014  -4.259  0.00  0.00    +0.084 C 
ENDBRANCH  37  38
ENDBRANCH  36  37
ENDBRANCH   1  36
TORSDOF 9
