REMARK  Name = ZINC60367745
REMARK  7 active torsions:
REMARK  status: ('A' for Active; 'I' for Inactive)
REMARK    1  A    between atoms: C_1  and  C_2
REMARK    2  A    between atoms: C_2  and  C_3
REMARK    3  A    between atoms: C_2  and  C_4
REMARK    4  A    between atoms: C_7  and  S_10
REMARK    5  A    between atoms: S_10  and  C_11
REMARK    6  A    between atoms: C_14  and  N_17
REMARK    7  A    between atoms: C_18  and  C_20
REMARK                            x       y       z     vdW  Elec       q    Type
REMARK                         _______ _______ _______ _____ _____    ______ ____
ROOT
ATOM      1  N   UNL     1      -5.893  -5.678  -4.676  0.00  0.00    -0.282 N 
ATOM      2  C   UNL     1      -7.007  -5.724  -5.433  0.00  0.00    +0.248 C 
ATOM      3  O   UNL     1      -7.996  -5.102  -5.097  0.00  0.00    -0.270 OA
ATOM      4  H   UNL     1      -5.127  -6.226  -4.907  0.00  0.00    +0.155 HD
ENDROOT
BRANCH   2   5
ATOM      5  C   UNL     1      -7.027  -6.531  -6.669  0.00  0.00    +0.039 A 
ATOM      6  C   UNL     1      -5.891  -7.252  -7.052  0.00  0.00    +0.015 A 
ATOM      7  C   UNL     1      -5.908  -8.004  -8.204  0.00  0.00    +0.028 A 
ATOM      8  C   UNL     1      -7.055  -8.053  -8.993  0.00  0.00    +0.066 A 
ATOM      9  C   UNL     1      -8.194  -7.335  -8.616  0.00  0.00    +0.066 A 
ATOM     10  C   UNL     1      -8.180  -6.580  -7.452  0.00  0.00    +0.040 A 
ATOM     11  N   UNL     1      -9.347  -7.374  -9.396  0.00  0.00    -0.316 N 
ATOM     12  H   UNL     1     -10.132  -6.872  -9.126  0.00  0.00    +0.169 HD
ATOM     13  C   UNL     1      -9.373  -8.108 -10.526  0.00  0.00    +0.314 A 
ATOM     14  O   UNL     1     -10.376  -8.146 -11.211  0.00  0.00    -0.262 OA
ATOM     15  C   UNL     1      -8.158  -8.874 -10.927  0.00  0.00    +0.314 A 
ATOM     16  O   UNL     1      -8.160  -9.541 -11.942  0.00  0.00    -0.262 OA
ATOM     17  N   UNL     1      -7.055  -8.817 -10.153  0.00  0.00    -0.316 N 
ATOM     18  H   UNL     1      -6.260  -9.312 -10.406  0.00  0.00    +0.169 HD
ENDBRANCH   2   5
BRANCH   1  22
ATOM     19  C   UNL     1      -5.738  -3.175  -1.344  0.00  0.00    +0.013 A 
ATOM     20  C   UNL     1      -4.598  -3.383  -2.111  0.00  0.00    +0.017 A 
ATOM     21  C   UNL     1      -4.650  -4.211  -3.213  0.00  0.00    +0.024 A 
ATOM     22  C   UNL     1      -5.841  -4.837  -3.557  0.00  0.00    +0.034 A 
ATOM     23  C   UNL     1      -6.981  -4.630  -2.791  0.00  0.00    +0.024 A 
ATOM     24  C   UNL     1      -6.928  -3.807  -1.684  0.00  0.00    +0.017 A 
BRANCH  19  25
ATOM     25  S   UNL     1      -5.673  -2.118   0.064  0.00  0.00    -0.089 S 
BRANCH  25  29
ATOM     26  C   UNL     1      -9.772  -2.541   1.944  0.00  0.00    -0.045 A 
ATOM     27  C   UNL     1      -8.777  -3.452   2.247  0.00  0.00    +0.005 A 
ATOM     28  C   UNL     1      -7.526  -3.326   1.675  0.00  0.00    +0.015 A 
ATOM     29  C   UNL     1      -7.268  -2.282   0.795  0.00  0.00    +0.013 A 
ATOM     30  C   UNL     1      -8.271  -1.369   0.493  0.00  0.00    +0.015 A 
ATOM     31  C   UNL     1      -9.520  -1.504   1.064  0.00  0.00    +0.005 A 
BRANCH  26  33
ATOM     32  C   UNL     1     -11.736  -4.035   2.184  0.00  0.00    +0.012 C 
ATOM     33  C   UNL     1     -11.136  -2.682   2.569  0.00  0.00    +0.013 C 
ATOM     34  C   UNL     1     -11.011  -2.594   4.092  0.00  0.00    +0.012 C 
ENDBRANCH  26  33
ENDBRANCH  25  29
ENDBRANCH  19  25
ENDBRANCH   1  22
TORSDOF 5
