REMARK  Name = ZINC66573401
REMARK  10 active torsions:
REMARK  status: ('A' for Active; 'I' for Inactive)
REMARK    1  A    between atoms: C_1  and  C_2
REMARK    2  A    between atoms: C_5  and  C_26
REMARK    3  A    between atoms: C_6  and  N_8
REMARK    4  A    between atoms: C_13  and  C_15
REMARK    5  A    between atoms: N_17  and  N_18
REMARK    6  A    between atoms: C_19  and  C_21
REMARK    7  A    between atoms: C_21  and  C_22
REMARK    8  A    between atoms: C_22  and  C_23
REMARK    9  A    between atoms: C_23  and  C_24
REMARK   10  A    between atoms: C_23  and  C_25
REMARK                            x       y       z     vdW  Elec       q    Type
REMARK                         _______ _______ _______ _____ _____    ______ ____
ROOT
ATOM      1  N   UNL     1       0.052  -2.798   2.393  0.00  0.00    -0.160 N 
ATOM      2  C   UNL     1       1.007  -2.542   3.308  0.00  0.00    +0.240 C 
ATOM      3  O   UNL     1       1.854  -1.703   3.085  0.00  0.00    -0.273 OA
ATOM      4  C   UNL     1       1.019  -3.301   4.610  0.00  0.00    +0.104 C 
ATOM      5  C   UNL     1      -0.420  -3.613   5.025  0.00  0.00    +0.072 C 
ATOM      6  C   UNL     1      -1.174  -4.174   3.849  0.00  0.00    +0.123 C 
ATOM      7  N   UNL     1      -0.928  -3.764   2.645  0.00  0.00    -0.172 NA
ENDROOT
BRANCH   1  13
ATOM      8  C   UNL     1      -0.018   1.503   0.010  0.00  0.00    +0.044 C 
ATOM      9  C   UNL     1       0.002  -0.004   0.002  0.00  0.00    -0.049 A 
ATOM     10  C   UNL     1       0.006  -0.688  -1.200  0.00  0.00    +0.004 A 
ATOM     11  C   UNL     1       0.025  -2.071  -1.212  0.00  0.00    +0.005 A 
ATOM     12  C   UNL     1       0.040  -2.773  -0.023  0.00  0.00    -0.027 A 
ATOM     13  C   UNL     1       0.036  -2.089   1.186  0.00  0.00    +0.063 A 
ATOM     14  C   UNL     1       0.023  -0.700   1.194  0.00  0.00    +0.029 A 
ATOM     15  C   UNL     1       0.060  -4.280  -0.036  0.00  0.00    +0.046 C 
ENDBRANCH   1  13
BRANCH   6  16
ATOM     16  C   UNL     1      -2.205  -5.195   4.070  0.00  0.00    +0.276 C 
ATOM     17  O   UNL     1      -2.445  -5.582   5.198  0.00  0.00    -0.267 OA
ATOM     18  N   UNL     1      -2.885  -5.704   3.024  0.00  0.00    -0.229 N 
ATOM     19  H   UNL     1      -2.693  -5.395   2.124  0.00  0.00    +0.173 HD
BRANCH  18  20
ATOM     20  N   UNL     1      -3.869  -6.678   3.235  0.00  0.00    -0.234 N 
ATOM     21  C   UNL     1      -4.550  -7.187   2.189  0.00  0.00    +0.229 C 
ATOM     22  O   UNL     1      -4.310  -6.801   1.064  0.00  0.00    -0.274 OA
ATOM     23  H   UNL     1      -4.061  -6.987   4.134  0.00  0.00    +0.173 HD
BRANCH  21  24
ATOM     24  C   UNL     1      -5.608  -8.235   2.416  0.00  0.00    +0.097 C 
BRANCH  24  25
ATOM     25  C   UNL     1      -6.222  -8.639   1.074  0.00  0.00    +0.012 C 
BRANCH  25  26
ATOM     26  C   UNL     1      -7.297  -9.703   1.305  0.00  0.00    -0.017 C 
ATOM     27  C   UNL     1      -8.448  -9.099   2.112  0.00  0.00    +0.007 C 
ATOM     28  C   UNL     1      -7.823 -10.197  -0.044  0.00  0.00    +0.007 C 
ENDBRANCH  25  26
ENDBRANCH  24  25
ENDBRANCH  21  24
ENDBRANCH  18  20
ENDBRANCH   6  16
TORSDOF 6
