REMARK  Name = ZINC23296598
REMARK  9 active torsions:
REMARK  status: ('A' for Active; 'I' for Inactive)
REMARK    1  A    between atoms: C_1  and  C_2
REMARK    2  A    between atoms: C_2  and  C_3
REMARK    3  A    between atoms: C_2  and  C_4
REMARK    4  A    between atoms: C_2  and  C_5
REMARK    5  A    between atoms: C_12  and  C_14
REMARK    6  A    between atoms: N_16  and  N_17
REMARK    7  A    between atoms: C_18  and  C_20
REMARK    8  A    between atoms: C_23  and  C_26
REMARK    9  A    between atoms: C_26  and  N_27
REMARK                            x       y       z     vdW  Elec       q    Type
REMARK                         _______ _______ _______ _____ _____    ______ ____
ROOT
ATOM      1  N   UNL     1      -3.463  -1.379   0.025  0.00  0.00    -0.230 N 
ATOM      2  C   UNL     1      -4.729  -0.915   0.039  0.00  0.00    +0.260 C 
ATOM      3  O   UNL     1      -4.937   0.282   0.048  0.00  0.00    -0.269 OA
ATOM      4  H   UNL     1      -3.275  -2.462   0.017  0.00  0.00    +0.173 HD
ENDROOT
BRANCH   2   5
ATOM      5  C   UNL     1      -5.863  -1.863   0.044  0.00  0.00    +0.038 A 
ATOM      6  C   UNL     1      -5.627  -3.239   0.028  0.00  0.00    +0.013 A 
ATOM      7  C   UNL     1      -6.691  -4.118   0.038  0.00  0.00    +0.006 A 
ATOM      8  C   UNL     1      -7.988  -3.639   0.053  0.00  0.00    -0.030 A 
ATOM      9  C   UNL     1      -8.229  -2.276   0.063  0.00  0.00    +0.006 A 
ATOM     10  C   UNL     1      -7.175  -1.386   0.058  0.00  0.00    +0.013 A 
BRANCH   8  11
ATOM     11  C   UNL     1      -9.145  -4.605   0.058  0.00  0.00    +0.151 C 
BRANCH  11  12
ATOM     12  N   UNL     1      -9.532  -4.910  -1.322  0.00  0.00    -0.238 N 
ATOM     13  C   UNL     1     -10.449  -4.200  -1.991  0.00  0.00    +0.223 C 
ATOM     14  O   UNL     1     -11.056  -3.247  -1.553  0.00  0.00    -0.275 OA
ATOM     15  C   UNL     1     -10.607  -4.776  -3.381  0.00  0.00    +0.105 C 
ATOM     16  C   UNL     1      -9.618  -5.959  -3.397  0.00  0.00    +0.105 C 
ATOM     17  C   UNL     1      -9.002  -5.925  -2.015  0.00  0.00    +0.223 C 
ATOM     18  O   UNL     1      -8.161  -6.695  -1.602  0.00  0.00    -0.275 OA
ENDBRANCH  11  12
ENDBRANCH   8  11
ENDBRANCH   2   5
BRANCH   1  21
ATOM     19  C   UNL     1      -1.123  -0.944   0.007  0.00  0.00    +0.267 C 
ATOM     20  O   UNL     1      -0.914  -2.143  -0.002  0.00  0.00    -0.268 OA
ATOM     21  N   UNL     1      -2.388  -0.480   0.021  0.00  0.00    -0.230 N 
ATOM     22  H   UNL     1      -2.577   0.603   0.029  0.00  0.00    +0.173 HD
BRANCH  19  29
ATOM     23  C   UNL     1       4.399   1.939   0.435  0.00  0.00    -0.001 C 
ATOM     24  C   UNL     1       3.865   3.110  -0.394  0.00  0.00    +0.009 C 
ATOM     25  C   UNL     1       2.402   3.364  -0.004  0.00  0.00    +0.043 C 
ATOM     26  C   UNL     1       1.679   2.053  -0.003  0.00  0.00    -0.006 A 
ATOM     27  C   UNL     1       2.235   0.805  -0.014  0.00  0.00    -0.036 A 
ATOM     28  C   UNL     1       1.359  -0.268  -0.012  0.00  0.00    +0.024 A 
ATOM     29  C   UNL     1       0.002  -0.004   0.002  0.00  0.00    +0.076 A 
ATOM     30  S   UNL     1      -0.022   1.781   0.012  0.00  0.00    -0.088 S 
ATOM     31  C   UNL     1       3.752   0.633  -0.028  0.00  0.00    +0.040 C 
BRANCH  23  33
ATOM     32  C   UNL     1       6.567   3.144   0.734  0.00  0.00    +0.011 C 
ATOM     33  C   UNL     1       5.916   1.843   0.261  0.00  0.00    -0.035 C 
ATOM     34  C   UNL     1       6.452   0.673   1.089  0.00  0.00    +0.011 C 
ATOM     35  C   UNL     1       6.246   1.615  -1.216  0.00  0.00    +0.011 C 
ENDBRANCH  23  33
ENDBRANCH  19  29
ENDBRANCH   1  21
TORSDOF 6
