REMARK  Name = ZINC08942033
REMARK  8 active torsions:
REMARK  status: ('A' for Active; 'I' for Inactive)
REMARK    1  A    between atoms: C_3  and  N_12
REMARK    2  A    between atoms: C_6  and  C_7
REMARK    3  A    between atoms: C_7  and  N_51
REMARK    4  A    between atoms: C_13  and  C_15
REMARK    5  A    between atoms: C_15  and  S_16
REMARK    6  A    between atoms: S_16  and  C_17
REMARK    7  A    between atoms: N_21  and  C_22
REMARK    8  A    between atoms: C_25  and  O_28
REMARK                            x       y       z     vdW  Elec       q    Type
REMARK                         _______ _______ _______ _____ _____    ______ ____
ROOT
ATOM      1  N   UNL     1      -0.909   6.515   0.044  0.00  0.00    -0.285 N 
ATOM      2  C   UNL     1      -1.987   5.947  -0.533  0.00  0.00    +0.227 C 
ATOM      3  O   UNL     1      -2.833   6.644  -1.054  0.00  0.00    -0.275 OA
ATOM      4  H   UNL     1      -0.267   5.964   0.519  0.00  0.00    +0.155 HD
ENDROOT
BRANCH   1   7
ATOM      5  C   UNL     1      -1.615  10.120  -0.105  0.00  0.00    +0.003 A 
ATOM      6  C   UNL     1      -1.809   8.755  -0.021  0.00  0.00    +0.023 A 
ATOM      7  C   UNL     1      -0.717   7.898  -0.042  0.00  0.00    +0.033 A 
ATOM      8  C   UNL     1       0.568   8.417  -0.141  0.00  0.00    +0.023 A 
ATOM      9  C   UNL     1       0.754   9.782  -0.232  0.00  0.00    +0.003 A 
ATOM     10  C   UNL     1      -0.336  10.633  -0.211  0.00  0.00    -0.064 A 
BRANCH  10  11
ATOM     11  C   UNL     1      -0.128  12.123  -0.303  0.00  0.00    -0.043 C 
BRANCH  11  16
ATOM     12  C   UNL     1       1.075  11.958   1.807  0.00  0.00    -0.078 C 
ATOM     13  C   UNL     1       1.458  12.960   2.925  0.00  0.00    -0.020 C 
ATOM     14  C   UNL     1       1.383  14.326   2.204  0.00  0.00    -0.020 C 
ATOM     15  C   UNL     1       0.464  14.092   0.991  0.00  0.00    -0.078 C 
ATOM     16  N   UNL     1       0.038  12.694   1.067  0.00  0.00    +0.382 N 
ATOM     17  H   UNL     1      -0.856  12.631   1.568  0.00  0.00    -0.081 HD
ENDBRANCH  11  16
ENDBRANCH  10  11
ENDBRANCH   1   7
BRANCH   2  18
ATOM     18  C   UNL     1      -2.141   4.448  -0.532  0.00  0.00    +0.173 C 
BRANCH  18  19
ATOM     19  S   UNL     1      -3.678   3.999  -1.376  0.00  0.00    -0.075 S 
BRANCH  19  20
ATOM     20  C   UNL     1      -3.605   2.245  -1.231  0.00  0.00    +0.214 A 
ATOM     21  N   UNL     1      -2.654   1.547  -0.649  0.00  0.00    -0.101 NA
ATOM     22  N   UNL     1      -2.910   0.290  -0.719  0.00  0.00    -0.022 NA
ATOM     23  N   UNL     1      -4.023   0.093  -1.339  0.00  0.00    -0.038 NA
ATOM     24  N   UNL     1      -4.520   1.358  -1.697  0.00  0.00    -0.187 N 
BRANCH  24  25
ATOM     25  C   UNL     1      -5.708   1.643  -2.388  0.00  0.00    +0.070 A 
ATOM     26  C   UNL     1      -6.440   2.779  -2.071  0.00  0.00    +0.031 A 
ATOM     27  C   UNL     1      -7.606   3.062  -2.755  0.00  0.00    +0.047 A 
ATOM     28  C   UNL     1      -8.051   2.205  -3.751  0.00  0.00    +0.117 A 
ATOM     29  C   UNL     1      -7.324   1.066  -4.063  0.00  0.00    +0.047 A 
ATOM     30  C   UNL     1      -6.155   0.785  -3.384  0.00  0.00    +0.031 A 
BRANCH  28  31
ATOM     31  O   UNL     1      -9.202   2.481  -4.420  0.00  0.00    -0.507 OA
ATOM     32  H   UNL     1      -9.994   2.103  -4.014  0.00  0.00    +0.292 HD
ENDBRANCH  28  31
ENDBRANCH  24  25
ENDBRANCH  19  20
ENDBRANCH  18  19
ENDBRANCH   2  18
TORSDOF 8
