REMARK  Name = ZINC39467200
REMARK  7 active torsions:
REMARK  status: ('A' for Active; 'I' for Inactive)
REMARK    1  A    between atoms: C_1  and  C_2
REMARK    2  A    between atoms: C_4  and  C_23
REMARK    3  A    between atoms: C_9  and  C_22
REMARK    4  A    between atoms: N_10  and  C_11
REMARK    5  A    between atoms: C_11  and  C_12
REMARK    6  A    between atoms: C_12  and  C_13
REMARK    7  A    between atoms: N_25  and  C_26
REMARK                            x       y       z     vdW  Elec       q    Type
REMARK                         _______ _______ _______ _____ _____    ______ ____
ROOT
ATOM      1  C   UNL     1      -0.870   1.379  -1.124  0.00  0.00    +0.029 C 
ATOM      2  C   UNL     1      -0.795  -0.127  -0.866  0.00  0.00    +0.089 C 
ATOM      3  C   UNL     1       0.395  -0.724  -1.628  0.00  0.00    +0.165 C 
ATOM      4  C   UNL     1       1.675  -0.248  -0.989  0.00  0.00    +0.171 C 
ATOM      5  O   UNL     1       2.685  -0.155  -1.658  0.00  0.00    -0.292 OA
ATOM      6  C   UNL     1       1.709   0.088   0.370  0.00  0.00    +0.065 C 
ATOM      7  C   UNL     1       0.592   0.015   1.133  0.00  0.00    +0.007 C 
ATOM      8  N   UNL     1      -0.591  -0.375   0.569  0.00  0.00    -0.329 N 
ATOM      9  C   UNL     1       0.654   0.362   2.598  0.00  0.00    +0.060 C 
ENDROOT
BRANCH   3  10
ATOM     10  C   UNL     1       0.328  -2.228  -1.570  0.00  0.00    +0.226 C 
ATOM     11  O   UNL     1      -0.102  -2.778  -0.578  0.00  0.00    -0.275 OA
ATOM     12  N   UNL     1       0.746  -2.962  -2.620  0.00  0.00    -0.312 N 
ATOM     13  H   UNL     1       1.090  -2.522  -3.413  0.00  0.00    +0.149 HD
BRANCH  12  14
ATOM     14  C   UNL     1       0.681  -4.425  -2.563  0.00  0.00    +0.073 C 
ATOM     15  C   UNL     1       1.915  -4.950  -1.802  0.00  0.00    +0.022 C 
ATOM     16  C   UNL     1       1.613  -6.337  -1.302  0.00  0.00    +0.002 C 
ATOM     17  C   UNL     1       2.100  -7.432  -2.271  0.00  0.00    +0.000 C 
ATOM     18  C   UNL     1       1.824  -7.090  -3.747  0.00  0.00    +0.000 C 
ATOM     19  C   UNL     1       0.463  -6.482  -3.952  0.00  0.00    +0.002 C 
ATOM     20  C   UNL     1       0.602  -4.946  -3.920  0.00  0.00    +0.022 C 
ENDBRANCH  12  14
ENDBRANCH   3  10
BRANCH   8  21
ATOM     21  C   UNL     1      -1.628  -1.025   1.374  0.00  0.00    +0.110 C 
BRANCH  21  22
ATOM     22  C   UNL     1      -2.605   0.031   1.895  0.00  0.00    +0.056 C 
BRANCH  22  23
ATOM     23  C   UNL     1      -3.740  -0.648   2.618  0.00  0.00    -0.021 A 
ATOM     24  C   UNL     1      -3.752  -1.071   4.020  0.00  0.00    +0.003 A 
ATOM     25  C   UNL     1      -2.825  -1.003   5.062  0.00  0.00    +0.010 A 
ATOM     26  C   UNL     1      -3.149  -1.501   6.292  0.00  0.00    +0.001 A 
ATOM     27  C   UNL     1      -4.393  -2.076   6.514  0.00  0.00    +0.002 A 
ATOM     28  C   UNL     1      -5.322  -2.154   5.500  0.00  0.00    +0.026 A 
ATOM     29  C   UNL     1      -5.014  -1.652   4.241  0.00  0.00    +0.047 A 
ATOM     30  N   UNL     1      -5.707  -1.581   3.053  0.00  0.00    -0.360 N 
ATOM     31  C   UNL     1      -4.935  -0.975   2.099  0.00  0.00    +0.087 A 
ATOM     32  H   UNL     1      -6.609  -1.908   2.914  0.00  0.00    +0.165 HD
ENDBRANCH  22  23
ENDBRANCH  21  22
ENDBRANCH   8  21
TORSDOF 5
