REMARK  Name = ZINC04087188
REMARK  5 active torsions:
REMARK  status: ('A' for Active; 'I' for Inactive)
REMARK    1  A    between atoms: C_1  and  C_2
REMARK    2  A    between atoms: C_2  and  N_39
REMARK    3  A    between atoms: C_8  and  N_13
REMARK    4  A    between atoms: C_9  and  C_10
REMARK    5  A    between atoms: C_14  and  C_16
REMARK                            x       y       z     vdW  Elec       q    Type
REMARK                         _______ _______ _______ _____ _____    ______ ____
ROOT
ATOM      1  C   UNL     1       0.427  -1.181  -3.641  0.00  0.00    -0.074 C 
ATOM      2  C   UNL     1      -0.017  -0.120  -2.630  0.00  0.00    +0.018 C 
ATOM      3  C   UNL     1      -0.005  -0.751  -1.242  0.00  0.00    -0.027 A 
ATOM      4  C   UNL     1       0.018  -2.096  -1.108  0.00  0.00    -0.021 A 
ATOM      5  S   UNL     1       0.039  -2.376   0.638  0.00  0.00    -0.079 S 
ATOM      6  C   UNL     1       0.023  -0.732   1.185  0.00  0.00    +0.085 A 
ATOM      7  C   UNL     1       0.002  -0.004   0.002  0.00  0.00    +0.068 A 
ATOM      8  C   UNL     1       0.019  -3.100  -2.219  0.00  0.00    -0.035 C 
ATOM      9  N   UNL     1      -0.388  -2.400  -3.462  0.00  0.00    +0.383 N 
ATOM     10  H   UNL     1      -1.377  -2.133  -3.387  0.00  0.00    -0.081 HD
ENDROOT
BRANCH   7  11
ATOM     11  C   UNL     1      -0.018   1.462   0.010  0.00  0.00    +0.244 C 
ATOM     12  O   UNL     1       1.028   2.084   0.003  0.00  0.00    -0.270 OA
ATOM     13  N   UNL     1      -1.194   2.120   0.019  0.00  0.00    -0.325 N 
ATOM     14  H   UNL     1      -2.027   1.623   0.021  0.00  0.00    +0.145 HD
ATOM     15  H   UNL     1      -1.207   3.090   0.025  0.00  0.00    +0.145 HD
ENDBRANCH   7  11
BRANCH   6  16
ATOM     16  N   UNL     1       0.029  -0.258   2.487  0.00  0.00    -0.275 N 
ATOM     17  C   UNL     1       0.050  -1.124   3.519  0.00  0.00    +0.251 C 
ATOM     18  O   UNL     1       0.063  -2.322   3.308  0.00  0.00    -0.270 OA
ATOM     19  H   UNL     1       0.017   0.698   2.655  0.00  0.00    +0.156 HD
BRANCH  17  20
ATOM     20  C   UNL     1       0.056  -0.621   4.901  0.00  0.00    +0.064 A 
ATOM     21  C   UNL     1       0.045   0.793   5.189  0.00  0.00    +0.042 A 
ATOM     22  C   UNL     1       0.047   1.154   6.487  0.00  0.00    +0.080 A 
ATOM     23  S   UNL     1       0.076  -0.408   7.342  0.00  0.00    -0.064 S 
ATOM     24  C   UNL     1       0.078  -1.480   5.982  0.00  0.00    +0.091 A 
ATOM     25 CL   UNL     1       0.100  -3.216   5.978  0.00  0.00    -0.075 Cl
ATOM     26 CL   UNL     1       0.033   2.753   7.162  0.00  0.00    -0.076 Cl
ENDBRANCH  17  20
ENDBRANCH   6  16
BRANCH   9  28
ATOM     27  C   UNL     1       1.259  -3.632  -4.832  0.00  0.00    -0.017 C 
ATOM     28  C   UNL     1      -0.219  -3.297  -4.625  0.00  0.00    -0.082 C 
ENDBRANCH   9  28
TORSDOF 4
