REMARK  Name = ZINC31394139
REMARK  10 active torsions:
REMARK  status: ('A' for Active; 'I' for Inactive)
REMARK    1  A    between atoms: C_1  and  C_2
REMARK    2  A    between atoms: C_2  and  C_4
REMARK    3  A    between atoms: C_2  and  N_16
REMARK    4  A    between atoms: C_7  and  N_10
REMARK    5  A    between atoms: C_11  and  C_13
REMARK    6  A    between atoms: C_17  and  C_19
REMARK    7  A    between atoms: C_19  and  C_20
REMARK    8  A    between atoms: C_20  and  N_21
REMARK    9  A    between atoms: N_21  and  S_22
REMARK   10  A    between atoms: S_22  and  C_25
REMARK                            x       y       z     vdW  Elec       q    Type
REMARK                         _______ _______ _______ _____ _____    ______ ____
ROOT
ATOM      1  N   UNL     1      -5.327   4.330  -0.541  0.00  0.00    -0.309 N 
ATOM      2  C   UNL     1      -6.539   4.693  -1.004  0.00  0.00    +0.215 C 
ATOM      3  O   UNL     1      -7.530   4.094  -0.643  0.00  0.00    -0.276 OA
ATOM      4  H   UNL     1      -4.428   4.873  -0.868  0.00  0.00    +0.149 HD
ENDROOT
BRANCH   1   6
ATOM      5  C   UNL     1      -5.437   3.717   1.824  0.00  0.00    +0.033 C 
ATOM      6  C   UNL     1      -5.206   3.212   0.399  0.00  0.00    +0.100 C 
BRANCH   6   7
ATOM      7  C   UNL     1      -3.826   2.615   0.294  0.00  0.00    -0.027 A 
ATOM      8  C   UNL     1      -3.662   1.243   0.349  0.00  0.00    +0.007 A 
ATOM      9  C   UNL     1      -2.398   0.694   0.254  0.00  0.00    +0.023 A 
ATOM     10  C   UNL     1      -1.292   1.520   0.104  0.00  0.00    +0.033 A 
ATOM     11  C   UNL     1      -1.460   2.897   0.055  0.00  0.00    +0.023 A 
ATOM     12  C   UNL     1      -2.727   3.441   0.145  0.00  0.00    +0.007 A 
BRANCH  10  13
ATOM     13  N   UNL     1      -0.011   0.966   0.007  0.00  0.00    -0.285 N 
ATOM     14  C   UNL     1       0.924   1.561  -0.759  0.00  0.00    +0.220 C 
ATOM     15  O   UNL     1       0.631   2.523  -1.436  0.00  0.00    -0.275 OA
ATOM     16  H   UNL     1       0.233   0.044   0.557  0.00  0.00    +0.155 HD
BRANCH  14  17
ATOM     17  C   UNL     1       2.335   1.031  -0.773  0.00  0.00    +0.075 C 
ATOM     18  C   UNL     1       3.424   1.902  -0.143  0.00  0.00    +0.013 C 
ATOM     19  C   UNL     1       3.351   1.750  -1.663  0.00  0.00    +0.013 C 
ENDBRANCH  14  17
ENDBRANCH  10  13
ENDBRANCH   6   7
ENDBRANCH   1   6
BRANCH   2  20
ATOM     20  C   UNL     1      -6.663   5.842  -1.970  0.00  0.00    +0.112 C 
BRANCH  20  21
ATOM     21  C   UNL     1      -8.135   6.045  -2.336  0.00  0.00    +0.115 C 
BRANCH  21  22
ATOM     22  N   UNL     1      -8.256   7.162  -3.275  0.00  0.00    -0.189 NA
ATOM     23  H   UNL     1      -7.487   7.949  -3.296  0.00  0.00    +0.148 HD
BRANCH  22  24
ATOM     24  S   UNL     1      -9.659   7.379  -4.128  0.00  0.00    +0.058 S 
ATOM     25  O   UNL     1      -9.477   8.545  -4.920  0.00  0.00    -0.153 OA
ATOM     26  O   UNL     1      -9.991   6.118  -4.692  0.00  0.00    -0.153 OA
BRANCH  24  27
ATOM     27  C   UNL     1     -10.925   7.757  -2.961  0.00  0.00    +0.105 A 
ATOM     28  C   UNL     1     -11.672   6.739  -2.398  0.00  0.00    +0.029 A 
ATOM     29  C   UNL     1     -12.661   7.034  -1.480  0.00  0.00    +0.017 A 
ATOM     30  C   UNL     1     -12.911   8.349  -1.131  0.00  0.00    +0.018 A 
ATOM     31  C   UNL     1     -12.167   9.368  -1.698  0.00  0.00    +0.017 A 
ATOM     32  C   UNL     1     -11.174   9.071  -2.613  0.00  0.00    +0.029 A 
ATOM     33 BR   UNL     1     -14.269   8.755   0.121  0.00  0.00    -0.050 Br
ENDBRANCH  24  27
ENDBRANCH  22  24
ENDBRANCH  21  22
ENDBRANCH  20  21
ENDBRANCH   2  20
TORSDOF 9
