REMARK  Name = ZINC59019917
REMARK  7 active torsions:
REMARK  status: ('A' for Active; 'I' for Inactive)
REMARK    1  A    between atoms: C_1  and  C_2
REMARK    2  A    between atoms: C_5  and  C_7
REMARK    3  A    between atoms: N_8  and  N_9
REMARK    4  A    between atoms: C_12  and  S_15
REMARK    5  A    between atoms: S_15  and  C_16
REMARK    6  A    between atoms: C_16  and  C_17
REMARK    7  A    between atoms: N_19  and  C_20
REMARK                            x       y       z     vdW  Elec       q    Type
REMARK                         _______ _______ _______ _____ _____    ______ ____
ROOT
ATOM      1  N   UNL     1       3.820  -4.120  -0.013  0.00  0.00    -0.205 N 
ATOM      2  C   UNL     1       5.187  -3.914  -0.021  0.00  0.00    +0.232 A 
ATOM      3  N   UNL     1       5.793  -2.745  -0.021  0.00  0.00    -0.186 NA
ATOM      4  C   UNL     1       7.118  -2.926  -0.029  0.00  0.00    +0.211 A 
ATOM      5  N   UNL     1       7.373  -4.213  -0.035  0.00  0.00    -0.144 NA
ATOM      6  N   UNL     1       6.135  -4.875  -0.025  0.00  0.00    -0.245 N 
ATOM      7  H   UNL     1       3.466  -5.023  -0.009  0.00  0.00    +0.177 HD
ATOM      8  H   UNL     1       5.989  -5.834  -0.022  0.00  0.00    +0.192 HD
ENDROOT
BRANCH   1  10
ATOM      9  C   UNL     1       1.660  -3.219  -0.002  0.00  0.00    +0.176 C 
ATOM     10  N   UNL     1       2.946  -3.025  -0.010  0.00  0.00    -0.184 NA
BRANCH   9  15
ATOM     11  C   UNL     1      -0.019   1.501  -0.001  0.00  0.00    +0.086 C 
ATOM     12  C   UNL     1       0.002  -0.005   0.002  0.00  0.00    +0.103 A 
ATOM     13  C   UNL     1      -1.083  -0.806   0.009  0.00  0.00    +0.045 A 
ATOM     14  C   UNL     1      -0.618  -2.134   0.009  0.00  0.00    +0.051 A 
ATOM     15  C   UNL     1       0.745  -2.072   0.001  0.00  0.00    +0.148 A 
ATOM     16  O   UNL     1       1.104  -0.773  -0.009  0.00  0.00    -0.459 OA
ENDBRANCH   9  15
ENDBRANCH   1  10
BRANCH   4  17
ATOM     17  S   UNL     1       8.326  -1.644  -0.034  0.00  0.00    -0.075 S 
BRANCH  17  18
ATOM     18  C   UNL     1       9.908  -2.531  -0.045  0.00  0.00    +0.173 C 
BRANCH  18  19
ATOM     19  C   UNL     1      11.042  -1.538  -0.050  0.00  0.00    +0.227 C 
ATOM     20  O   UNL     1      10.806  -0.348  -0.045  0.00  0.00    -0.275 OA
ATOM     21  N   UNL     1      12.318  -1.972  -0.059  0.00  0.00    -0.285 N 
ATOM     22  H   UNL     1      12.508  -2.921   0.006  0.00  0.00    +0.155 HD
BRANCH  21  23
ATOM     23  C   UNL     1      13.368  -1.053  -0.160  0.00  0.00    +0.033 A 
ATOM     24  C   UNL     1      14.515  -1.383  -0.871  0.00  0.00    +0.024 A 
ATOM     25  C   UNL     1      15.550  -0.474  -0.970  0.00  0.00    +0.016 A 
ATOM     26  C   UNL     1      15.446   0.764  -0.362  0.00  0.00    +0.013 A 
ATOM     27  C   UNL     1      14.305   1.096   0.346  0.00  0.00    +0.016 A 
ATOM     28  C   UNL     1      13.264   0.193   0.444  0.00  0.00    +0.024 A 
ATOM     29  I   UNL     1      17.019   2.139  -0.514  0.00  0.00    -0.044 I 
ENDBRANCH  21  23
ENDBRANCH  18  19
ENDBRANCH  17  18
ENDBRANCH   4  17
TORSDOF 6
