REMARK  Name = ZINC41172899
REMARK  5 active torsions:
REMARK  status: ('A' for Active; 'I' for Inactive)
REMARK    1  A    between atoms: C_1  and  C_2
REMARK    2  A    between atoms: C_3  and  S_9
REMARK    3  A    between atoms: C_4  and  C_8
REMARK    4  A    between atoms: S_9  and  N_12
REMARK    5  A    between atoms: C_16  and  C_19
REMARK                            x       y       z     vdW  Elec       q    Type
REMARK                         _______ _______ _______ _____ _____    ______ ____
ROOT
ATOM      1  N   UNL     1       1.569  -0.072  -3.243  0.00  0.00    -0.171 NA
ATOM      2  C   UNL     1       2.277   1.205  -3.061  0.00  0.00    +0.137 C 
ATOM      3  C   UNL     1       3.612   0.922  -2.361  0.00  0.00    +0.178 C 
ATOM      4  O   UNL     1       4.313  -0.096  -3.079  0.00  0.00    -0.369 OA
ATOM      5  C   UNL     1       3.637  -1.355  -3.119  0.00  0.00    +0.165 C 
ATOM      6  C   UNL     1       2.306  -1.191  -3.852  0.00  0.00    +0.146 C 
ENDROOT
BRANCH   5   7
ATOM      7  C   UNL     1       4.492  -2.363  -3.842  0.00  0.00    +0.001 A 
ATOM      8  C   UNL     1       5.434  -1.938  -4.761  0.00  0.00    +0.007 A 
ATOM      9  C   UNL     1       6.219  -2.862  -5.425  0.00  0.00    +0.000 A 
ATOM     10  C   UNL     1       6.062  -4.212  -5.171  0.00  0.00    +0.001 A 
ATOM     11  C   UNL     1       5.121  -4.639  -4.253  0.00  0.00    +0.020 A 
ATOM     12  C   UNL     1       4.339  -3.713  -3.584  0.00  0.00    +0.047 A 
ATOM     13 CL   UNL     1       3.161  -4.248  -2.426  0.00  0.00    -0.083 Cl
ENDBRANCH   5   7
BRANCH   1  14
ATOM     14  S   UNL     1      -0.008  -0.247  -2.770  0.00  0.00    +0.064 S 
ATOM     15  O   UNL     1      -0.548  -1.312  -3.541  0.00  0.00    -0.153 OA
ATOM     16  O   UNL     1      -0.578   1.055  -2.765  0.00  0.00    -0.153 OA
BRANCH  14  19
ATOM     17  C   UNL     1      -0.018   1.503   0.010  0.00  0.00    +0.067 C 
ATOM     18  C   UNL     1       0.002  -0.004   0.002  0.00  0.00    +0.060 A 
ATOM     19  C   UNL     1       0.008  -0.796  -1.095  0.00  0.00    +0.148 A 
ATOM     20  C   UNL     1       0.028  -2.127  -0.666  0.00  0.00    +0.086 A 
ATOM     21  N   UNL     1       0.035  -2.134   0.643  0.00  0.00    -0.177 NA
ATOM     22  N   UNL     1       0.024  -0.805   1.088  0.00  0.00    -0.280 N 
ATOM     23  H   UNL     1       0.029  -0.513   2.013  0.00  0.00    +0.189 HD
ATOM     24  C   UNL     1       0.040  -3.343  -1.556  0.00  0.00    +0.069 C 
ENDBRANCH  14  19
ENDBRANCH   1  14
TORSDOF 3
