REMARK  Name = ZINC40813947
REMARK  9 active torsions:
REMARK  status: ('A' for Active; 'I' for Inactive)
REMARK    1  A    between atoms: C_1  and  C_2
REMARK    2  A    between atoms: C_2  and  C_3
REMARK    3  A    between atoms: C_3  and  C_4
REMARK    4  A    between atoms: C_4  and  C_5
REMARK    5  A    between atoms: C_8  and  N_11
REMARK    6  A    between atoms: C_12  and  C_14
REMARK    7  A    between atoms: C_15  and  C_33
REMARK    8  A    between atoms: N_23  and  N_24
REMARK    9  A    between atoms: C_25  and  C_27
REMARK                            x       y       z     vdW  Elec       q    Type
REMARK                         _______ _______ _______ _____ _____    ______ ____
ROOT
ATOM      1  C   UNL     1       5.432  -4.338  -7.181  0.00  0.00    +0.193 A 
ATOM      2  C   UNL     1       6.783  -4.493  -7.322  0.00  0.00    +0.009 A 
ATOM      3  C   UNL     1       7.000  -4.842  -8.660  0.00  0.00    +0.042 A 
ATOM      4  C   UNL     1       5.772  -4.885  -9.279  0.00  0.00    +0.115 A 
ATOM      5  O   UNL     1       4.844  -4.587  -8.373  0.00  0.00    -0.454 OA
ATOM      6  C   UNL     1       5.600  -5.223 -10.738  0.00  0.00    +0.075 C 
ATOM      7  C   UNL     1       6.924  -4.992 -11.473  0.00  0.00    +0.014 C 
ATOM      8  C   UNL     1       8.066  -5.738 -10.776  0.00  0.00    +0.058 C 
ATOM      9  C   UNL     1       8.252  -5.137  -9.390  0.00  0.00    +0.070 C 
ATOM     10  N   UNL     1       9.424  -4.899  -8.886  0.00  0.00    -0.184 NA
ATOM     11  C   UNL     1       7.830  -4.321  -6.251  0.00  0.00    +0.048 C 
ENDROOT
BRANCH   1  13
ATOM     12  N   UNL     1       3.394  -3.856  -5.932  0.00  0.00    -0.279 N 
ATOM     13  C   UNL     1       4.737  -3.971  -5.942  0.00  0.00    +0.284 C 
ATOM     14  O   UNL     1       5.372  -3.771  -4.924  0.00  0.00    -0.266 OA
ATOM     15  H   UNL     1       2.881  -4.089  -6.722  0.00  0.00    +0.155 HD
BRANCH  12  19
ATOM     16  C   UNL     1       1.446  -2.497  -2.510  0.00  0.00    -0.047 A 
ATOM     17  C   UNL     1       0.836  -3.431  -3.327  0.00  0.00    +0.005 A 
ATOM     18  C   UNL     1       1.479  -3.884  -4.462  0.00  0.00    +0.023 A 
ATOM     19  C   UNL     1       2.740  -3.399  -4.784  0.00  0.00    +0.034 A 
ATOM     20  C   UNL     1       3.350  -2.461  -3.962  0.00  0.00    +0.023 A 
ATOM     21  C   UNL     1       2.700  -2.009  -2.831  0.00  0.00    +0.005 A 
BRANCH  16  22
ATOM     22  C   UNL     1       0.741  -2.005  -1.273  0.00  0.00    +0.035 C 
BRANCH  22  23
ATOM     23  C   UNL     1      -0.106  -0.779  -1.621  0.00  0.00    +0.004 C 
BRANCH  23  25
ATOM     24  C   UNL     1      -1.668   0.946  -0.713  0.00  0.00    +0.004 C 
ATOM     25  C   UNL     1      -0.821  -0.280  -0.364  0.00  0.00    -0.003 C 
ENDBRANCH  23  25
ENDBRANCH  22  23
ENDBRANCH  16  22
ENDBRANCH  12  19
ENDBRANCH   1  13
BRANCH  10  26
ATOM     26  N   UNL     1      10.578  -5.198  -9.623  0.00  0.00    -0.203 N 
ATOM     27  C   UNL     1      11.795  -4.952  -9.100  0.00  0.00    +0.263 C 
ATOM     28  O   UNL     1      11.892  -4.470  -7.988  0.00  0.00    -0.268 OA
ATOM     29  H   UNL     1      10.500  -5.583 -10.510  0.00  0.00    +0.178 HD
BRANCH  27  30
ATOM     30  C   UNL     1      13.014  -5.268  -9.878  0.00  0.00    +0.041 A 
ATOM     31  C   UNL     1      12.925  -5.817 -11.161  0.00  0.00    +0.033 A 
ATOM     32  C   UNL     1      14.088  -6.097 -11.852  0.00  0.00    +0.111 A 
ATOM     33  N   UNL     1      15.268  -5.853 -11.318  0.00  0.00    -0.263 NA
ATOM     34  C   UNL     1      15.396  -5.336 -10.113  0.00  0.00    +0.111 A 
ATOM     35  C   UNL     1      14.286  -5.020  -9.354  0.00  0.00    +0.033 A 
ENDBRANCH  27  30
ENDBRANCH  10  26
TORSDOF 7
