REMARK  Name = ZINC11423884
REMARK  10 active torsions:
REMARK  status: ('A' for Active; 'I' for Inactive)
REMARK    1  A    between atoms: C_1  and  C_2
REMARK    2  A    between atoms: C_2  and  C_31
REMARK    3  A    between atoms: C_4  and  N_9
REMARK    4  A    between atoms: C_6  and  C_7
REMARK    5  A    between atoms: C_6  and  C_8
REMARK    6  A    between atoms: C_10  and  C_12
REMARK    7  A    between atoms: C_12  and  S_13
REMARK    8  A    between atoms: S_13  and  C_14
REMARK    9  A    between atoms: C_17  and  C_25
REMARK   10  A    between atoms: N_18  and  C_19
REMARK                            x       y       z     vdW  Elec       q    Type
REMARK                         _______ _______ _______ _____ _____    ______ ____
ROOT
ATOM      1  S   UNL     1      -0.296   7.783  -4.048  0.00  0.00    -0.076 S 
ENDROOT
BRANCH   1   2
ATOM      2  C   UNL     1      -0.237   9.526  -3.796  0.00  0.00    +0.197 A 
ATOM      3  N   UNL     1       0.034  10.142  -2.667  0.00  0.00    -0.122 NA
ATOM      4  N   UNL     1      -0.008  11.415  -2.837  0.00  0.00    -0.128 NA
ATOM      5  C   UNL     1      -0.309  11.693  -4.085  0.00  0.00    +0.169 A 
ATOM      6  N   UNL     1      -0.459  10.490  -4.741  0.00  0.00    -0.270 N 
BRANCH   6   7
ATOM      7  C   UNL     1      -0.776  10.296  -6.093  0.00  0.00    +0.051 A 
ATOM      8  C   UNL     1       0.108  10.709  -7.080  0.00  0.00    +0.026 A 
ATOM      9  C   UNL     1      -0.204  10.512  -8.411  0.00  0.00    +0.002 A 
ATOM     10  C   UNL     1      -1.402   9.915  -8.760  0.00  0.00    +0.000 A 
ATOM     11  C   UNL     1      -2.287   9.508  -7.779  0.00  0.00    +0.002 A 
ATOM     12  C   UNL     1      -1.977   9.697  -6.446  0.00  0.00    +0.026 A 
ENDBRANCH   6   7
BRANCH   5  13
ATOM     13  C   UNL     1      -0.452  13.040  -4.675  0.00  0.00    +0.020 A 
ATOM     14  C   UNL     1      -1.066  13.199  -5.918  0.00  0.00    +0.011 A 
ATOM     15  C   UNL     1      -1.202  14.460  -6.461  0.00  0.00    +0.001 A 
ATOM     16  C   UNL     1      -0.720  15.564  -5.781  0.00  0.00    +0.000 A 
ATOM     17  C   UNL     1      -0.106  15.413  -4.551  0.00  0.00    +0.001 A 
ATOM     18  C   UNL     1       0.031  14.159  -3.994  0.00  0.00    +0.011 A 
ENDBRANCH   5  13
ENDBRANCH   1   2
BRANCH   1  19
ATOM     19  C   UNL     1       0.105   7.210  -2.379  0.00  0.00    +0.173 C 
BRANCH  19  21
ATOM     20  N   UNL     1       0.389   5.051  -1.207  0.00  0.00    -0.312 N 
ATOM     21  C   UNL     1       0.113   5.703  -2.353  0.00  0.00    +0.224 C 
ATOM     22  O   UNL     1      -0.129   5.078  -3.364  0.00  0.00    -0.275 OA
ATOM     23  H   UNL     1       0.582   5.550  -0.398  0.00  0.00    +0.149 HD
BRANCH  20  27
ATOM     24  C   UNL     1      -0.944   0.975  -2.269  0.00  0.00    -0.010 C 
ATOM     25  C   UNL     1      -1.042   1.551  -0.852  0.00  0.00    -0.072 C 
ATOM     26  C   UNL     1      -1.022   3.076  -0.918  0.00  0.00    +0.009 C 
ATOM     27  C   UNL     1       0.396   3.583  -1.181  0.00  0.00    +0.070 C 
ATOM     28  C   UNL     1       1.298   3.104  -0.042  0.00  0.00    +0.009 C 
ATOM     29  C   UNL     1       1.320   1.577  -0.002  0.00  0.00    -0.072 C 
ATOM     30  C   UNL     1       2.035   1.156   1.301  0.00  0.00    -0.010 C 
ATOM     31  C   UNL     1       2.151   1.041  -1.172  0.00  0.00    -0.010 C 
ATOM     32  C   UNL     1      -2.415   1.129  -0.282  0.00  0.00    -0.010 C 
ATOM     33  N   UNL     1      -0.027   0.947   0.053  0.00  0.00    +0.386 N 
ATOM     34  H   UNL     1       0.074  -0.044  -0.199  0.00  0.00    -0.084 HD
ATOM     35  H   UNL     1      -0.375   1.022   1.016  0.00  0.00    -0.084 HD
ENDBRANCH  20  27
ENDBRANCH  19  21
ENDBRANCH   1  19
TORSDOF 6
