REMARK  Name = ZINC23222965
REMARK  6 active torsions:
REMARK  status: ('A' for Active; 'I' for Inactive)
REMARK    1  A    between atoms: C_5  and  C_7
REMARK    2  A    between atoms: C_10  and  S_13
REMARK    3  A    between atoms: N_11  and  N_12
REMARK    4  A    between atoms: S_13  and  C_14
REMARK    5  A    between atoms: C_14  and  C_15
REMARK    6  A    between atoms: C_17  and  C_20
REMARK                            x       y       z     vdW  Elec       q    Type
REMARK                         _______ _______ _______ _____ _____    ______ ____
ROOT
ATOM      1  C   UNL     1       0.002  -0.004   0.002  0.00  0.00    +0.184 A 
ATOM      2  N   UNL     1      -0.011   1.303   0.127  0.00  0.00    -0.127 NA
ATOM      3  N   UNL     1       1.189   1.760   0.077  0.00  0.00    -0.121 NA
ATOM      4  C   UNL     1       2.042   0.773  -0.083  0.00  0.00    +0.209 A 
ATOM      5  N   UNL     1       1.317  -0.384  -0.136  0.00  0.00    -0.224 N 
ENDROOT
BRANCH   1  10
ATOM      6  C   UNL     1      -2.267  -2.894   0.778  0.00  0.00    +0.001 A 
ATOM      7  C   UNL     1      -3.380  -2.576   0.019  0.00  0.00    +0.003 A 
ATOM      8  C   UNL     1      -3.397  -1.424  -0.746  0.00  0.00    +0.039 A 
ATOM      9  C   UNL     1      -2.303  -0.580  -0.753  0.00  0.00    +0.134 A 
ATOM     10  C   UNL     1      -1.175  -0.899   0.008  0.00  0.00    +0.056 A 
ATOM     11  C   UNL     1      -1.166  -2.063   0.777  0.00  0.00    +0.014 A 
ATOM     12  F   UNL     1      -2.322   0.548  -1.496  0.00  0.00    -0.205 F 
ENDBRANCH   1  10
BRANCH   5  13
ATOM     13  N   UNL     1       1.798  -1.652  -0.295  0.00  0.00    -0.295 N 
ATOM     14  H   UNL     1       2.880  -1.822  -0.395  0.00  0.00    +0.163 HD
ATOM     15  H   UNL     1       1.103  -2.504  -0.322  0.00  0.00    +0.163 HD
ENDBRANCH   5  13
BRANCH   4  16
ATOM     16  S   UNL     1       3.794   0.915  -0.205  0.00  0.00    -0.075 S 
BRANCH  16  17
ATOM     17  C   UNL     1       3.976   2.709  -0.049  0.00  0.00    +0.176 C 
BRANCH  17  18
ATOM     18  C   UNL     1       5.435   3.075  -0.128  0.00  0.00    +0.238 A 
ATOM     19  N   UNL     1       6.107   3.363  -1.214  0.00  0.00    -0.190 NA
ATOM     20  C   UNL     1       7.369   3.626  -0.802  0.00  0.00    +0.209 A 
ATOM     21  N   UNL     1       7.388   3.482   0.500  0.00  0.00    -0.056 NA
ATOM     22  O   UNL     1       6.285   3.172   0.899  0.00  0.00    -0.337 OA
BRANCH  20  23
ATOM     23  C   UNL     1       8.512   4.003  -1.660  0.00  0.00    +0.060 A 
ATOM     24  C   UNL     1       9.805   4.280  -1.303  0.00  0.00    +0.019 A 
ATOM     25  C   UNL     1      10.707   4.612  -2.288  0.00  0.00    +0.008 A 
ATOM     26  C   UNL     1      10.290   4.656  -3.580  0.00  0.00    +0.046 A 
ATOM     27  S   UNL     1       8.568   4.210  -3.433  0.00  0.00    -0.093 S 
ENDBRANCH  20  23
ENDBRANCH  17  18
ENDBRANCH  16  17
ENDBRANCH   4  16
TORSDOF 6
