REMARK  Name = ZINC09319117
REMARK  6 active torsions:
REMARK  status: ('A' for Active; 'I' for Inactive)
REMARK    1  A    between atoms: C_1  and  S_2
REMARK    2  A    between atoms: S_2  and  C_3
REMARK    3  A    between atoms: C_3  and  C_4
REMARK    4  A    between atoms: C_4  and  C_5
REMARK    5  A    between atoms: N_13  and  C_16
REMARK    6  A    between atoms: C_20  and  N_22
REMARK                            x       y       z     vdW  Elec       q    Type
REMARK                         _______ _______ _______ _____ _____    ______ ____
ROOT
ATOM      1  C   UNL     1       1.543   2.765  -1.064  0.00  0.00    -0.057 C 
ATOM      2  C   UNL     1       1.415   1.839   0.164  0.00  0.00    +0.073 C 
ATOM      3  C   UNL     1       2.248   0.577  -0.199  0.00  0.00    +0.088 C 
ATOM      4  C   UNL     1       1.209  -0.520  -0.258  0.00  0.00    +0.229 C 
ATOM      5  O   UNL     1       1.434  -1.685  -0.504  0.00  0.00    -0.275 OA
ATOM      6  N   UNL     1       0.002  -0.004   0.002  0.00  0.00    -0.210 N 
ATOM      7  C   UNL     1       0.002   1.311   0.249  0.00  0.00    +0.228 C 
ATOM      8  O   UNL     1      -0.981   1.977   0.497  0.00  0.00    -0.275 OA
ATOM      9  C   UNL     1       2.781   0.860  -1.609  0.00  0.00    +0.050 C 
ATOM     10  C   UNL     1       4.196   1.363  -1.573  0.00  0.00    -0.028 A 
ATOM     11  C   UNL     1       4.802   2.448  -0.981  0.00  0.00    +0.004 A 
ATOM     12  C   UNL     1       6.163   2.650  -1.134  0.00  0.00    +0.000 A 
ATOM     13  C   UNL     1       6.911   1.760  -1.882  0.00  0.00    +0.002 A 
ATOM     14  C   UNL     1       6.308   0.671  -2.476  0.00  0.00    +0.023 A 
ATOM     15  C   UNL     1       4.940   0.459  -2.327  0.00  0.00    +0.036 A 
ATOM     16  N   UNL     1       4.114  -0.553  -2.820  0.00  0.00    -0.286 N 
ATOM     17  C   UNL     1       2.831  -0.393  -2.440  0.00  0.00    +0.211 C 
ATOM     18  O   UNL     1       1.899  -1.118  -2.715  0.00  0.00    -0.277 OA
ATOM     19  H   UNL     1       4.427  -1.287  -3.372  0.00  0.00    +0.155 HD
ATOM     20  N   UNL     1       1.878   1.855  -2.161  0.00  0.00    +0.394 N 
ATOM     21  H   UNL     1       2.340   2.370  -2.921  0.00  0.00    -0.083 HD
ATOM     22  H   UNL     1       1.029   1.403  -2.520  0.00  0.00    -0.083 HD
ENDROOT
BRANCH   6  23
ATOM     23  C   UNL     1      -1.167  -0.778   0.015  0.00  0.00    +0.046 A 
ATOM     24  C   UNL     1      -1.352  -1.742   0.997  0.00  0.00    +0.024 A 
ATOM     25  C   UNL     1      -2.505  -2.503   1.007  0.00  0.00    +0.004 A 
ATOM     26  C   UNL     1      -3.474  -2.306   0.040  0.00  0.00    +0.033 A 
ATOM     27  C   UNL     1      -3.292  -1.347  -0.939  0.00  0.00    +0.128 A 
ATOM     28  C   UNL     1      -2.143  -0.579  -0.951  0.00  0.00    +0.056 A 
BRANCH  27  29
ATOM     29  N   UNL     1      -4.332  -1.138  -1.972  0.00  0.00    +0.056 N 
ATOM     30  O   UNL     1      -5.347  -1.811  -1.959  0.00  0.00    -0.126 OA
ATOM     31  O   UNL     1      -4.172  -0.293  -2.835  0.00  0.00    -0.126 OA
ENDBRANCH  27  29
ENDBRANCH   6  23
BRANCH   1  32
ATOM     32  C   UNL     1       0.221   3.491  -1.322  0.00  0.00    -0.004 C 
BRANCH  32  33
ATOM     33  C   UNL     1       0.404   4.494  -2.463  0.00  0.00    +0.067 C 
BRANCH  33  35
ATOM     34  C   UNL     1      -0.781   6.491  -4.130  0.00  0.00    +0.084 C 
ATOM     35  S   UNL     1      -1.163   5.354  -2.769  0.00  0.00    -0.164 S 
ENDBRANCH  33  35
ENDBRANCH  32  33
ENDBRANCH   1  32
TORSDOF 5
