REMARK  Name = ZINC09042150
REMARK  10 active torsions:
REMARK  status: ('A' for Active; 'I' for Inactive)
REMARK    1  A    between atoms: C_2  and  C_3
REMARK    2  A    between atoms: C_3  and  O_4
REMARK    3  A    between atoms: O_4  and  C_5
REMARK    4  A    between atoms: C_8  and  C_11
REMARK    5  A    between atoms: C_14  and  C_15
REMARK    6  A    between atoms: C_14  and  O_22
REMARK    7  A    between atoms: N_27  and  C_28
REMARK    8  A    between atoms: C_28  and  C_29
REMARK    9  A    between atoms: C_29  and  C_30
REMARK   10  A    between atoms: C_30  and  N_64
REMARK                            x       y       z     vdW  Elec       q    Type
REMARK                         _______ _______ _______ _____ _____    ______ ____
ROOT
ATOM      1  C   UNL     1      -0.992   2.154  -0.074  0.00  0.00    +0.144 C 
ATOM      2  C   UNL     1      -1.326   2.639  -1.466  0.00  0.00    +0.071 C 
ATOM      3  C   UNL     1      -1.817   1.884  -2.511  0.00  0.00    +0.133 C 
ATOM      4  C   UNL     1      -1.036   4.013  -1.481  0.00  0.00    +0.249 C 
ATOM      5  O   UNL     1      -1.173   4.761  -2.431  0.00  0.00    -0.282 OA
ATOM      6  C   UNL     1      -0.530   4.394  -0.134  0.00  0.00    +0.288 C 
ATOM      7  O   UNL     1      -0.189   5.514   0.189  0.00  0.00    -0.266 OA
ATOM      8  N   UNL     1      -0.508   3.319   0.672  0.00  0.00    -0.284 N 
ENDROOT
BRANCH   3   9
ATOM      9  C   UNL     1      -2.228   2.540  -3.764  0.00  0.00    +0.017 A 
ATOM     10  C   UNL     1      -3.114   3.622  -3.732  0.00  0.00    +0.013 A 
ATOM     11  C   UNL     1      -3.491   4.235  -4.908  0.00  0.00    +0.021 A 
ATOM     12  C   UNL     1      -3.003   3.774  -6.120  0.00  0.00    +0.041 A 
ATOM     13  C   UNL     1      -2.130   2.699  -6.160  0.00  0.00    +0.021 A 
ATOM     14  C   UNL     1      -1.740   2.080  -4.992  0.00  0.00    +0.013 A 
ATOM     15 CL   UNL     1      -3.488   4.547  -7.597  0.00  0.00    -0.084 Cl
ENDBRANCH   3   9
BRANCH   1  19
ATOM     16  C   UNL     1       2.053  -0.837  -0.269  0.00  0.00    +0.121 A 
ATOM     17  C   UNL     1       0.730  -1.205  -0.076  0.00  0.00    +0.046 A 
ATOM     18  C   UNL     1      -0.253  -0.236  -0.011  0.00  0.00    +0.009 A 
ATOM     19  C   UNL     1       0.082   1.100  -0.139  0.00  0.00    -0.022 A 
ATOM     20  C   UNL     1       1.401   1.469  -0.331  0.00  0.00    +0.009 A 
ATOM     21  C   UNL     1       2.387   0.503  -0.397  0.00  0.00    +0.046 A 
BRANCH  16  22
ATOM     22  O   UNL     1       3.021  -1.789  -0.334  0.00  0.00    -0.488 OA
BRANCH  22  23
ATOM     23  C   UNL     1       4.362  -1.337  -0.535  0.00  0.00    +0.256 C 
BRANCH  23  25
ATOM     24  C   UNL     1       6.215  -2.597  -1.504  0.00  0.00    +0.007 C 
ATOM     25  C   UNL     1       5.290  -2.524  -0.580  0.00  0.00    +0.006 C 
ENDBRANCH  23  25
ENDBRANCH  22  23
ENDBRANCH  16  22
ENDBRANCH   1  19
BRANCH   3  26
ATOM     26  O   UNL     1      -1.919   0.543  -2.386  0.00  0.00    -0.506 OA
ATOM     27  H   UNL     1      -2.290   0.157  -3.231  0.00  0.00    +0.292 HD
ENDBRANCH   3  26
BRANCH   8  28
ATOM     28  C   UNL     1      -0.070   3.312   2.071  0.00  0.00    +0.107 C 
BRANCH  28  29
ATOM     29  C   UNL     1       1.430   3.020   2.134  0.00  0.00    +0.000 C 
BRANCH  29  30
ATOM     30  C   UNL     1       1.887   3.013   3.594  0.00  0.00    -0.077 C 
BRANCH  30  36
ATOM     31  C   UNL     1       3.619   1.366   3.197  0.00  0.00    -0.050 C 
ATOM     32  C   UNL     1       5.133   1.137   3.220  0.00  0.00    +0.141 C 
ATOM     33  O   UNL     1       5.627   1.383   4.539  0.00  0.00    -0.383 OA
ATOM     34  C   UNL     1       5.362   2.705   5.016  0.00  0.00    +0.141 C 
ATOM     35  C   UNL     1       3.850   2.949   5.012  0.00  0.00    -0.050 C 
ATOM     36  N   UNL     1       3.342   2.749   3.638  0.00  0.00    +0.383 N 
ATOM     37  H   UNL     1       3.819   3.403   3.006  0.00  0.00    -0.082 HD
ENDBRANCH  30  36
ENDBRANCH  29  30
ENDBRANCH  28  29
ENDBRANCH   8  28
TORSDOF 10
