REMARK  Name = ZINC39996511
REMARK  6 active torsions:
REMARK  status: ('A' for Active; 'I' for Inactive)
REMARK    1  A    between atoms: C_1  and  C_2
REMARK    2  A    between atoms: C_4  and  C_23
REMARK    3  A    between atoms: C_5  and  C_22
REMARK    4  A    between atoms: C_6  and  C_8
REMARK    5  A    between atoms: N_10  and  C_11
REMARK    6  A    between atoms: C_23  and  C_25
REMARK                            x       y       z     vdW  Elec       q    Type
REMARK                         _______ _______ _______ _____ _____    ______ ____
ROOT
ATOM      1  C   UNL     1       0.399  -1.715   2.815  0.00  0.00    +0.266 C 
ATOM      2  O   UNL     1      -0.475  -2.353   3.368  0.00  0.00    -0.268 OA
ATOM      3  N   UNL     1       1.633  -1.655   3.355  0.00  0.00    -0.279 N 
ATOM      4  H   UNL     1       2.307  -1.080   2.959  0.00  0.00    +0.155 HD
ENDROOT
BRANCH   3   5
ATOM      5  C   UNL     1       1.940  -2.420   4.485  0.00  0.00    +0.056 A 
ATOM      6  C   UNL     1       1.228  -3.581   4.754  0.00  0.00    +0.074 A 
ATOM      7  C   UNL     1       1.533  -4.340   5.872  0.00  0.00    +0.164 A 
ATOM      8  C   UNL     1       2.555  -3.938   6.725  0.00  0.00    +0.164 A 
ATOM      9  C   UNL     1       3.265  -2.776   6.456  0.00  0.00    +0.071 A 
ATOM     10  C   UNL     1       2.964  -2.022   5.337  0.00  0.00    +0.066 A 
ATOM     11 CL   UNL     1       3.860  -0.574   4.999  0.00  0.00    -0.081 Cl
ATOM     12  O   UNL     1       2.875  -4.674   7.825  0.00  0.00    -0.485 OA
ATOM     13  C   UNL     1       1.902  -5.627   8.266  0.00  0.00    +0.270 C 
ATOM     14  C   UNL     1       1.402  -6.406   7.042  0.00  0.00    +0.270 C 
ATOM     15  O   UNL     1       0.823  -5.473   6.124  0.00  0.00    -0.485 OA
ENDBRANCH   3   5
BRANCH   1  20
ATOM     16  C   UNL     1       0.336   1.773  -0.279  0.00  0.00    +0.038 C 
ATOM     17  C   UNL     1       0.313   0.244  -0.312  0.00  0.00    +0.137 C 
ATOM     18  C   UNL     1      -1.113  -0.259  -0.256  0.00  0.00    +0.024 C 
ATOM     19  C   UNL     1      -1.198  -1.002   0.870  0.00  0.00    -0.012 C 
ATOM     20  C   UNL     1       0.108  -1.003   1.543  0.00  0.00    +0.124 C 
ATOM     21  N   UNL     1       0.974  -0.299   0.881  0.00  0.00    -0.271 NA
ATOM     22  C   UNL     1      -2.433  -1.715   1.356  0.00  0.00    +0.046 C 
BRANCH  18  23
ATOM     23  C   UNL     1      -2.179   0.005  -1.221  0.00  0.00    +0.159 C 
ATOM     24  O   UNL     1      -3.308  -0.378  -0.997  0.00  0.00    -0.293 OA
ATOM     25  C   UNL     1      -1.875   0.754  -2.494  0.00  0.00    +0.091 C 
ENDBRANCH  18  23
ENDBRANCH   1  20
TORSDOF 3
