REMARK  Name = ZINC17304022
REMARK  6 active torsions:
REMARK  status: ('A' for Active; 'I' for Inactive)
REMARK    1  A    between atoms: C_1  and  C_2
REMARK    2  A    between atoms: C_2  and  C_4
REMARK    3  A    between atoms: C_2  and  S_17
REMARK    4  A    between atoms: C_4  and  N_6
REMARK    5  A    between atoms: S_17  and  C_18
REMARK    6  A    between atoms: C_21  and  N_24
REMARK                            x       y       z     vdW  Elec       q    Type
REMARK                         _______ _______ _______ _____ _____    ______ ____
ROOT
ATOM      1  C   UNL     1      -1.683  -0.384   0.090  0.00  0.00    +0.252 C 
ATOM      2  O   UNL     1      -2.276  -0.515   1.143  0.00  0.00    -0.272 OA
ENDROOT
BRANCH   1   3
ATOM      3  N   UNL     1      -2.332  -0.533  -1.061  0.00  0.00    -0.146 NA
ATOM      4  C   UNL     1      -3.649  -0.720  -1.063  0.00  0.00    +0.198 A 
ATOM      5  N   UNL     1      -4.423  -0.879   0.042  0.00  0.00    -0.326 N 
ATOM      6  H   UNL     1      -4.110  -0.875   0.960  0.00  0.00    +0.169 HD
ATOM      7  C   UNL     1      -5.741  -1.047  -0.369  0.00  0.00    +0.065 A 
ATOM      8  C   UNL     1      -6.930  -1.245   0.319  0.00  0.00    +0.028 A 
ATOM      9  C   UNL     1      -8.114  -1.381  -0.379  0.00  0.00    +0.002 A 
ATOM     10  C   UNL     1      -8.120  -1.320  -1.762  0.00  0.00    +0.002 A 
ATOM     11  C   UNL     1      -6.943  -1.123  -2.456  0.00  0.00    +0.028 A 
ATOM     12  C   UNL     1      -5.748  -0.985  -1.764  0.00  0.00    +0.065 A 
ATOM     13  N   UNL     1      -4.434  -0.776  -2.171  0.00  0.00    -0.326 N 
ATOM     14  H   UNL     1      -4.130  -0.688  -3.088  0.00  0.00    +0.169 HD
ENDBRANCH   1   3
BRANCH   1  16
ATOM     15  C   UNL     1      -0.032   1.461  -0.041  0.00  0.00    +0.029 C 
ATOM     16  C   UNL     1      -0.213  -0.052   0.089  0.00  0.00    +0.136 C 
BRANCH  16  17
ATOM     17  S   UNL     1       0.536  -0.620   1.640  0.00  0.00    -0.113 S 
BRANCH  17  18
ATOM     18  C   UNL     1       0.495  -2.377   1.515  0.00  0.00    +0.009 A 
ATOM     19  C   UNL     1       0.073  -2.982   0.337  0.00  0.00    +0.017 A 
ATOM     20  C   UNL     1       0.043  -4.359   0.243  0.00  0.00    +0.034 A 
ATOM     21  C   UNL     1       0.432  -5.137   1.318  0.00  0.00    +0.126 A 
ATOM     22  C   UNL     1       0.853  -4.538   2.492  0.00  0.00    +0.034 A 
ATOM     23  C   UNL     1       0.892  -3.162   2.591  0.00  0.00    +0.017 A 
BRANCH  21  24
ATOM     24  N   UNL     1       0.399  -6.613   1.213  0.00  0.00    +0.056 N 
ATOM     25  O   UNL     1       0.030  -7.137   0.188  0.00  0.00    -0.126 OA
ATOM     26  O   UNL     1       0.739  -7.294   2.152  0.00  0.00    -0.126 OA
ENDBRANCH  21  24
ENDBRANCH  17  18
ENDBRANCH  16  17
ENDBRANCH   1  16
TORSDOF 5
