REMARK  Name = ZINC05002372
REMARK  8 active torsions:
REMARK  status: ('A' for Active; 'I' for Inactive)
REMARK    1  A    between atoms: C_1  and  C_2
REMARK    2  A    between atoms: N_4  and  C_5
REMARK    3  A    between atoms: C_5  and  C_7
REMARK    4  A    between atoms: C_5  and  C_14
REMARK    5  A    between atoms: C_7  and  C_8
REMARK    6  A    between atoms: N_16  and  C_17
REMARK    7  A    between atoms: N_20  and  C_23
REMARK    8  A    between atoms: C_24  and  N_28
REMARK                            x       y       z     vdW  Elec       q    Type
REMARK                         _______ _______ _______ _____ _____    ______ ____
ROOT
ATOM      1  C   UNL     1       4.238   4.841  -1.392  0.00  0.00    +0.234 C 
ATOM      2  O   UNL     1       4.319   6.042  -1.540  0.00  0.00    -0.274 OA
ATOM      3  N   UNL     1       5.356   4.103  -1.247  0.00  0.00    -0.311 N 
ATOM      4  H   UNL     1       5.291   3.142  -1.129  0.00  0.00    +0.149 HD
ENDROOT
BRANCH   3   5
ATOM      5  C   UNL     1       6.670   4.751  -1.269  0.00  0.00    +0.076 C 
ATOM      6  C   UNL     1       7.140   4.906  -2.717  0.00  0.00    +0.041 C 
ATOM      7  C   UNL     1       8.539   5.526  -2.731  0.00  0.00    +0.108 C 
ATOM      8  N   UNL     1       9.466   4.666  -1.985  0.00  0.00    -0.315 N 
ATOM      9  C   UNL     1       9.060   4.542  -0.579  0.00  0.00    +0.108 C 
ATOM     10  C   UNL     1       7.678   3.890  -0.501  0.00  0.00    +0.041 C 
BRANCH   8  11
ATOM     11  C   UNL     1      10.771   5.133  -2.087  0.00  0.00    +0.130 A 
ATOM     12  C   UNL     1      11.755   4.314  -2.634  0.00  0.00    +0.164 A 
ATOM     13  C   UNL     1      13.050   4.792  -2.730  0.00  0.00    +0.037 A 
ATOM     14  C   UNL     1      13.318   6.076  -2.275  0.00  0.00    +0.020 A 
ATOM     15  C   UNL     1      12.293   6.833  -1.744  0.00  0.00    +0.084 A 
ATOM     16  N   UNL     1      11.009   6.399  -1.639  0.00  0.00    -0.348 N 
ATOM     17  H   UNL     1      10.264   6.987  -1.246  0.00  0.00    +0.167 HD
BRANCH  12  18
ATOM     18  N   UNL     1      11.450   3.067  -3.065  0.00  0.00    +0.060 N 
ATOM     19  O   UNL     1      12.333   2.321  -3.448  0.00  0.00    -0.126 OA
ATOM     20  O   UNL     1      10.291   2.691  -3.071  0.00  0.00    -0.126 OA
ENDBRANCH  12  18
ENDBRANCH   8  11
ENDBRANCH   3   5
BRANCH   1  21
ATOM     21  C   UNL     1       2.887   4.175  -1.369  0.00  0.00    +0.163 C 
BRANCH  21  25
ATOM     22  C   UNL     1       0.649   7.182  -2.147  0.00  0.00    +0.109 C 
ATOM     23  C   UNL     1       1.665   6.279  -1.496  0.00  0.00    +0.211 C 
ATOM     24  O   UNL     1       2.272   6.657  -0.517  0.00  0.00    -0.276 OA
ATOM     25  N   UNL     1       1.899   5.052  -2.002  0.00  0.00    -0.304 N 
ATOM     26  H   UNL     1       1.413   4.750  -2.786  0.00  0.00    +0.149 HD
ENDBRANCH  21  25
BRANCH  21  27
ATOM     27  C   UNL     1       2.475   3.905   0.079  0.00  0.00    +0.067 C 
BRANCH  27  28
ATOM     28  C   UNL     1       1.183   3.129   0.098  0.00  0.00    -0.045 A 
ATOM     29  C   UNL     1       1.206   1.747   0.090  0.00  0.00    +0.004 A 
ATOM     30  C   UNL     1       0.021   1.036   0.108  0.00  0.00    +0.000 A 
ATOM     31  C   UNL     1      -1.187   1.706   0.127  0.00  0.00    +0.000 A 
ATOM     32  C   UNL     1      -1.210   3.089   0.140  0.00  0.00    +0.000 A 
ATOM     33  C   UNL     1      -0.025   3.800   0.124  0.00  0.00    +0.004 A 
ENDBRANCH  27  28
ENDBRANCH  21  27
ENDBRANCH   1  21
TORSDOF 7
