REMARK  Name = ZINC66411988
REMARK  9 active torsions:
REMARK  status: ('A' for Active; 'I' for Inactive)
REMARK    1  A    between atoms: C_1  and  C_2
REMARK    2  A    between atoms: C_5  and  C_30
REMARK    3  A    between atoms: N_8  and  C_10
REMARK    4  A    between atoms: C_13  and  C_19
REMARK    5  A    between atoms: C_15  and  N_16
REMARK    6  A    between atoms: N_21  and  C_22
REMARK    7  A    between atoms: N_25  and  C_27
REMARK    8  A    between atoms: C_27  and  C_28
REMARK    9  A    between atoms: C_27  and  C_29
REMARK                            x       y       z     vdW  Elec       q    Type
REMARK                         _______ _______ _______ _____ _____    ______ ____
ROOT
ATOM      1  C   UNL     1       2.756   0.598   2.189  0.00  0.00    +0.060 A 
ATOM      2  C   UNL     1       2.717   1.990   2.203  0.00  0.00    +0.026 A 
ATOM      3  C   UNL     1       3.312   2.686   3.229  0.00  0.00    +0.015 A 
ATOM      4  C   UNL     1       3.957   1.995   4.259  0.00  0.00    +0.039 A 
ATOM      5  C   UNL     1       3.995   0.598   4.242  0.00  0.00    +0.047 A 
ATOM      6  C   UNL     1       3.393  -0.093   3.215  0.00  0.00    +0.148 A 
ENDROOT
BRANCH   1  12
ATOM      7  C   UNL     1      -0.019   1.526   0.010  0.00  0.00    +0.009 C 
ATOM      8  C   UNL     1       0.002  -0.004   0.002  0.00  0.00    +0.003 C 
ATOM      9  C   UNL     1       0.720  -0.498  -1.256  0.00  0.00    +0.009 C 
ATOM     10  C   UNL     1       2.145   0.059  -1.285  0.00  0.00    +0.003 C 
ATOM     11  C   UNL     1       2.912  -0.448  -0.060  0.00  0.00    +0.108 C 
ATOM     12  N   UNL     1       2.153  -0.103   1.150  0.00  0.00    -0.328 N 
ATOM     13  C   UNL     1       0.744  -0.512   1.242  0.00  0.00    +0.108 C 
ATOM     14  C   UNL     1       2.850  -0.408  -2.559  0.00  0.00    +0.009 C 
ENDBRANCH   1  12
BRANCH   4  15
ATOM     15  C   UNL     1       4.597   2.738   5.361  0.00  0.00    +0.248 C 
ATOM     16  O   UNL     1       5.158   2.135   6.256  0.00  0.00    -0.270 OA
ATOM     17  N   UNL     1       4.560   4.085   5.375  0.00  0.00    -0.279 N 
ATOM     18  H   UNL     1       4.113   4.566   4.661  0.00  0.00    +0.155 HD
BRANCH  17  19
ATOM     19  C   UNL     1       5.171   4.795   6.426  0.00  0.00    +0.072 A 
ATOM     20  C   UNL     1       5.854   4.232   7.515  0.00  0.00    +0.157 A 
ATOM     21  N   UNL     1       6.280   5.205   8.280  0.00  0.00    -0.178 NA
ATOM     22  N   UNL     1       5.886   6.421   7.708  0.00  0.00    -0.267 N 
ATOM     23  C   UNL     1       5.208   6.145   6.564  0.00  0.00    +0.132 A 
BRANCH  22  24
ATOM     24  C   UNL     1       6.160   7.756   8.247  0.00  0.00    +0.101 C 
ATOM     25  C   UNL     1       7.423   8.320   7.592  0.00  0.00    +0.032 C 
ATOM     26  C   UNL     1       4.976   8.678   7.951  0.00  0.00    +0.032 C 
ENDBRANCH  22  24
ENDBRANCH  17  19
ENDBRANCH   4  15
BRANCH   6  27
ATOM     27  N   UNL     1       3.427  -1.573   3.200  0.00  0.00    +0.058 N 
ATOM     28  O   UNL     1       3.980  -2.174   4.091  0.00  0.00    -0.126 OA
ATOM     29  O   UNL     1       2.903  -2.180   2.296  0.00  0.00    -0.126 OA
ENDBRANCH   6  27
TORSDOF 5
