REMARK  Name = ZINC06671578
REMARK  8 active torsions:
REMARK  status: ('A' for Active; 'I' for Inactive)
REMARK    1  A    between atoms: C_1  and  C_2
REMARK    2  A    between atoms: C_2  and  C_3
REMARK    3  A    between atoms: C_3  and  C_5
REMARK    4  A    between atoms: C_3  and  N_6
REMARK    5  A    between atoms: C_11  and  C_14
REMARK    6  A    between atoms: C_14  and  C_15
REMARK    7  A    between atoms: N_17  and  C_18
REMARK    8  A    between atoms: C_20  and  N_25
REMARK                            x       y       z     vdW  Elec       q    Type
REMARK                         _______ _______ _______ _____ _____    ______ ____
ROOT
ATOM      1  C   UNL     1      -7.118   2.017  -0.976  0.00  0.00    +0.219 C 
ATOM      2  O   UNL     1      -6.371   2.731  -1.611  0.00  0.00    -0.275 OA
ATOM      3  N   UNL     1      -8.303   1.645  -1.499  0.00  0.00    -0.284 N 
ATOM      4  H   UNL     1      -8.871   1.023  -1.019  0.00  0.00    +0.155 HD
ENDROOT
BRANCH   3   5
ATOM      5  C   UNL     1      -8.714   2.158  -2.735  0.00  0.00    +0.054 A 
ATOM      6  C   UNL     1      -7.779   2.414  -3.728  0.00  0.00    +0.057 A 
ATOM      7  C   UNL     1      -8.187   2.919  -4.947  0.00  0.00    +0.128 A 
ATOM      8  C   UNL     1      -9.527   3.172  -5.178  0.00  0.00    +0.034 A 
ATOM      9  C   UNL     1     -10.462   2.919  -4.192  0.00  0.00    +0.024 A 
ATOM     10  C   UNL     1     -10.060   2.408  -2.972  0.00  0.00    +0.062 A 
ATOM     11 CL   UNL     1     -11.236   2.084  -1.736  0.00  0.00    -0.082 Cl
BRANCH   7  12
ATOM     12  N   UNL     1      -7.190   3.192  -6.006  0.00  0.00    +0.056 N 
ATOM     13  O   UNL     1      -6.018   2.972  -5.804  0.00  0.00    -0.126 OA
ATOM     14  O   UNL     1      -7.547   3.635  -7.073  0.00  0.00    -0.126 OA
ENDBRANCH   7  12
ENDBRANCH   3   5
BRANCH   1  15
ATOM     15  C   UNL     1      -6.720   1.545   0.399  0.00  0.00    +0.120 C 
BRANCH  15  21
ATOM     16  N   UNL     1      -2.071  -0.188   1.233  0.00  0.00    -0.260 NA
ATOM     17  C   UNL     1      -3.142   0.555   1.230  0.00  0.00    +0.157 C 
ATOM     18  N   UNL     1      -3.874   1.001   2.313  0.00  0.00    -0.264 N 
ATOM     19  C   UNL     1      -4.951   1.755   2.178  0.00  0.00    +0.232 C 
ATOM     20  O   UNL     1      -5.589   2.144   3.133  0.00  0.00    -0.274 OA
ATOM     21  C   UNL     1      -5.340   2.105   0.751  0.00  0.00    +0.149 C 
ATOM     22  S   UNL     1      -4.005   1.241  -0.176  0.00  0.00    -0.077 S 
ATOM     23  H   UNL     1      -3.587   0.751   3.206  0.00  0.00    +0.157 HD
BRANCH  16  24
ATOM     24  C   UNL     1      -1.429  -0.552  -0.032  0.00  0.00    +0.104 C 
ATOM     25  C   UNL     1      -1.415  -2.075  -0.176  0.00  0.00    +0.032 C 
BRANCH  24  27
ATOM     26  C   UNL     1      -0.012   1.505  -0.028  0.00  0.00    +0.006 C 
ATOM     27  C   UNL     1       0.007  -0.025  -0.046  0.00  0.00    +0.023 C 
ENDBRANCH  24  27
ENDBRANCH  16  24
ENDBRANCH  15  21
ENDBRANCH   1  15
TORSDOF 6
