REMARK  Name = ZINC04558640
REMARK  11 active torsions:
REMARK  status: ('A' for Active; 'I' for Inactive)
REMARK    1  A    between atoms: C_1  and  N_2
REMARK    2  A    between atoms: N_2  and  C_3
REMARK    3  A    between atoms: N_6  and  C_7
REMARK    4  A    between atoms: C_7  and  C_9
REMARK    5  A    between atoms: C_7  and  N_13
REMARK    6  A    between atoms: N_13  and  C_14
REMARK    7  A    between atoms: C_14  and  N_16
REMARK    8  A    between atoms: N_16  and  C_17
REMARK    9  A    between atoms: C_20  and  O_26
REMARK   10  A    between atoms: C_22  and  N_23
REMARK   11  A    between atoms: O_26  and  C_27
REMARK                            x       y       z     vdW  Elec       q    Type
REMARK                         _______ _______ _______ _____ _____    ______ ____
ROOT
ATOM      1  C   UNL     1      -3.080   0.356  -2.305  0.00  0.00    +0.136 C 
ATOM      2  S   UNL     1      -2.804  -1.140  -1.520  0.00  0.00    -0.019 S 
ENDROOT
BRANCH   1   3
ATOM      3  N   UNL     1      -3.002   1.507  -1.609  0.00  0.00    -0.305 N 
ATOM      4  H   UNL     1      -3.158   2.354  -2.054  0.00  0.00    +0.150 HD
BRANCH   3   5
ATOM      5  C   UNL     1      -2.681   1.478  -0.180  0.00  0.00    +0.212 C 
BRANCH   5  11
ATOM      6  C   UNL     1       1.974   0.421   0.793  0.00  0.00    +0.133 C 
ATOM      7  N   UNL     1       0.934   1.406   0.485  0.00  0.00    -0.292 N 
ATOM      8  C   UNL     1       1.281   2.825   0.368  0.00  0.00    +0.133 C 
ATOM      9  C   UNL     1      -0.341   1.007   0.308  0.00  0.00    +0.303 C 
ATOM     10  O   UNL     1      -0.628  -0.170   0.405  0.00  0.00    -0.253 OA
ATOM     11  N   UNL     1      -1.296   1.913   0.018  0.00  0.00    -0.277 N 
ATOM     12  H   UNL     1      -1.066   2.852  -0.059  0.00  0.00    +0.152 HD
ENDBRANCH   5  11
BRANCH   5  13
ATOM     13  C   UNL     1      -3.623   2.420   0.573  0.00  0.00    +0.225 C 
ATOM     14 CL   UNL     1      -3.424   4.098  -0.054  0.00  0.00    -0.080 Cl
ATOM     15 CL   UNL     1      -5.328   1.885   0.329  0.00  0.00    -0.080 Cl
ATOM     16 CL   UNL     1      -3.228   2.385   2.332  0.00  0.00    -0.080 Cl
ENDBRANCH   5  13
ENDBRANCH   3   5
ENDBRANCH   1   3
BRANCH   1  17
ATOM     17  N   UNL     1      -3.375   0.382  -3.620  0.00  0.00    -0.295 N 
ATOM     18  H   UNL     1      -3.614   1.220  -4.047  0.00  0.00    +0.154 HD
BRANCH  17  19
ATOM     19  C   UNL     1      -3.338  -0.801  -4.370  0.00  0.00    +0.063 A 
ATOM     20  C   UNL     1      -2.259  -1.667  -4.248  0.00  0.00    +0.029 A 
ATOM     21  C   UNL     1      -2.223  -2.832  -4.988  0.00  0.00    +0.047 A 
ATOM     22  C   UNL     1      -3.264  -3.138  -5.853  0.00  0.00    +0.122 A 
ATOM     23  C   UNL     1      -4.341  -2.274  -5.975  0.00  0.00    +0.080 A 
ATOM     24  C   UNL     1      -4.382  -1.110  -5.232  0.00  0.00    +0.151 A 
BRANCH  24  25
ATOM     25  N   UNL     1      -5.535  -0.191  -5.358  0.00  0.00    +0.058 N 
ATOM     26  O   UNL     1      -6.411  -0.421  -6.171  0.00  0.00    -0.126 OA
ATOM     27  O   UNL     1      -5.607   0.796  -4.648  0.00  0.00    -0.126 OA
ENDBRANCH  24  25
BRANCH  22  28
ATOM     28  O   UNL     1      -3.227  -4.286  -6.581  0.00  0.00    -0.495 OA
ATOM     29  C   UNL     1      -2.087  -5.130  -6.405  0.00  0.00    +0.277 C 
ENDBRANCH  22  28
ENDBRANCH  17  19
ENDBRANCH   1  17
TORSDOF 8
