REMARK  Name = ZINC03073370
REMARK  9 active torsions:
REMARK  status: ('A' for Active; 'I' for Inactive)
REMARK    1  A    between atoms: C_1  and  C_2
REMARK    2  A    between atoms: C_2  and  O_3
REMARK    3  A    between atoms: O_3  and  C_4
REMARK    4  A    between atoms: C_4  and  C_6
REMARK    5  A    between atoms: C_7  and  N_32
REMARK    6  A    between atoms: C_11  and  C_13
REMARK    7  A    between atoms: C_16  and  C_18
REMARK    8  A    between atoms: C_28  and  C_30
REMARK    9  A    between atoms: C_28  and  C_31
REMARK                            x       y       z     vdW  Elec       q    Type
REMARK                         _______ _______ _______ _____ _____    ______ ____
ROOT
ATOM      1  C   UNL     1      -1.714   2.037   3.771  0.00  0.00    +0.108 C 
ATOM      2  C   UNL     1      -0.505   1.518   3.434  0.00  0.00    +0.195 C 
ATOM      3  O   UNL     1      -0.094   1.480   2.158  0.00  0.00    -0.446 OA
ATOM      4  C   UNL     1      -0.999   1.535   1.161  0.00  0.00    +0.115 C 
ATOM      5  C   UNL     1      -2.223   2.055   1.355  0.00  0.00    +0.048 C 
ATOM      6  C   UNL     1      -2.630   2.581   2.710  0.00  0.00    +0.133 C 
ATOM      7  C   UNL     1      -3.163   2.123   0.308  0.00  0.00    +0.164 C 
ATOM      8  O   UNL     1      -4.266   2.583   0.526  0.00  0.00    -0.292 OA
ATOM      9  C   UNL     1      -2.826   1.636  -1.075  0.00  0.00    +0.086 C 
ATOM     10  C   UNL     1      -1.315   1.769  -1.292  0.00  0.00    -0.021 C 
ATOM     11  C   UNL     1      -0.596   0.991  -0.189  0.00  0.00    +0.081 C 
ATOM     12  C   UNL     1      -0.914   3.244  -1.225  0.00  0.00    +0.012 C 
ATOM     13  C   UNL     1      -0.936   1.195  -2.659  0.00  0.00    +0.012 C 
ENDROOT
BRANCH   6  14
ATOM     14  C   UNL     1      -2.548   4.086   2.708  0.00  0.00    +0.118 A 
ATOM     15  C   UNL     1      -3.575   4.928   2.933  0.00  0.00    +0.046 A 
ATOM     16  C   UNL     1      -3.062   6.238   2.840  0.00  0.00    +0.050 A 
ATOM     17  C   UNL     1      -1.739   6.121   2.552  0.00  0.00    +0.135 A 
ATOM     18  O   UNL     1      -1.441   4.810   2.474  0.00  0.00    -0.459 OA
BRANCH  17  19
ATOM     19  C   UNL     1      -0.791   7.238   2.357  0.00  0.00    +0.017 A 
ATOM     20  C   UNL     1      -1.234   8.558   2.459  0.00  0.00    +0.012 A 
ATOM     21  C   UNL     1      -0.344   9.597   2.282  0.00  0.00    +0.016 A 
ATOM     22  C   UNL     1       0.984   9.332   1.991  0.00  0.00    +0.018 A 
ATOM     23  C   UNL     1       1.428   8.025   1.883  0.00  0.00    +0.016 A 
ATOM     24  C   UNL     1       0.548   6.978   2.063  0.00  0.00    +0.012 A 
ATOM     25 BR   UNL     1       2.196  10.762   1.742  0.00  0.00    -0.050 Br
ENDBRANCH  17  19
ENDBRANCH   6  14
BRANCH   2  26
ATOM     26  N   UNL     1       0.311   1.025   4.417  0.00  0.00    -0.329 N 
ATOM     27  H   UNL     1      -0.065   0.505   5.144  0.00  0.00    +0.145 HD
ATOM     28  H   UNL     1       1.265   1.196   4.386  0.00  0.00    +0.145 HD
ENDBRANCH   2  26
BRANCH   1  29
ATOM     29  C   UNL     1      -2.111   2.065   5.117  0.00  0.00    +0.341 C 
ATOM     30  O   UNL     1      -1.328   1.737   5.990  0.00  0.00    -0.245 OA
BRANCH  29  31
ATOM     31  O   UNL     1      -3.362   2.455   5.444  0.00  0.00    -0.462 OA
BRANCH  31  33
ATOM     32  C   UNL     1      -5.145   2.927   7.007  0.00  0.00    +0.048 C 
ATOM     33  C   UNL     1      -3.698   2.460   6.833  0.00  0.00    +0.229 C 
ENDBRANCH  31  33
ENDBRANCH  29  31
ENDBRANCH   1  29
TORSDOF 6
