REMARK  Name = ZINC34482161
REMARK  2 active torsions:
REMARK  status: ('A' for Active; 'I' for Inactive)
REMARK    1  A    between atoms: C_1  and  C_2
REMARK    2  A    between atoms: C_12  and  O_16
REMARK                            x       y       z     vdW  Elec       q    Type
REMARK                         _______ _______ _______ _____ _____    ______ ____
ROOT
ATOM      1  C   UNL     1      -0.018   1.503   0.010  0.00  0.00    +0.048 C 
ATOM      2  C   UNL     1       0.002  -0.004   0.002  0.00  0.00    +0.001 C 
ATOM      3  C   UNL     1       0.005  -0.662  -1.164  0.00  0.00    +0.060 C 
ATOM      4  C   UNL     1       0.026  -2.139  -1.197  0.00  0.00    +0.203 C 
ATOM      5  O   UNL     1       0.028  -2.724  -2.264  0.00  0.00    -0.286 OA
ATOM      6  C   UNL     1       0.043  -2.902   0.058  0.00  0.00    +0.098 A 
ATOM      7  C   UNL     1       0.039  -2.221   1.269  0.00  0.00    +0.054 A 
ATOM      8  C   UNL     1       0.059  -3.197   2.285  0.00  0.00    -0.013 A 
ATOM      9  C   UNL     1       0.075  -4.412   1.683  0.00  0.00    +0.049 A 
ATOM     10  N   UNL     1       0.065  -4.238   0.340  0.00  0.00    -0.353 N 
ATOM     11  H   UNL     1       0.072  -4.950  -0.319  0.00  0.00    +0.166 HD
ATOM     12  C   UNL     1       0.098  -5.509   2.728  0.00  0.00    +0.161 C 
ATOM     13  C   UNL     1       0.529  -4.809   4.035  0.00  0.00    +0.042 C 
ATOM     14  C   UNL     1       0.069  -3.356   3.790  0.00  0.00    +0.040 C 
ATOM     15  C   UNL     1       0.024  -0.745   1.280  0.00  0.00    +0.191 C 
ATOM     16  O   UNL     1       0.026  -0.142   2.335  0.00  0.00    -0.287 OA
ENDROOT
BRANCH  12  17
ATOM     17  O   UNL     1       1.042  -6.518   2.368  0.00  0.00    -0.386 OA
ATOM     18  H   UNL     1       1.100  -7.247   3.001  0.00  0.00    +0.210 HD
ENDBRANCH  12  17
TORSDOF 1
