REMARK  Name = ZINC41076922
REMARK  8 active torsions:
REMARK  status: ('A' for Active; 'I' for Inactive)
REMARK    1  A    between atoms: C_1  and  C_2
REMARK    2  A    between atoms: C_2  and  N_3
REMARK    3  A    between atoms: N_3  and  C_4
REMARK    4  A    between atoms: C_4  and  C_5
REMARK    5  A    between atoms: C_14  and  C_18
REMARK    6  A    between atoms: C_16  and  C_17
REMARK    7  A    between atoms: N_21  and  C_22
REMARK    8  A    between atoms: C_27  and  C_28
REMARK                            x       y       z     vdW  Elec       q    Type
REMARK                         _______ _______ _______ _____ _____    ______ ____
ROOT
ATOM      1  N   UNL     1      -1.492  -0.642   0.093  0.00  0.00    -0.281 N 
ATOM      2  C   UNL     1      -2.223  -1.083   1.136  0.00  0.00    +0.307 C 
ATOM      3  O   UNL     1      -3.362  -1.470   0.961  0.00  0.00    -0.252 OA
ATOM      4  N   UNL     1      -1.690  -1.095   2.375  0.00  0.00    -0.269 N 
ATOM      5  H   UNL     1      -0.758  -0.862   2.504  0.00  0.00    +0.156 HD
ENDROOT
BRANCH   4   6
ATOM      6  C   UNL     1      -2.483  -1.445   3.474  0.00  0.00    +0.039 A 
ATOM      7  C   UNL     1      -3.862  -1.286   3.415  0.00  0.00    +0.024 A 
ATOM      8  C   UNL     1      -4.642  -1.632   4.501  0.00  0.00    +0.003 A 
ATOM      9  C   UNL     1      -4.053  -2.136   5.646  0.00  0.00    +0.020 A 
ATOM     10  C   UNL     1      -2.680  -2.295   5.708  0.00  0.00    +0.046 A 
ATOM     11  C   UNL     1      -1.894  -1.956   4.622  0.00  0.00    -0.011 A 
ATOM     12  C   UNL     1      -0.399  -2.136   4.687  0.00  0.00    +0.047 C 
ATOM     13 CL   UNL     1      -1.944  -2.927   7.147  0.00  0.00    -0.083 Cl
ENDBRANCH   4   6
BRANCH   1  15
ATOM     14  C   UNL     1      -0.117   1.345   0.472  0.00  0.00    +0.024 C 
ATOM     15  C   UNL     1      -0.119  -0.176   0.305  0.00  0.00    +0.106 C 
ENDBRANCH   1  15
BRANCH   1  16
ATOM     16  C   UNL     1      -2.071  -0.629  -1.253  0.00  0.00    +0.145 C 
BRANCH  16  17
ATOM     17  C   UNL     1      -1.909  -1.988  -1.882  0.00  0.00    -0.016 A 
ATOM     18  C   UNL     1      -2.898  -2.912  -1.800  0.00  0.00    +0.076 A 
ATOM     19  C   UNL     1      -2.736  -4.182  -2.394  0.00  0.00    +0.249 A 
ATOM     20  O   UNL     1      -3.639  -4.997  -2.308  0.00  0.00    -0.268 OA
ATOM     21  N   UNL     1      -1.612  -4.515  -3.051  0.00  0.00    -0.322 N 
ATOM     22  H   UNL     1      -1.534  -5.397  -3.447  0.00  0.00    +0.169 HD
ATOM     23  C   UNL     1      -0.569  -3.622  -3.171  0.00  0.00    +0.052 A 
ATOM     24  C   UNL     1      -0.683  -2.339  -2.601  0.00  0.00    +0.004 A 
ATOM     25  C   UNL     1       0.370  -1.427  -2.724  0.00  0.00    +0.013 A 
ATOM     26  C   UNL     1       1.501  -1.785  -3.402  0.00  0.00    -0.050 A 
ATOM     27  C   UNL     1       1.615  -3.047  -3.969  0.00  0.00    +0.008 A 
ATOM     28  C   UNL     1       0.594  -3.966  -3.851  0.00  0.00    -0.026 A 
ATOM     29  C   UNL     1       0.731  -5.332  -4.471  0.00  0.00    +0.046 C 
ATOM     30  C   UNL     1       2.635  -0.801  -3.535  0.00  0.00    +0.044 C 
ENDBRANCH  16  17
ENDBRANCH   1  16
TORSDOF 4
