REMARK  Name = ZINC20611256
REMARK  4 active torsions:
REMARK  status: ('A' for Active; 'I' for Inactive)
REMARK    1  A    between atoms: C_1  and  O_2
REMARK    2  A    between atoms: O_2  and  C_3
REMARK    3  A    between atoms: C_13  and  C_18
REMARK    4  A    between atoms: N_24  and  C_27
REMARK                            x       y       z     vdW  Elec       q    Type
REMARK                         _______ _______ _______ _____ _____    ______ ____
ROOT
ATOM      1  C   UNL     1       0.606  -0.608  -1.056  0.00  0.00    +0.121 A 
ATOM      2  C   UNL     1       1.174   0.167  -2.065  0.00  0.00    +0.047 A 
ATOM      3  C   UNL     1       1.789  -0.428  -3.143  0.00  0.00    +0.030 A 
ATOM      4  C   UNL     1       1.849  -1.815  -3.233  0.00  0.00    +0.047 A 
ATOM      5  C   UNL     1       1.276  -2.602  -2.215  0.00  0.00    +0.006 A 
ATOM      6  C   UNL     1       0.659  -1.985  -1.124  0.00  0.00    +0.056 A 
ATOM      7  C   UNL     1       1.506  -3.985  -2.608  0.00  0.00    -0.022 A 
ATOM      8  C   UNL     1       2.172  -3.970  -3.781  0.00  0.00    +0.011 A 
ATOM      9  N   UNL     1       2.384  -2.679  -4.168  0.00  0.00    -0.359 N 
ATOM     10  H   UNL     1       2.841  -2.409  -4.979  0.00  0.00    +0.166 HD
ATOM     11  C   UNL     1       2.594  -5.229  -4.500  0.00  0.00    +0.018 C 
ATOM     12  N   UNL     1       2.549  -6.350  -3.548  0.00  0.00    +0.388 N 
ATOM     13  C   UNL     1       1.234  -6.411  -2.896  0.00  0.00    -0.076 C 
ATOM     14  C   UNL     1       1.104  -5.252  -1.896  0.00  0.00    +0.018 C 
ATOM     15  H   UNL     1       2.718  -7.214  -4.041  0.00  0.00    -0.084 HD
ATOM     16  H   UNL     1       3.264  -6.222  -2.848  0.00  0.00    -0.084 HD
ENDROOT
BRANCH  11  17
ATOM     17  C   UNL     1       3.996  -5.065  -5.029  0.00  0.00    +0.073 A 
ATOM     18  C   UNL     1       5.079  -4.923  -4.144  0.00  0.00    +0.260 A 
ATOM     19  N   UNL     1       6.325  -4.778  -4.637  0.00  0.00    -0.275 N 
ATOM     20  H   UNL     1       7.075  -4.679  -4.030  0.00  0.00    +0.173 HD
ATOM     21  C   UNL     1       6.537  -4.769  -5.966  0.00  0.00    +0.332 A 
ATOM     22  O   UNL     1       7.668  -4.637  -6.391  0.00  0.00    -0.246 OA
ATOM     23  N   UNL     1       5.515  -4.904  -6.831  0.00  0.00    -0.258 N 
ATOM     24  C   UNL     1       4.231  -5.059  -6.372  0.00  0.00    +0.262 A 
ATOM     25  O   UNL     1       3.210  -5.199  -7.243  0.00  0.00    -0.267 OA
ATOM     26  O   UNL     1       4.893  -4.930  -2.940  0.00  0.00    -0.267 OA
BRANCH  23  27
ATOM     27  C   UNL     1       5.776  -4.891  -8.273  0.00  0.00    +0.095 C 
ATOM     28  C   UNL     1       6.721  -6.039  -8.631  0.00  0.00    +0.025 C 
ATOM     29  C   UNL     1       6.993  -6.025 -10.136  0.00  0.00    +0.002 C 
ATOM     30  C   UNL     1       7.638  -4.694 -10.526  0.00  0.00    +0.000 C 
ATOM     31  C   UNL     1       6.692  -3.545 -10.168  0.00  0.00    +0.002 C 
ATOM     32  C   UNL     1       6.420  -3.559  -8.662  0.00  0.00    +0.025 C 
ENDBRANCH  23  27
ENDBRANCH  11  17
BRANCH   1  34
ATOM     33  C   UNL     1      -0.017   1.425   0.010  0.00  0.00    +0.277 C 
ATOM     34  O   UNL     1       0.002  -0.004   0.002  0.00  0.00    -0.495 OA
ENDBRANCH   1  34
TORSDOF 3
