REMARK  Name = ZINC61413269
REMARK  9 active torsions:
REMARK  status: ('A' for Active; 'I' for Inactive)
REMARK    1  A    between atoms: C_1  and  C_2
REMARK    2  A    between atoms: C_3  and  C_26
REMARK    3  A    between atoms: C_4  and  S_10
REMARK    4  A    between atoms: S_10  and  C_11
REMARK    5  A    between atoms: C_11  and  C_12
REMARK    6  A    between atoms: C_11  and  C_13
REMARK    7  A    between atoms: N_15  and  C_16
REMARK    8  A    between atoms: C_26  and  O_28
REMARK    9  A    between atoms: O_28  and  C_29
REMARK                            x       y       z     vdW  Elec       q    Type
REMARK                         _______ _______ _______ _____ _____    ______ ____
ROOT
ATOM      1  C   UNL     1      -1.921  -4.939  -0.179  0.00  0.00    +0.136 C 
ATOM      2  C   UNL     1      -1.049  -5.331  -1.374  0.00  0.00    +0.029 C 
ENDROOT
BRANCH   1   3
ATOM      3  C   UNL     1      -3.066  -5.910  -0.052  0.00  0.00    +0.230 C 
ATOM      4  O   UNL     1      -4.140  -5.650  -0.552  0.00  0.00    -0.274 OA
ATOM      5  N   UNL     1      -2.896  -7.068   0.616  0.00  0.00    -0.285 N 
ATOM      6  H   UNL     1      -2.019  -7.312   0.949  0.00  0.00    +0.155 HD
BRANCH   5   7
ATOM      7  C   UNL     1      -3.986  -7.919   0.829  0.00  0.00    +0.034 A 
ATOM      8  C   UNL     1      -5.262  -7.375   1.022  0.00  0.00    +0.024 A 
ATOM      9  C   UNL     1      -6.339  -8.178   1.231  0.00  0.00    +0.010 A 
ATOM     10  C   UNL     1      -6.178  -9.574   1.255  0.00  0.00    -0.018 A 
ATOM     11  C   UNL     1      -7.274 -10.428   1.468  0.00  0.00    +0.008 A 
ATOM     12  C   UNL     1      -7.084 -11.776   1.485  0.00  0.00    +0.001 A 
ATOM     13  C   UNL     1      -5.818 -12.325   1.294  0.00  0.00    +0.001 A 
ATOM     14  C   UNL     1      -4.734 -11.530   1.085  0.00  0.00    +0.008 A 
ATOM     15  C   UNL     1      -4.890 -10.133   1.060  0.00  0.00    -0.016 A 
ATOM     16  C   UNL     1      -3.794  -9.282   0.841  0.00  0.00    +0.031 A 
ENDBRANCH   5   7
ENDBRANCH   1   3
BRANCH   1  17
ATOM     17  S   UNL     1      -2.573  -3.265  -0.429  0.00  0.00    -0.092 S 
BRANCH  17  21
ATOM     18  C   UNL     1      -0.141   1.458  -0.733  0.00  0.00    +0.064 C 
ATOM     19  C   UNL     1      -0.091  -0.038  -0.558  0.00  0.00    +0.034 A 
ATOM     20  C   UNL     1      -1.253  -0.788  -0.584  0.00  0.00    +0.110 A 
ATOM     21  C   UNL     1      -1.139  -2.241  -0.409  0.00  0.00    +0.119 A 
ATOM     22  N   UNL     1       0.067  -2.769  -0.235  0.00  0.00    -0.186 NA
ATOM     23  C   UNL     1       1.152  -1.998  -0.219  0.00  0.00    +0.347 A 
ATOM     24  O   UNL     1       2.242  -2.521  -0.058  0.00  0.00    -0.245 OA
ATOM     25  N   UNL     1       1.090  -0.667  -0.381  0.00  0.00    -0.310 N 
ATOM     26  H   UNL     1       1.908  -0.147  -0.366  0.00  0.00    +0.170 HD
BRANCH  20  27
ATOM     27  C   UNL     1      -2.563  -0.149  -0.780  0.00  0.00    +0.343 C 
ATOM     28  O   UNL     1      -2.637   1.056  -0.922  0.00  0.00    -0.245 OA
BRANCH  27  29
ATOM     29  O   UNL     1      -3.683  -0.900  -0.801  0.00  0.00    -0.464 OA
ATOM     30  C   UNL     1      -4.921  -0.213  -0.996  0.00  0.00    +0.280 C 
ENDBRANCH  27  29
ENDBRANCH  20  27
ENDBRANCH  17  21
ENDBRANCH   1  17
TORSDOF 6
