REMARK  Name = ZINC10425513
REMARK  9 active torsions:
REMARK  status: ('A' for Active; 'I' for Inactive)
REMARK    1  A    between atoms: C_1  and  C_2
REMARK    2  A    between atoms: C_2  and  N_3
REMARK    3  A    between atoms: N_3  and  C_4
REMARK    4  A    between atoms: C_4  and  C_5
REMARK    5  A    between atoms: N_7  and  C_8
REMARK    6  A    between atoms: C_11  and  N_14
REMARK    7  A    between atoms: C_15  and  C_17
REMARK    8  A    between atoms: C_18  and  C_20
REMARK    9  A    between atoms: C_25  and  C_29
REMARK                            x       y       z     vdW  Elec       q    Type
REMARK                         _______ _______ _______ _____ _____    ______ ____
ROOT
ATOM      1  C   UNL     1      -0.171   9.939   0.384  0.00  0.00    +0.204 C 
ENDROOT
BRANCH   1   2
ATOM      2  C   UNL     1      -0.149   8.432   0.381  0.00  0.00    +0.235 C 
ATOM      3  O   UNL     1       0.905   7.841   0.281  0.00  0.00    -0.274 OA
ATOM      4  N   UNL     1      -1.302   7.742   0.490  0.00  0.00    -0.284 N 
ATOM      5  H   UNL     1      -2.137   8.212   0.637  0.00  0.00    +0.155 HD
BRANCH   4   6
ATOM      6  C   UNL     1      -1.293   6.345   0.389  0.00  0.00    +0.034 A 
ATOM      7  C   UNL     1      -2.358   5.685  -0.211  0.00  0.00    +0.025 A 
ATOM      8  C   UNL     1      -2.349   4.308  -0.311  0.00  0.00    +0.025 A 
ATOM      9  C   UNL     1      -1.276   3.583   0.190  0.00  0.00    +0.033 A 
ATOM     10  C   UNL     1      -0.214   4.242   0.796  0.00  0.00    +0.025 A 
ATOM     11  C   UNL     1      -0.220   5.619   0.890  0.00  0.00    +0.025 A 
BRANCH   9  12
ATOM     12  N   UNL     1      -1.267   2.186   0.089  0.00  0.00    -0.286 N 
ATOM     13  C   UNL     1      -0.096   1.519   0.070  0.00  0.00    +0.214 C 
ATOM     14  O   UNL     1       0.950   2.131   0.030  0.00  0.00    -0.276 OA
ATOM     15  C   UNL     1      -0.087   0.012   0.090  0.00  0.00    +0.109 C 
ATOM     16  H   UNL     1      -2.104   1.698   0.034  0.00  0.00    +0.155 HD
ENDBRANCH   9  12
ENDBRANCH   4   6
ENDBRANCH   1   2
BRANCH   1  17
ATOM     17  N   UNL     1       1.197  10.447   0.254  0.00  0.00    -0.288 N 
ATOM     18  C   UNL     1       1.972  10.584   1.349  0.00  0.00    +0.267 C 
ATOM     19  O   UNL     1       3.071  11.096   1.256  0.00  0.00    -0.268 OA
BRANCH  18  20
ATOM     20  C   UNL     1       1.486  10.111   2.660  0.00  0.00    +0.144 A 
ATOM     21  C   UNL     1       2.124  10.274   3.857  0.00  0.00    +0.125 A 
ATOM     22  N   UNL     1       1.339   9.698   4.810  0.00  0.00    -0.306 N 
ATOM     23  C   UNL     1       1.482   9.568   6.163  0.00  0.00    +0.093 A 
ATOM     24  C   UNL     1       0.543   8.935   6.895  0.00  0.00    +0.021 A 
ATOM     25  C   UNL     1      -0.598   8.398   6.275  0.00  0.00    -0.046 A 
ATOM     26  C   UNL     1      -0.754   8.518   4.930  0.00  0.00    +0.050 A 
ATOM     27  C   UNL     1       0.236   9.184   4.176  0.00  0.00    +0.139 A 
ATOM     28  N   UNL     1       0.340   9.441   2.883  0.00  0.00    -0.223 NA
ATOM     29  C   UNL     1      -1.645   7.691   7.098  0.00  0.00    +0.044 C 
ENDBRANCH  18  20
BRANCH  17  31
ATOM     30  C   UNL     1       1.533  12.307  -1.298  0.00  0.00    +0.024 C 
ATOM     31  C   UNL     1       1.724  10.807  -1.065  0.00  0.00    +0.105 C 
ENDBRANCH  17  31
ENDBRANCH   1  17
TORSDOF 6
