REMARK  Name = ZINC08402254
REMARK  6 active torsions:
REMARK  status: ('A' for Active; 'I' for Inactive)
REMARK    1  A    between atoms: C_5  and  C_7
REMARK    2  A    between atoms: N_8  and  N_9
REMARK    3  A    between atoms: C_10  and  C_12
REMARK    4  A    between atoms: C_14  and  C_17
REMARK    5  A    between atoms: N_19  and  N_20
REMARK    6  A    between atoms: C_21  and  C_22
REMARK                            x       y       z     vdW  Elec       q    Type
REMARK                         _______ _______ _______ _____ _____    ______ ____
ROOT
ATOM      1  C   UNL     1      -0.961  -6.430  -0.026  0.00  0.00    +0.089 C 
ATOM      2  C   UNL     1      -2.305  -7.162  -0.018  0.00  0.00    +0.089 C 
ATOM      3  C   UNL     1      -1.453  -7.138  -1.290  0.00  0.00    +0.027 C 
ENDROOT
BRANCH   1   5
ATOM      4  N   UNL     1       0.165  -4.228  -0.024  0.00  0.00    -0.207 N 
ATOM      5  C   UNL     1      -0.989  -4.923  -0.017  0.00  0.00    +0.236 C 
ATOM      6  O   UNL     1      -2.051  -4.337  -0.002  0.00  0.00    -0.274 OA
ATOM      7  H   UNL     1       1.014  -4.697  -0.036  0.00  0.00    +0.177 HD
BRANCH   4   9
ATOM      8  C   UNL     1       1.250  -2.158  -0.023  0.00  0.00    +0.138 C 
ATOM      9  N   UNL     1       0.139  -2.827  -0.015  0.00  0.00    -0.188 NA
BRANCH   8  14
ATOM     10  C   UNL     1      -0.017   1.375   0.010  0.00  0.00    +0.002 A 
ATOM     11  C   UNL     1       1.170   2.087   0.002  0.00  0.00    +0.015 A 
ATOM     12  C   UNL     1       2.384   1.421  -0.014  0.00  0.00    +0.018 A 
ATOM     13  C   UNL     1       2.417   0.041  -0.022  0.00  0.00    +0.024 A 
ATOM     14  C   UNL     1       1.223  -0.683  -0.014  0.00  0.00    -0.004 A 
ATOM     15  C   UNL     1       0.002  -0.004   0.002  0.00  0.00    +0.009 A 
ATOM     16 BR   UNL     1       3.999   2.404  -0.024  0.00  0.00    -0.050 Br
ENDBRANCH   8  14
ENDBRANCH   4   9
ENDBRANCH   1   5
BRANCH   2  17
ATOM     17  C   UNL     1      -2.386  -8.461   0.741  0.00  0.00    +0.236 C 
ATOM     18  O   UNL     1      -1.408  -8.889   1.317  0.00  0.00    -0.274 OA
ATOM     19  N   UNL     1      -3.545  -9.147   0.781  0.00  0.00    -0.207 N 
ATOM     20  H   UNL     1      -4.327  -8.805   0.321  0.00  0.00    +0.177 HD
BRANCH  19  21
ATOM     21  N   UNL     1      -3.620 -10.355   1.487  0.00  0.00    -0.188 NA
ATOM     22  C   UNL     1      -4.736 -11.016   1.526  0.00  0.00    +0.138 C 
BRANCH  22  23
ATOM     23  C   UNL     1      -4.815 -12.287   2.269  0.00  0.00    -0.004 A 
ATOM     24  C   UNL     1      -3.692 -12.780   2.938  0.00  0.00    +0.024 A 
ATOM     25  C   UNL     1      -3.774 -13.970   3.631  0.00  0.00    +0.018 A 
ATOM     26  C   UNL     1      -4.965 -14.675   3.665  0.00  0.00    +0.015 A 
ATOM     27  C   UNL     1      -6.081 -14.193   3.004  0.00  0.00    +0.002 A 
ATOM     28  C   UNL     1      -6.015 -13.001   2.312  0.00  0.00    +0.009 A 
ATOM     29 BR   UNL     1      -2.255 -14.640   4.538  0.00  0.00    -0.050 Br
ENDBRANCH  22  23
ENDBRANCH  19  21
ENDBRANCH   2  17
TORSDOF 6
