REMARK  Name = ZINC39542705
REMARK  6 active torsions:
REMARK  status: ('A' for Active; 'I' for Inactive)
REMARK    1  A    between atoms: C_1  and  C_2
REMARK    2  A    between atoms: C_2  and  O_3
REMARK    3  A    between atoms: O_3  and  C_4
REMARK    4  A    between atoms: C_6  and  C_18
REMARK    5  A    between atoms: N_20  and  C_21
REMARK    6  A    between atoms: C_21  and  C_22
REMARK                            x       y       z     vdW  Elec       q    Type
REMARK                         _______ _______ _______ _____ _____    ______ ____
ROOT
ATOM      1  C   UNL     1       0.712  -1.823   1.361  0.00  0.00    +0.134 C 
ATOM      2  C   UNL     1       1.286  -2.517   2.575  0.00  0.00    +0.107 C 
ATOM      3  C   UNL     1       1.061  -4.015   2.294  0.00  0.00    +0.153 C 
ATOM      4  N   UNL     1       0.368  -4.036   0.996  0.00  0.00    -0.367 NA
ATOM      5  C   UNL     1       0.230  -2.719   0.534  0.00  0.00    +0.113 C 
ATOM      6  N   UNL     1      -0.360  -2.460  -0.727  0.00  0.00    -0.301 N 
ATOM      7  C   UNL     1      -0.081  -3.418  -1.716  0.00  0.00    +0.037 A 
ATOM      8  C   UNL     1      -0.517  -3.213  -3.017  0.00  0.00    +0.023 A 
ATOM      9  C   UNL     1      -0.251  -4.159  -3.987  0.00  0.00    +0.002 A 
ATOM     10  C   UNL     1       0.447  -5.307  -3.656  0.00  0.00    +0.000 A 
ATOM     11  C   UNL     1       0.883  -5.510  -2.361  0.00  0.00    +0.007 A 
ATOM     12  C   UNL     1       0.627  -4.564  -1.382  0.00  0.00    -0.010 A 
ATOM     13  C   UNL     1       1.145  -4.804   0.017  0.00  0.00    +0.124 C 
ATOM     14  H   UNL     1      -0.913  -1.681  -0.895  0.00  0.00    +0.153 HD
ATOM     15  H   UNL     1      -0.546  -4.449   1.105  0.00  0.00    +0.129 HD
ENDROOT
BRANCH   3  16
ATOM     16  C   UNL     1       0.199  -4.630   3.365  0.00  0.00    +0.249 C 
ATOM     17  O   UNL     1      -0.874  -5.116   3.076  0.00  0.00    -0.272 OA
ATOM     18  N   UNL     1       0.619  -4.639   4.646  0.00  0.00    -0.208 N 
ATOM     19 CL   UNL     1       2.131  -3.953   5.054  0.00  0.00    +0.004 Cl
BRANCH  18  20
ATOM     20  C   UNL     1      -0.219  -5.237   5.688  0.00  0.00    +0.162 C 
BRANCH  20  21
ATOM     21  C   UNL     1      -0.154  -6.739   5.585  0.00  0.00    -0.029 A 
ATOM     22  C   UNL     1      -1.057  -7.417   4.786  0.00  0.00    +0.005 A 
ATOM     23  C   UNL     1      -0.997  -8.795   4.692  0.00  0.00    +0.000 A 
ATOM     24  C   UNL     1      -0.035  -9.495   5.395  0.00  0.00    +0.000 A 
ATOM     25  C   UNL     1       0.868  -8.817   6.193  0.00  0.00    +0.000 A 
ATOM     26  C   UNL     1       0.811  -7.439   6.284  0.00  0.00    +0.005 A 
ENDBRANCH  20  21
ENDBRANCH  18  20
ENDBRANCH   3  16
BRANCH   1  27
ATOM     27  O   UNL     1       0.693  -0.477   1.160  0.00  0.00    -0.493 OA
BRANCH  27  29
ATOM     28  C   UNL     1       0.140   1.517  -0.088  0.00  0.00    +0.048 C 
ATOM     29  C   UNL     1       0.001  -0.004   0.003  0.00  0.00    +0.225 C 
ENDBRANCH  27  29
ENDBRANCH   1  27
TORSDOF 5
