REMARK  Name = ZINC22061769
REMARK  10 active torsions:
REMARK  status: ('A' for Active; 'I' for Inactive)
REMARK    1  A    between atoms: C_1  and  C_2
REMARK    2  A    between atoms: C_2  and  C_3
REMARK    3  A    between atoms: C_2  and  C_4
REMARK    4  A    between atoms: C_4  and  C_6
REMARK    5  A    between atoms: C_4  and  N_22
REMARK    6  A    between atoms: N_8  and  C_9
REMARK    7  A    between atoms: C_9  and  C_10
REMARK    8  A    between atoms: C_14  and  N_16
REMARK    9  A    between atoms: C_17  and  C_19
REMARK   10  A    between atoms: C_23  and  C_25
REMARK                            x       y       z     vdW  Elec       q    Type
REMARK                         _______ _______ _______ _____ _____    ______ ____
ROOT
ATOM      1  C   UNL     1      -0.098   1.196   0.987  0.00  0.00    +0.161 C 
ENDROOT
BRANCH   1   2
ATOM      2  C   UNL     1      -1.528   0.757   1.168  0.00  0.00    +0.234 C 
ATOM      3  O   UNL     1      -2.413   1.584   1.235  0.00  0.00    -0.274 OA
ATOM      4  N   UNL     1      -1.825  -0.555   1.255  0.00  0.00    -0.310 N 
ATOM      5  H   UNL     1      -1.023  -1.305   1.195  0.00  0.00    +0.149 HD
BRANCH   4   6
ATOM      6  C   UNL     1      -3.215  -0.982   1.431  0.00  0.00    +0.139 C 
BRANCH   6   7
ATOM      7  C   UNL     1      -3.274  -2.486   1.499  0.00  0.00    -0.029 A 
ATOM      8  C   UNL     1      -3.442  -3.224   0.342  0.00  0.00    +0.005 A 
ATOM      9  C   UNL     1      -3.492  -4.604   0.400  0.00  0.00    +0.002 A 
ATOM     10  C   UNL     1      -3.384  -5.250   1.616  0.00  0.00    +0.023 A 
ATOM     11  C   UNL     1      -3.220  -4.512   2.780  0.00  0.00    +0.034 A 
ATOM     12  C   UNL     1      -3.166  -3.126   2.718  0.00  0.00    +0.028 A 
BRANCH  11  13
ATOM     13  N   UNL     1      -3.111  -5.164   4.014  0.00  0.00    -0.285 N 
ATOM     14  C   UNL     1      -2.511  -6.368   4.089  0.00  0.00    +0.220 C 
ATOM     15  O   UNL     1      -1.982  -6.844   3.107  0.00  0.00    -0.275 OA
ATOM     16  H   UNL     1      -3.515  -4.692   4.922  0.00  0.00    +0.155 HD
BRANCH  14  17
ATOM     17  C   UNL     1      -2.499  -7.123   5.393  0.00  0.00    +0.075 C 
ATOM     18  C   UNL     1      -1.153  -7.283   6.104  0.00  0.00    +0.013 C 
ATOM     19  C   UNL     1      -1.802  -8.485   5.414  0.00  0.00    +0.013 C 
ENDBRANCH  14  17
ENDBRANCH  11  13
ENDBRANCH   6   7
ENDBRANCH   4   6
ENDBRANCH   1   2
BRANCH   1  20
ATOM     20  N   UNL     1      -0.041   2.659   0.920  0.00  0.00    -0.303 N 
ATOM     21  C   UNL     1       1.091   3.305   1.262  0.00  0.00    +0.220 C 
ATOM     22  O   UNL     1       2.063   2.676   1.624  0.00  0.00    -0.275 OA
ATOM     23  H   UNL     1      -0.922   3.229   0.592  0.00  0.00    +0.149 HD
BRANCH  21  24
ATOM     24  C   UNL     1       1.150   4.809   1.194  0.00  0.00    +0.048 C 
ATOM     25  C   UNL     1       0.090   5.404   2.123  0.00  0.00    +0.019 C 
ATOM     26  C   UNL     1       0.150   6.931   2.054  0.00  0.00    -0.009 C 
ATOM     27  C   UNL     1       1.537   7.408   2.491  0.00  0.00    +0.007 C 
ATOM     28  C   UNL     1       2.596   6.813   1.561  0.00  0.00    -0.009 C 
ATOM     29  C   UNL     1       2.537   5.286   1.630  0.00  0.00    +0.019 C 
ATOM     30  C   UNL     1       2.329   7.269   0.125  0.00  0.00    +0.007 C 
ATOM     31  C   UNL     1       0.942   6.793  -0.311  0.00  0.00    -0.009 C 
ATOM     32  C   UNL     1      -0.117   7.387   0.618  0.00  0.00    +0.007 C 
ATOM     33  C   UNL     1       0.883   5.265  -0.242  0.00  0.00    +0.019 C 
ENDBRANCH  21  24
ENDBRANCH   1  20
BRANCH   1  35
ATOM     34  C   UNL     1       1.943   0.947  -0.432  0.00  0.00    +0.009 C 
ATOM     35  C   UNL     1       0.457   0.605  -0.310  0.00  0.00    +0.012 C 
ATOM     36  C   UNL     1      -0.301   1.191  -1.503  0.00  0.00    +0.009 C 
ENDBRANCH   1  35
TORSDOF 8
