REMARK  Name = ZINC40158016
REMARK  8 active torsions:
REMARK  status: ('A' for Active; 'I' for Inactive)
REMARK    1  A    between atoms: C_1  and  C_2
REMARK    2  A    between atoms: C_3  and  C_28
REMARK    3  A    between atoms: C_5  and  C_7
REMARK    4  A    between atoms: C_10  and  N_13
REMARK    5  A    between atoms: N_13  and  S_14
REMARK    6  A    between atoms: S_14  and  C_17
REMARK    7  A    between atoms: C_20  and  C_23
REMARK    8  A    between atoms: C_24  and  C_25
REMARK                            x       y       z     vdW  Elec       q    Type
REMARK                         _______ _______ _______ _____ _____    ______ ____
ROOT
ATOM      1  N   UNL     1       0.115  -6.589   4.039  0.00  0.00    -0.216 N 
ATOM      2  H   UNL     1      -0.500  -7.322   3.881  0.00  0.00    +0.174 HD
ENDROOT
BRANCH   1   6
ATOM      3  C   UNL     1      -0.016  -3.203   1.617  0.00  0.00    +0.037 A 
ATOM      4  C   UNL     1      -0.045  -4.475   1.043  0.00  0.00    +0.015 A 
ATOM      5  C   UNL     1      -0.001  -5.593   1.846  0.00  0.00    +0.025 A 
ATOM      6  C   UNL     1       0.071  -5.456   3.228  0.00  0.00    +0.048 A 
ATOM      7  C   UNL     1       0.100  -4.189   3.804  0.00  0.00    +0.025 A 
ATOM      8  C   UNL     1       0.062  -3.068   3.005  0.00  0.00    +0.015 A 
BRANCH   3  13
ATOM      9  C   UNL     1      -0.090   1.562   0.143  0.00  0.00    +0.069 C 
ATOM     10  C   UNL     1      -0.096   0.055   0.111  0.00  0.00    +0.080 A 
ATOM     11  C   UNL     1      -0.159  -0.713  -0.991  0.00  0.00    +0.125 A 
ATOM     12  O   UNL     1      -0.138  -1.999  -0.584  0.00  0.00    -0.440 OA
ATOM     13  C   UNL     1      -0.063  -2.002   0.758  0.00  0.00    +0.228 A 
ATOM     14  N   UNL     1      -0.032  -0.758   1.177  0.00  0.00    -0.214 NA
ATOM     15  C   UNL     1      -0.239  -0.228  -2.415  0.00  0.00    +0.088 C 
ENDBRANCH   3  13
ENDBRANCH   1   6
BRANCH   1  16
ATOM     16  S   UNL     1       1.216  -6.684   5.272  0.00  0.00    +0.072 S 
ATOM     17  O   UNL     1       1.066  -5.499   6.043  0.00  0.00    -0.150 OA
ATOM     18  O   UNL     1       1.084  -7.981   5.836  0.00  0.00    -0.150 OA
BRANCH  16  19
ATOM     19  C   UNL     1       2.819  -6.612   4.545  0.00  0.00    +0.109 A 
ATOM     20  C   UNL     1       3.407  -7.767   4.059  0.00  0.00    +0.029 A 
ATOM     21  C   UNL     1       4.662  -7.718   3.488  0.00  0.00    +0.010 A 
ATOM     22  C   UNL     1       5.340  -6.498   3.401  0.00  0.00    -0.025 A 
ATOM     23  C   UNL     1       4.739  -5.335   3.895  0.00  0.00    +0.010 A 
ATOM     24  C   UNL     1       3.482  -5.399   4.458  0.00  0.00    +0.029 A 
BRANCH  22  25
ATOM     25  C   UNL     1       6.679  -6.438   2.795  0.00  0.00    +0.015 C 
ATOM     26  C   UNL     1       7.331  -5.257   2.713  0.00  0.00    +0.096 C 
BRANCH  26  27
ATOM     27  C   UNL     1       8.620  -5.199   2.129  0.00  0.00    +0.380 C 
ATOM     28  O   UNL     1       9.143  -6.220   1.698  0.00  0.00    -0.241 OA
ATOM     29  O   UNL     1       9.211  -4.129   2.055  0.00  0.00    -0.241 OA
ENDBRANCH  26  27
ENDBRANCH  22  25
ENDBRANCH  16  19
ENDBRANCH   1  16
TORSDOF 6
