REMARK  Name = ZINC39425841
REMARK  8 active torsions:
REMARK  status: ('A' for Active; 'I' for Inactive)
REMARK    1  A    between atoms: C_1  and  C_2
REMARK    2  A    between atoms: N_4  and  C_5
REMARK    3  A    between atoms: C_8  and  N_11
REMARK    4  A    between atoms: C_12  and  C_14
REMARK    5  A    between atoms: C_14  and  C_15
REMARK    6  A    between atoms: N_19  and  C_34
REMARK    7  A    between atoms: N_22  and  C_23
REMARK    8  A    between atoms: C_23  and  C_24
REMARK                            x       y       z     vdW  Elec       q    Type
REMARK                         _______ _______ _______ _____ _____    ______ ____
ROOT
ATOM      1  C   UNL     1      -0.278  -8.272  -3.481  0.00  0.00    +0.171 C 
ATOM      2  C   UNL     1      -0.902  -9.650  -3.571  0.00  0.00    +0.242 C 
ATOM      3  O   UNL     1      -2.044  -9.956  -3.304  0.00  0.00    -0.273 OA
ATOM      4  N   UNL     1       0.078 -10.466  -4.009  0.00  0.00    -0.255 N 
ATOM      5  C   UNL     1       1.222  -9.801  -4.207  0.00  0.00    +0.143 C 
ATOM      6  S   UNL     1       2.665 -10.535  -4.762  0.00  0.00    -0.018 S 
ATOM      7  N   UNL     1       1.111  -8.487  -3.922  0.00  0.00    -0.296 N 
ATOM      8  C   UNL     1      -0.089 -11.903  -4.240  0.00  0.00    +0.140 C 
ENDROOT
BRANCH   1   9
ATOM      9  C   UNL     1      -0.312  -7.758  -2.040  0.00  0.00    +0.128 C 
BRANCH   9  11
ATOM     10  N   UNL     1       0.705  -5.864  -0.816  0.00  0.00    -0.285 N 
ATOM     11  C   UNL     1       0.271  -6.370  -1.988  0.00  0.00    +0.219 C 
ATOM     12  O   UNL     1       0.350  -5.707  -3.001  0.00  0.00    -0.275 OA
ATOM     13  H   UNL     1       0.576  -6.364   0.005  0.00  0.00    +0.155 HD
BRANCH  10  17
ATOM     14  C   UNL     1       2.603  -2.152  -0.722  0.00  0.00    +0.033 A 
ATOM     15  C   UNL     1       2.880  -3.099   0.256  0.00  0.00    +0.025 A 
ATOM     16  C   UNL     1       2.252  -4.328   0.224  0.00  0.00    +0.025 A 
ATOM     17  C   UNL     1       1.342  -4.617  -0.784  0.00  0.00    +0.033 A 
ATOM     18  C   UNL     1       1.065  -3.670  -1.762  0.00  0.00    +0.025 A 
ATOM     19  C   UNL     1       1.689  -2.440  -1.727  0.00  0.00    +0.025 A 
BRANCH  14  23
ATOM     20  C   UNL     1       3.212   1.559  -0.898  0.00  0.00    +0.109 C 
ATOM     21  C   UNL     1       2.566   0.205  -1.046  0.00  0.00    +0.214 C 
ATOM     22  O   UNL     1       1.439   0.116  -1.486  0.00  0.00    -0.276 OA
ATOM     23  N   UNL     1       3.240  -0.906  -0.690  0.00  0.00    -0.286 N 
ATOM     24  H   UNL     1       4.167  -0.842  -0.412  0.00  0.00    +0.155 HD
ENDBRANCH  14  23
ENDBRANCH  10  17
ENDBRANCH   9  11
ENDBRANCH   1   9
BRANCH   7  25
ATOM     25  C   UNL     1       2.163  -7.473  -4.029  0.00  0.00    +0.143 C 
BRANCH  25  26
ATOM     26  C   UNL     1       2.528  -7.279  -5.478  0.00  0.00    -0.022 A 
ATOM     27  C   UNL     1       3.776  -7.597  -5.918  0.00  0.00    +0.006 A 
ATOM     28  C   UNL     1       4.132  -7.424  -7.254  0.00  0.00    +0.001 A 
ATOM     29  C   UNL     1       3.241  -6.932  -8.158  0.00  0.00    +0.008 A 
ATOM     30  C   UNL     1       1.943  -6.592  -7.742  0.00  0.00    -0.018 A 
ATOM     31  C   UNL     1       1.579  -6.774  -6.384  0.00  0.00    -0.013 A 
ATOM     32  C   UNL     1       0.279  -6.439  -5.968  0.00  0.00    +0.009 A 
ATOM     33  C   UNL     1      -0.613  -5.953  -6.873  0.00  0.00    +0.001 A 
ATOM     34  C   UNL     1      -0.257  -5.780  -8.210  0.00  0.00    +0.001 A 
ATOM     35  C   UNL     1       0.997  -6.080  -8.646  0.00  0.00    +0.008 A 
ENDBRANCH  25  26
ENDBRANCH   7  25
TORSDOF 6
