REMARK  Name = ZINC67247836
REMARK  12 active torsions:
REMARK  status: ('A' for Active; 'I' for Inactive)
REMARK    1  A    between atoms: C_1  and  C_2
REMARK    2  A    between atoms: C_2  and  C_4
REMARK    3  A    between atoms: C_2  and  N_15
REMARK    4  A    between atoms: C_7  and  S_10
REMARK    5  A    between atoms: S_10  and  N_13
REMARK    6  A    between atoms: N_13  and  C_14
REMARK    7  A    between atoms: N_15  and  C_16
REMARK    8  A    between atoms: C_16  and  C_17
REMARK    9  A    between atoms: C_20  and  C_22
REMARK   10  A    between atoms: C_22  and  C_23
REMARK   11  A    between atoms: C_22  and  C_24
REMARK   12  A    between atoms: C_22  and  C_25
REMARK                            x       y       z     vdW  Elec       q    Type
REMARK                         _______ _______ _______ _____ _____    ______ ____
ROOT
ATOM      1  C   UNL     1      -0.019   1.526   0.010  0.00  0.00    -0.009 C 
ATOM      2  C   UNL     1       0.002  -0.004   0.002  0.00  0.00    -0.044 C 
ENDROOT
BRANCH   2   3
ATOM      3  C   UNL     1       0.731  -0.503   1.223  0.00  0.00    -0.062 A 
ATOM      4  C   UNL     1       2.113  -0.514   1.247  0.00  0.00    +0.004 A 
ATOM      5  C   UNL     1       2.782  -0.972   2.366  0.00  0.00    +0.029 A 
ATOM      6  C   UNL     1       2.068  -1.419   3.463  0.00  0.00    +0.105 A 
ATOM      7  C   UNL     1       0.686  -1.407   3.439  0.00  0.00    +0.029 A 
ATOM      8  C   UNL     1       0.017  -0.945   2.321  0.00  0.00    +0.004 A 
BRANCH   6   9
ATOM      9  S   UNL     1       2.920  -2.003   4.890  0.00  0.00    +0.058 S 
ATOM     10  O   UNL     1       2.026  -2.874   5.569  0.00  0.00    -0.153 OA
ATOM     11  O   UNL     1       4.206  -2.422   4.452  0.00  0.00    -0.153 OA
BRANCH   9  12
ATOM     12  N   UNL     1       3.159  -0.702   5.885  0.00  0.00    -0.193 NA
ATOM     13  C   UNL     1       2.011  -0.018   6.486  0.00  0.00    +0.127 C 
ATOM     14  H   UNL     1       4.060  -0.392   6.070  0.00  0.00    +0.148 HD
ENDBRANCH   9  12
ENDBRANCH   6   9
ENDBRANCH   2   3
BRANCH   2  15
ATOM     15  N   UNL     1       0.690  -0.478  -1.207  0.00  0.00    +0.387 N 
ATOM     16  H   UNL     1       1.608  -0.063  -1.256  0.00  0.00    -0.085 HD
ATOM     17  H   UNL     1       0.776  -1.482  -1.172  0.00  0.00    -0.085 HD
BRANCH  15  18
ATOM     18  C   UNL     1      -0.086  -0.093  -2.394  0.00  0.00    -0.025 C 
BRANCH  18  19
ATOM     19  C   UNL     1       0.620  -0.579  -3.634  0.00  0.00    +0.032 A 
ATOM     20  C   UNL     1       0.293  -1.759  -4.220  0.00  0.00    +0.068 A 
ATOM     21  S   UNL     1       1.436  -1.773  -5.591  0.00  0.00    -0.080 S 
ATOM     22  C   UNL     1       2.192  -0.303  -5.277  0.00  0.00    +0.084 A 
ATOM     23  N   UNL     1       1.579   0.125  -4.202  0.00  0.00    -0.250 NA
BRANCH  22  24
ATOM     24  C   UNL     1       3.303   0.363  -6.048  0.00  0.00    +0.011 C 
ATOM     25  C   UNL     1       4.516   0.552  -5.134  0.00  0.00    +0.017 C 
ATOM     26  C   UNL     1       3.694  -0.515  -7.239  0.00  0.00    +0.017 C 
ATOM     27  C   UNL     1       2.827   1.726  -6.553  0.00  0.00    +0.017 C 
ENDBRANCH  22  24
ENDBRANCH  18  19
ENDBRANCH  15  18
ENDBRANCH   2  15
TORSDOF 7
