REMARK  Name = ZINC40736372
REMARK  12 active torsions:
REMARK  status: ('A' for Active; 'I' for Inactive)
REMARK    1  A    between atoms: C_1  and  C_2
REMARK    2  A    between atoms: C_5  and  N_8
REMARK    3  A    between atoms: C_9  and  C_11
REMARK    4  A    between atoms: C_11  and  O_12
REMARK    5  A    between atoms: O_12  and  C_13
REMARK    6  A    between atoms: C_22  and  C_23
REMARK    7  A    between atoms: C_23  and  N_24
REMARK    8  A    between atoms: N_24  and  C_25
REMARK    9  A    between atoms: C_25  and  C_26
REMARK   10  A    between atoms: C_26  and  S_27
REMARK   11  A    between atoms: S_27  and  C_28
REMARK   12  A    between atoms: N_32  and  C_33
REMARK                            x       y       z     vdW  Elec       q    Type
REMARK                         _______ _______ _______ _____ _____    ______ ____
ROOT
ATOM      1  C   UNL     1       0.545  -8.176   2.625  0.00  0.00    +0.123 A 
ATOM      2  C   UNL     1       0.571  -9.008   1.502  0.00  0.00    +0.046 A 
ATOM      3  C   UNL     1       0.698 -10.356   1.633  0.00  0.00    +0.012 A 
ATOM      4  C   UNL     1       0.805 -10.924   2.914  0.00  0.00    -0.017 A 
ATOM      5  C   UNL     1       0.938 -12.313   3.086  0.00  0.00    +0.008 A 
ATOM      6  C   UNL     1       1.040 -12.829   4.341  0.00  0.00    +0.001 A 
ATOM      7  C   UNL     1       1.015 -12.002   5.462  0.00  0.00    +0.001 A 
ATOM      8  C   UNL     1       0.888 -10.653   5.334  0.00  0.00    +0.009 A 
ATOM      9  C   UNL     1       0.780 -10.083   4.054  0.00  0.00    -0.013 A 
ATOM     10  C   UNL     1       0.652  -8.694   3.884  0.00  0.00    -0.015 A 
ENDROOT
BRANCH   1  11
ATOM     11  O   UNL     1       0.417  -6.833   2.462  0.00  0.00    -0.483 OA
BRANCH  11  12
ATOM     12  C   UNL     1       0.309  -6.349   1.121  0.00  0.00    +0.324 C 
BRANCH  12  14
ATOM     13  N   UNL     1       0.059  -4.170  -0.021  0.00  0.00    -0.283 N 
ATOM     14  C   UNL     1       0.175  -4.848   1.138  0.00  0.00    +0.255 C 
ATOM     15  O   UNL     1       0.173  -4.251   2.193  0.00  0.00    -0.272 OA
ATOM     16  H   UNL     1      -0.017  -4.651  -0.860  0.00  0.00    +0.155 HD
BRANCH  13  21
ATOM     17  C   UNL     1       0.008   1.503   0.007  0.00  0.00    +0.044 C 
ATOM     18  C   UNL     1       0.022  -0.004  -0.001  0.00  0.00    -0.050 A 
ATOM     19  C   UNL     1       0.777  -0.692   0.931  0.00  0.00    +0.005 A 
ATOM     20  C   UNL     1       0.791  -2.073   0.927  0.00  0.00    +0.023 A 
ATOM     21  C   UNL     1       0.046  -2.771  -0.014  0.00  0.00    +0.034 A 
ATOM     22  C   UNL     1      -0.712  -2.077  -0.948  0.00  0.00    +0.023 A 
ATOM     23  C   UNL     1      -0.726  -0.696  -0.936  0.00  0.00    +0.005 A 
ENDBRANCH  13  21
ENDBRANCH  12  14
ENDBRANCH  11  12
ENDBRANCH   1  11
BRANCH  10  24
ATOM     24  C   UNL     1       0.629  -7.783   5.084  0.00  0.00    -0.042 C 
BRANCH  24  25
ATOM     25  N   UNL     1      -0.757  -7.610   5.540  0.00  0.00    +0.382 N 
ATOM     26  H   UNL     1      -1.307  -7.203   4.798  0.00  0.00    -0.085 HD
ATOM     27  H   UNL     1      -1.142  -8.507   5.792  0.00  0.00    -0.085 HD
BRANCH  25  28
ATOM     28  C   UNL     1      -0.779  -6.721   6.710  0.00  0.00    -0.071 C 
BRANCH  28  29
ATOM     29  C   UNL     1      -2.222  -6.541   7.185  0.00  0.00    +0.058 C 
BRANCH  29  30
ATOM     30  S   UNL     1      -2.251  -5.443   8.629  0.00  0.00    -0.086 S 
BRANCH  30  31
ATOM     31  C   UNL     1      -3.958  -5.337   9.051  0.00  0.00    +0.214 A 
ATOM     32  N   UNL     1      -4.954  -5.939   8.437  0.00  0.00    -0.101 NA
ATOM     33  N   UNL     1      -6.071  -5.649   9.001  0.00  0.00    -0.022 NA
ATOM     34  N   UNL     1      -5.878  -4.856   9.998  0.00  0.00    -0.038 NA
ATOM     35  N   UNL     1      -4.494  -4.625  10.074  0.00  0.00    -0.187 N 
BRANCH  35  36
ATOM     36  C   UNL     1      -3.812  -3.829  11.006  0.00  0.00    +0.070 A 
ATOM     37  C   UNL     1      -2.549  -4.199  11.445  0.00  0.00    +0.028 A 
ATOM     38  C   UNL     1      -1.880  -3.412  12.363  0.00  0.00    +0.002 A 
ATOM     39  C   UNL     1      -2.468  -2.257  12.844  0.00  0.00    +0.000 A 
ATOM     40  C   UNL     1      -3.727  -1.886  12.408  0.00  0.00    +0.002 A 
ATOM     41  C   UNL     1      -4.398  -2.665  11.487  0.00  0.00    +0.028 A 
ENDBRANCH  35  36
ENDBRANCH  30  31
ENDBRANCH  29  30
ENDBRANCH  28  29
ENDBRANCH  25  28
ENDBRANCH  24  25
ENDBRANCH  10  24
TORSDOF 11
