REMARK  Name = ZINC25968768
REMARK  9 active torsions:
REMARK  status: ('A' for Active; 'I' for Inactive)
REMARK    1  A    between atoms: C_1  and  C_2
REMARK    2  A    between atoms: C_9  and  C_11
REMARK    3  A    between atoms: C_11  and  C_12
REMARK    4  A    between atoms: C_12  and  C_13
REMARK    5  A    between atoms: C_13  and  C_14
REMARK    6  A    between atoms: C_14  and  C_15
REMARK    7  A    between atoms: C_15  and  N_16
REMARK    8  A    between atoms: N_16  and  S_17
REMARK    9  A    between atoms: S_17  and  C_20
REMARK                            x       y       z     vdW  Elec       q    Type
REMARK                         _______ _______ _______ _____ _____    ______ ____
ROOT
ATOM      1  N   UNL     1       4.337  -1.073  -1.642  0.00  0.00    -0.190 NA
ATOM      2  H   UNL     1       4.221  -2.072  -2.087  0.00  0.00    +0.148 HD
ENDROOT
BRANCH   1   3
ATOM      3  S   UNL     1       3.931  -0.843  -0.053  0.00  0.00    +0.059 S 
ATOM      4  O   UNL     1       4.904   0.038   0.491  0.00  0.00    -0.153 OA
ATOM      5  O   UNL     1       3.680  -2.131   0.493  0.00  0.00    -0.153 OA
BRANCH   3   6
ATOM      6  C   UNL     1       2.397   0.024  -0.027  0.00  0.00    +0.109 A 
ATOM      7  C   UNL     1       1.207  -0.680  -0.016  0.00  0.00    +0.032 A 
ATOM      8  C   UNL     1       0.002  -0.004   0.002  0.00  0.00    +0.051 A 
ATOM      9  C   UNL     1      -0.017   1.383   0.010  0.00  0.00    +0.162 A 
ATOM     10  C   UNL     1       1.179   2.090   0.002  0.00  0.00    +0.164 A 
ATOM     11  C   UNL     1       2.385   1.406  -0.018  0.00  0.00    +0.078 A 
ATOM     12  O   UNL     1       1.184   3.451   0.018  0.00  0.00    -0.485 OA
ATOM     13  C   UNL     1      -0.040   4.103  -0.340  0.00  0.00    +0.270 C 
ATOM     14  C   UNL     1      -1.189   3.413   0.408  0.00  0.00    +0.270 C 
ATOM     15  O   UNL     1      -1.212   2.035   0.019  0.00  0.00    -0.485 OA
ENDBRANCH   3   6
ENDBRANCH   1   3
BRANCH   1  16
ATOM     16  C   UNL     1       4.634   0.080  -2.496  0.00  0.00    +0.106 C 
BRANCH  16  17
ATOM     17  C   UNL     1       5.329  -0.398  -3.773  0.00  0.00    +0.017 C 
BRANCH  17  18
ATOM     18  C   UNL     1       5.638   0.806  -4.665  0.00  0.00    +0.002 C 
BRANCH  18  19
ATOM     19  C   UNL     1       6.333   0.329  -5.942  0.00  0.00    +0.009 C 
BRANCH  19  20
ATOM     20  C   UNL     1       6.643   1.532  -6.835  0.00  0.00    +0.096 C 
BRANCH  20  28
ATOM     21  C   UNL     1       8.348   1.723 -12.755  0.00  0.00    +0.009 C 
ATOM     22  C   UNL     1       7.593   2.060 -11.468  0.00  0.00    +0.003 C 
ATOM     23  C   UNL     1       7.461   3.579 -11.336  0.00  0.00    +0.006 C 
ATOM     24  C   UNL     1       6.677   3.916 -10.066  0.00  0.00    +0.019 C 
ATOM     25  C   UNL     1       7.434   3.388  -8.848  0.00  0.00    +0.108 C 
ATOM     26  N   UNL     1       7.697   1.955  -9.032  0.00  0.00    -0.301 N 
ATOM     27  C   UNL     1       8.365   1.512 -10.264  0.00  0.00    +0.111 C 
ATOM     28  C   UNL     1       7.327   1.062  -8.092  0.00  0.00    +0.216 C 
ATOM     29  O   UNL     1       7.546  -0.119  -8.258  0.00  0.00    -0.276 OA
ENDBRANCH  20  28
ENDBRANCH  19  20
ENDBRANCH  18  19
ENDBRANCH  17  18
ENDBRANCH  16  17
ENDBRANCH   1  16
TORSDOF 8
