REMARK  Name = ZINC56721601
REMARK  8 active torsions:
REMARK  status: ('A' for Active; 'I' for Inactive)
REMARK    1  A    between atoms: C_1  and  C_2
REMARK    2  A    between atoms: C_2  and  C_3
REMARK    3  A    between atoms: C_2  and  C_4
REMARK    4  A    between atoms: C_4  and  C_5
REMARK    5  A    between atoms: C_5  and  C_7
REMARK    6  A    between atoms: C_5  and  N_22
REMARK    7  A    between atoms: C_7  and  N_8
REMARK    8  A    between atoms: N_11  and  C_12
REMARK                            x       y       z     vdW  Elec       q    Type
REMARK                         _______ _______ _______ _____ _____    ______ ____
ROOT
ATOM      1  N   UNL     1       4.387  -0.131  -2.627  0.00  0.00    -0.298 N 
ATOM      2  C   UNL     1       5.147  -0.285  -3.730  0.00  0.00    +0.304 C 
ATOM      3  O   UNL     1       4.621  -0.496  -4.806  0.00  0.00    -0.253 OA
ATOM      4  N   UNL     1       6.489  -0.206  -3.640  0.00  0.00    -0.266 N 
ATOM      5  H   UNL     1       4.806   0.037  -1.769  0.00  0.00    +0.150 HD
ATOM      6  H   UNL     1       6.912  -0.109  -2.772  0.00  0.00    +0.156 HD
ENDROOT
BRANCH   4   7
ATOM      7  C   UNL     1       7.274  -0.264  -4.800  0.00  0.00    +0.080 A 
ATOM      8  C   UNL     1       6.794   0.263  -5.990  0.00  0.00    +0.027 A 
ATOM      9  C   UNL     1       7.567   0.205  -7.134  0.00  0.00    +0.006 A 
ATOM     10  C   UNL     1       8.820  -0.377  -7.097  0.00  0.00    +0.049 A 
ATOM     11  C   UNL     1       9.309  -0.907  -5.910  0.00  0.00    +0.164 A 
ATOM     12  C   UNL     1       8.539  -0.845  -4.757  0.00  0.00    +0.183 A 
ATOM     13  O   UNL     1       9.004  -1.346  -3.579  0.00  0.00    -0.483 OA
ATOM     14  C   UNL     1      10.113  -2.249  -3.658  0.00  0.00    +0.270 C 
ATOM     15  C   UNL     1      11.157  -1.645  -4.607  0.00  0.00    +0.270 C 
ATOM     16  O   UNL     1      10.543  -1.480  -5.894  0.00  0.00    -0.485 OA
ENDBRANCH   4   7
BRANCH   1  17
ATOM     17  C   UNL     1       2.928  -0.217  -2.725  0.00  0.00    +0.124 C 
BRANCH  17  18
ATOM     18  C   UNL     1       2.305   0.114  -1.368  0.00  0.00    +0.074 C 
BRANCH  18  19
ATOM     19  N   UNL     1       2.872  -0.770  -0.340  0.00  0.00    -0.294 NA
ATOM     20  C   UNL     1       2.123  -2.033  -0.261  0.00  0.00    +0.113 C 
ATOM     21  C   UNL     1       2.782  -2.945   0.777  0.00  0.00    +0.175 C 
ATOM     22  O   UNL     1       2.835  -2.267   2.035  0.00  0.00    -0.377 OA
ATOM     23  C   UNL     1       3.558  -1.033   1.994  0.00  0.00    +0.175 C 
ATOM     24  C   UNL     1       2.907  -0.101   0.969  0.00  0.00    +0.113 C 
ENDBRANCH  18  19
BRANCH  18  25
ATOM     25  C   UNL     1       0.791  -0.091  -1.438  0.00  0.00    +0.023 C 
BRANCH  25  27
ATOM     26  C   UNL     1       0.430   1.877   0.059  0.00  0.00    +0.007 C 
ATOM     27  C   UNL     1       0.151   0.385  -0.132  0.00  0.00    -0.016 C 
ATOM     28  C   UNL     1      -1.360   0.152  -0.190  0.00  0.00    +0.007 C 
ENDBRANCH  25  27
ENDBRANCH  18  25
ENDBRANCH  17  18
ENDBRANCH   1  17
TORSDOF 6
