REMARK  Name = ZINC34756500
REMARK  7 active torsions:
REMARK  status: ('A' for Active; 'I' for Inactive)
REMARK    1  A    between atoms: C_4  and  C_7
REMARK    2  A    between atoms: C_7  and  N_8
REMARK    3  A    between atoms: C_9  and  C_11
REMARK    4  A    between atoms: C_11  and  N_12
REMARK    5  A    between atoms: C_25  and  S_27
REMARK    6  A    between atoms: S_27  and  C_28
REMARK    7  A    between atoms: C_28  and  C_29
REMARK                            x       y       z     vdW  Elec       q    Type
REMARK                         _______ _______ _______ _____ _____    ______ ____
ROOT
ATOM      1  N   UNL     1       7.043  -2.575   2.975  0.00  0.00    +0.387 N 
ATOM      2  C   UNL     1       8.069  -1.709   2.380  0.00  0.00    -0.059 C 
ATOM      3  C   UNL     1       9.381  -2.489   2.248  0.00  0.00    +0.088 C 
ATOM      4  N   UNL     1       9.736  -3.032   3.568  0.00  0.00    -0.318 N 
ATOM      5  C   UNL     1       8.708  -3.778   4.310  0.00  0.00    +0.088 C 
ATOM      6  C   UNL     1       7.428  -2.937   4.345  0.00  0.00    -0.059 C 
ATOM      7  C   UNL     1      11.001  -2.846   4.096  0.00  0.00    +0.134 A 
ATOM      8  C   UNL     1      11.999  -3.849   3.942  0.00  0.00    +0.051 A 
ATOM      9  C   UNL     1      11.898  -5.144   3.266  0.00  0.00    -0.025 A 
ATOM     10  C   UNL     1      13.002  -5.919   3.261  0.00  0.00    -0.004 A 
ATOM     11  S   UNL     1      14.225  -4.987   4.142  0.00  0.00    -0.073 S 
ATOM     12  C   UNL     1      13.250  -3.554   4.519  0.00  0.00    +0.115 A 
ATOM     13  N   UNL     1      13.467  -2.420   5.157  0.00  0.00    -0.214 NA
ATOM     14  C   UNL     1      12.498  -1.521   5.271  0.00  0.00    +0.191 A 
ATOM     15  N   UNL     1      11.297  -1.733   4.745  0.00  0.00    -0.206 NA
ATOM     16  C   UNL     1      13.155  -7.276   2.644  0.00  0.00    +0.043 C 
ATOM     17  C   UNL     1      11.757  -7.827   2.331  0.00  0.00    +0.005 C 
ATOM     18  C   UNL     1      10.950  -6.741   1.615  0.00  0.00    +0.005 C 
ATOM     19  C   UNL     1      10.612  -5.615   2.593  0.00  0.00    +0.037 C 
ATOM     20  H   UNL     1       6.951  -3.413   2.420  0.00  0.00    -0.081 HD
ENDROOT
BRANCH   1  21
ATOM     21  C   UNL     1       5.758  -1.863   3.001  0.00  0.00    +0.019 C 
BRANCH  21  23
ATOM     22  N   UNL     1       4.140  -0.954   1.366  0.00  0.00    -0.313 N 
ATOM     23  C   UNL     1       5.302  -1.599   1.589  0.00  0.00    +0.197 C 
ATOM     24  O   UNL     1       5.980  -1.967   0.654  0.00  0.00    -0.278 OA
ATOM     25  H   UNL     1       3.598  -0.659   2.114  0.00  0.00    +0.149 HD
BRANCH  22  26
ATOM     26  C   UNL     1       3.696  -0.697  -0.006  0.00  0.00    +0.139 C 
BRANCH  26  30
ATOM     27  C   UNL     1      -0.040   1.373   0.067  0.00  0.00    +0.000 A 
ATOM     28  C   UNL     1       1.145   2.085   0.064  0.00  0.00    +0.000 A 
ATOM     29  C   UNL     1       2.354   1.415   0.041  0.00  0.00    +0.005 A 
ATOM     30  C   UNL     1       2.378   0.033   0.020  0.00  0.00    -0.030 A 
ATOM     31  C   UNL     1       1.194  -0.679   0.024  0.00  0.00    +0.005 A 
ATOM     32  C   UNL     1      -0.015  -0.009   0.045  0.00  0.00    +0.000 A 
ENDBRANCH  26  30
ENDBRANCH  22  26
ENDBRANCH  21  23
ENDBRANCH   1  21
BRANCH  14  33
ATOM     33  S   UNL     1      12.813  -0.014   6.128  0.00  0.00    -0.077 S 
BRANCH  33  34
ATOM     34  C   UNL     1      14.544  -0.161   6.651  0.00  0.00    +0.172 C 
BRANCH  34  35
ATOM     35  C   UNL     1      14.947   1.080   7.407  0.00  0.00    +0.221 C 
ATOM     36  O   UNL     1      14.145   1.974   7.575  0.00  0.00    -0.275 OA
ATOM     37  N   UNL     1      16.198   1.195   7.895  0.00  0.00    -0.329 N 
ATOM     38  H   UNL     1      16.839   0.480   7.760  0.00  0.00    +0.145 HD
ATOM     39  H   UNL     1      16.457   1.993   8.381  0.00  0.00    +0.145 HD
ENDBRANCH  34  35
ENDBRANCH  33  34
ENDBRANCH  14  33
TORSDOF 7
