REMARK  Name = ZINC34768535
REMARK  7 active torsions:
REMARK  status: ('A' for Active; 'I' for Inactive)
REMARK    1  A    between atoms: C_6  and  C_7
REMARK    2  A    between atoms: C_7  and  N_8
REMARK    3  A    between atoms: C_9  and  C_11
REMARK    4  A    between atoms: C_11  and  C_12
REMARK    5  A    between atoms: C_12  and  C_13
REMARK    6  A    between atoms: C_17  and  C_20
REMARK    7  A    between atoms: C_20  and  C_21
REMARK                            x       y       z     vdW  Elec       q    Type
REMARK                         _______ _______ _______ _____ _____    ______ ____
ROOT
ATOM      1  C   UNL     1      -5.072  -2.974  -4.435  0.00  0.00    +0.130 A 
ATOM      2  C   UNL     1      -5.892  -2.055  -5.092  0.00  0.00    +0.295 A 
ATOM      3  O   UNL     1      -6.301  -0.923  -4.468  0.00  0.00    -0.264 OA
ATOM      4  N   UNL     1      -6.261  -2.312  -6.342  0.00  0.00    -0.190 NA
ATOM      5  C   UNL     1      -5.847  -3.422  -6.925  0.00  0.00    +0.159 A 
ATOM      6  N   UNL     1      -5.073  -4.277  -6.285  0.00  0.00    -0.133 NA
ATOM      7  N   UNL     1      -4.689  -4.062  -5.075  0.00  0.00    -0.147 NA
ENDROOT
BRANCH   1   8
ATOM      8  C   UNL     1      -4.627  -2.725  -3.017  0.00  0.00    +0.072 C 
BRANCH   8   9
ATOM      9  C   UNL     1      -3.312  -1.942  -3.025  0.00  0.00    +0.102 C 
BRANCH   9  11
ATOM     10  N   UNL     1      -1.726  -1.017  -1.368  0.00  0.00    -0.311 N 
ATOM     11  C   UNL     1      -2.867  -1.693  -1.607  0.00  0.00    +0.214 C 
ATOM     12  O   UNL     1      -3.535  -2.101  -0.681  0.00  0.00    -0.276 OA
ATOM     13  H   UNL     1      -1.191  -0.691  -2.109  0.00  0.00    +0.149 HD
BRANCH  10  14
ATOM     14  C   UNL     1      -1.293  -0.775   0.010  0.00  0.00    +0.139 C 
BRANCH  14  20
ATOM     15  C   UNL     1      -0.017   1.378   0.010  0.00  0.00    +0.008 A 
ATOM     16  C   UNL     1       1.170   2.086   0.002  0.00  0.00    +0.038 A 
ATOM     17  C   UNL     1       2.379   1.410  -0.013  0.00  0.00    +0.123 A 
ATOM     18  C   UNL     1       2.396   0.026  -0.021  0.00  0.00    +0.038 A 
ATOM     19  C   UNL     1       1.208  -0.680  -0.013  0.00  0.00    +0.008 A 
ATOM     20  C   UNL     1       0.002  -0.004   0.002  0.00  0.00    -0.030 A 
ATOM     21  F   UNL     1       3.540   2.101  -0.021  0.00  0.00    -0.205 F 
ENDBRANCH  14  20
ENDBRANCH  10  14
ENDBRANCH   9  11
ENDBRANCH   8   9
ENDBRANCH   1   8
BRANCH   5  22
ATOM     22  C   UNL     1      -6.265  -3.716  -8.343  0.00  0.00    +0.113 C 
BRANCH  22  23
ATOM     23  C   UNL     1      -5.255  -3.133  -9.296  0.00  0.00    -0.036 A 
ATOM     24  C   UNL     1      -5.410  -1.839  -9.758  0.00  0.00    +0.008 A 
ATOM     25  C   UNL     1      -4.485  -1.298 -10.632  0.00  0.00    +0.050 A 
ATOM     26  C   UNL     1      -3.401  -2.054 -11.049  0.00  0.00    +0.166 A 
ATOM     27  C   UNL     1      -3.245  -3.357 -10.583  0.00  0.00    +0.166 A 
ATOM     28  C   UNL     1      -4.172  -3.890  -9.703  0.00  0.00    +0.053 A 
ATOM     29  O   UNL     1      -2.112  -3.884 -11.133  0.00  0.00    -0.453 OA
ATOM     30  C   UNL     1      -1.799  -3.036 -12.254  0.00  0.00    +0.466 C 
ATOM     31  O   UNL     1      -2.365  -1.764 -11.890  0.00  0.00    -0.453 OA
ENDBRANCH  22  23
ENDBRANCH   5  22
TORSDOF 7
