REMARK  Name = ZINC40033264
REMARK  10 active torsions:
REMARK  status: ('A' for Active; 'I' for Inactive)
REMARK    1  A    between atoms: C_1  and  C_2
REMARK    2  A    between atoms: C_2  and  O_3
REMARK    3  A    between atoms: O_3  and  C_4
REMARK    4  A    between atoms: C_6  and  C_11
REMARK    5  A    between atoms: C_9  and  O_10
REMARK    6  A    between atoms: N_12  and  N_13
REMARK    7  A    between atoms: N_20  and  C_21
REMARK    8  A    between atoms: C_21  and  C_22
REMARK    9  A    between atoms: C_24  and  C_32
REMARK   10  A    between atoms: C_24  and  C_33
REMARK                            x       y       z     vdW  Elec       q    Type
REMARK                         _______ _______ _______ _____ _____    ______ ____
ROOT
ATOM      1  N   UNL     1      -0.163  -7.091  -1.364  0.00  0.00    -0.206 N 
ATOM      2  C   UNL     1      -0.167  -8.452  -1.201  0.00  0.00    +0.219 A 
ATOM      3  N   UNL     1       0.367  -8.972  -0.115  0.00  0.00    -0.214 NA
ATOM      4  C   UNL     1       0.380 -10.295   0.077  0.00  0.00    +0.084 A 
ATOM      5  C   UNL     1      -0.180 -11.139  -0.871  0.00  0.00    +0.049 A 
ATOM      6  C   UNL     1      -0.744 -10.578  -2.024  0.00  0.00    +0.260 A 
ATOM      7  O   UNL     1      -1.244 -11.289  -2.882  0.00  0.00    -0.267 OA
ATOM      8  N   UNL     1      -0.729  -9.235  -2.164  0.00  0.00    -0.276 N 
ATOM      9  C   UNL     1      -0.183 -12.626  -0.654  0.00  0.00    +0.001 C 
ATOM     10  C   UNL     1       1.096 -13.069   0.051  0.00  0.00    +0.047 C 
ATOM     11  C   UNL     1       1.336 -12.239   1.283  0.00  0.00    -0.037 A 
ATOM     12  C   UNL     1       0.989 -10.887   1.290  0.00  0.00    +0.004 A 
ATOM     13  C   UNL     1       1.216 -10.114   2.425  0.00  0.00    +0.010 A 
ATOM     14  C   UNL     1       1.781 -10.693   3.545  0.00  0.00    +0.001 A 
ATOM     15  C   UNL     1       2.120 -12.034   3.536  0.00  0.00    +0.000 A 
ATOM     16  C   UNL     1       1.898 -12.805   2.409  0.00  0.00    +0.004 A 
ATOM     17  C   UNL     1      -1.391 -13.008   0.203  0.00  0.00    +0.016 C 
ATOM     18  C   UNL     1      -0.282 -13.332  -2.008  0.00  0.00    +0.016 C 
ATOM     19  H   UNL     1      -0.557  -6.696  -2.157  0.00  0.00    +0.177 HD
ENDROOT
BRANCH   1  21
ATOM     20  C   UNL     1       0.415  -4.981  -0.538  0.00  0.00    +0.138 C 
ATOM     21  N   UNL     1       0.411  -6.270  -0.384  0.00  0.00    -0.188 NA
BRANCH  20  24
ATOM     22  C   UNL     1       1.592  -1.925   1.300  0.00  0.00    +0.162 A 
ATOM     23  C   UNL     1       1.025  -2.730   0.330  0.00  0.00    +0.059 A 
ATOM     24  C   UNL     1       1.019  -4.118   0.493  0.00  0.00    -0.002 A 
ATOM     25  C   UNL     1       1.587  -4.685   1.637  0.00  0.00    +0.013 A 
ATOM     26  C   UNL     1       2.151  -3.876   2.601  0.00  0.00    +0.050 A 
ATOM     27  C   UNL     1       2.161  -2.498   2.435  0.00  0.00    +0.158 A 
BRANCH  27  28
ATOM     28  O   UNL     1       2.723  -1.705   3.385  0.00  0.00    -0.503 OA
ATOM     29  H   UNL     1       2.108  -1.423   4.077  0.00  0.00    +0.292 HD
ENDBRANCH  27  28
BRANCH  22  30
ATOM     30  O   UNL     1       1.599  -0.575   1.144  0.00  0.00    -0.489 OA
BRANCH  30  32
ATOM     31  C   UNL     1       1.101   1.471  -0.043  0.00  0.00    +0.048 C 
ATOM     32  C   UNL     1       0.998  -0.056  -0.044  0.00  0.00    +0.226 C 
ENDBRANCH  30  32
ENDBRANCH  22  30
ENDBRANCH  20  24
ENDBRANCH   1  21
BRANCH   8  33
ATOM     33  C   UNL     1      -1.314  -8.619  -3.357  0.00  0.00    +0.155 C 
BRANCH  33  34
ATOM     34  C   UNL     1      -0.259  -8.496  -4.427  0.00  0.00    -0.013 C 
ATOM     35  C   UNL     1      -0.467  -9.012  -5.613  0.00  0.00    +0.005 C 
ENDBRANCH  33  34
ENDBRANCH   8  33
TORSDOF 7
