REMARK  Name = ZINC04677121
REMARK  5 active torsions:
REMARK  status: ('A' for Active; 'I' for Inactive)
REMARK    1  A    between atoms: C_3  and  O_29
REMARK    2  A    between atoms: C_4  and  O_28
REMARK    3  A    between atoms: C_6  and  C_7
REMARK    4  A    between atoms: N_8  and  N_9
REMARK    5  A    between atoms: C_12  and  N_22
REMARK                            x       y       z     vdW  Elec       q    Type
REMARK                         _______ _______ _______ _____ _____    ______ ____
ROOT
ATOM      1  N   UNL     1       2.472  -1.196  -3.222  0.00  0.00    -0.221 N 
ATOM      2  C   UNL     1       1.397  -0.327  -3.331  0.00  0.00    +0.145 A 
ATOM      3  C   UNL     1       0.877  -0.001  -4.580  0.00  0.00    +0.089 A 
ATOM      4  C   UNL     1      -0.202   0.876  -4.640  0.00  0.00    +0.128 A 
ATOM      5  N   UNL     1      -0.702   1.366  -3.508  0.00  0.00    -0.199 NA
ATOM      6  C   UNL     1      -0.179   1.038  -2.337  0.00  0.00    +0.221 A 
ATOM      7  N   UNL     1       0.848   0.207  -2.241  0.00  0.00    -0.198 NA
ATOM      8  N   UNL     1      -0.723   1.572  -1.182  0.00  0.00    -0.300 N 
ATOM      9  C   UNL     1      -0.013   1.086   0.008  0.00  0.00    +0.108 C 
ATOM     10  C   UNL     1      -0.729   1.579   1.267  0.00  0.00    +0.019 C 
ATOM     11  C   UNL     1      -0.764   3.110   1.262  0.00  0.00    +0.003 C 
ATOM     12  C   UNL     1      -1.466   3.591  -0.011  0.00  0.00    +0.019 C 
ATOM     13  C   UNL     1      -0.729   3.040  -1.234  0.00  0.00    +0.108 C 
ATOM     14  H   UNL     1       2.867  -1.581  -4.020  0.00  0.00    +0.176 HD
ENDROOT
BRANCH   4  15
ATOM     15  N   UNL     1      -0.753   1.230  -5.862  0.00  0.00    -0.315 N 
ATOM     16  C   UNL     1       0.268   1.793  -6.756  0.00  0.00    +0.106 C 
ATOM     17  C   UNL     1      -0.341   2.036  -8.139  0.00  0.00    +0.019 C 
ATOM     18  C   UNL     1      -1.522   3.002  -8.009  0.00  0.00    +0.003 C 
ATOM     19  C   UNL     1      -2.548   2.413  -7.035  0.00  0.00    +0.019 C 
ATOM     20  C   UNL     1      -1.875   2.160  -5.685  0.00  0.00    +0.106 C 
ENDBRANCH   4  15
BRANCH   1  22
ATOM     21  C   UNL     1       3.994  -2.331  -1.858  0.00  0.00    +0.138 C 
ATOM     22  N   UNL     1       2.988  -1.517  -1.960  0.00  0.00    -0.189 NA
BRANCH  21  28
ATOM     23  C   UNL     1       3.974  -2.111   0.620  0.00  0.00    +0.013 A 
ATOM     24  C   UNL     1       4.479  -2.434   1.862  0.00  0.00    +0.050 A 
ATOM     25  C   UNL     1       5.555  -3.303   1.972  0.00  0.00    +0.158 A 
ATOM     26  C   UNL     1       6.126  -3.859   0.829  0.00  0.00    +0.159 A 
ATOM     27  C   UNL     1       5.621  -3.545  -0.419  0.00  0.00    +0.058 A 
ATOM     28  C   UNL     1       4.537  -2.669  -0.530  0.00  0.00    -0.002 A 
BRANCH  26  29
ATOM     29  O   UNL     1       7.180  -4.710   0.941  0.00  0.00    -0.503 OA
ATOM     30  H   UNL     1       8.043  -4.273   0.920  0.00  0.00    +0.292 HD
ENDBRANCH  26  29
BRANCH  25  31
ATOM     31  O   UNL     1       6.053  -3.613   3.198  0.00  0.00    -0.503 OA
ATOM     32  H   UNL     1       6.754  -3.020   3.500  0.00  0.00    +0.292 HD
ENDBRANCH  25  31
ENDBRANCH  21  28
ENDBRANCH   1  22
TORSDOF 5
