REMARK  Name = ZINC12928191
REMARK  11 active torsions:
REMARK  status: ('A' for Active; 'I' for Inactive)
REMARK    1  A    between atoms: C_1  and  C_2
REMARK    2  A    between atoms: C_2  and  O_3
REMARK    3  A    between atoms: O_3  and  C_4
REMARK    4  A    between atoms: C_9  and  N_10
REMARK    5  A    between atoms: C_11  and  C_13
REMARK    6  A    between atoms: C_15  and  C_25
REMARK    7  A    between atoms: C_16  and  C_24
REMARK    8  A    between atoms: C_17  and  S_19
REMARK    9  A    between atoms: S_19  and  N_22
REMARK   10  A    between atoms: N_22  and  C_23
REMARK   11  A    between atoms: C_27  and  C_30
REMARK                            x       y       z     vdW  Elec       q    Type
REMARK                         _______ _______ _______ _____ _____    ______ ____
ROOT
ATOM      1  N   UNL     1       3.979   4.774   0.694  0.00  0.00    -0.278 N 
ATOM      2  C   UNL     1       3.068   5.723   0.988  0.00  0.00    +0.248 C 
ATOM      3  O   UNL     1       1.889   5.434   1.055  0.00  0.00    -0.270 OA
ATOM      4  H   UNL     1       4.925   4.987   0.718  0.00  0.00    +0.155 HD
ENDROOT
BRANCH   1  10
ATOM      5  C   UNL     1       4.435   2.408   0.497  0.00  0.00    +0.142 A 
ATOM      6  C   UNL     1       4.012   1.131   0.163  0.00  0.00    +0.055 A 
ATOM      7  C   UNL     1       2.732   0.930  -0.307  0.00  0.00    +0.001 A 
ATOM      8  C   UNL     1       1.852   1.993  -0.461  0.00  0.00    +0.126 A 
ATOM      9  C   UNL     1       2.276   3.275  -0.121  0.00  0.00    +0.073 A 
ATOM     10  C   UNL     1       3.560   3.482   0.355  0.00  0.00    +0.079 A 
ATOM     11  O   UNL     1       0.651   1.574  -0.948  0.00  0.00    -0.488 OA
ATOM     12  C   UNL     1       0.523   0.157  -0.740  0.00  0.00    +0.175 C 
ATOM     13  C   UNL     1       1.994  -0.323  -0.738  0.00  0.00    +0.083 C 
ATOM     14  C   UNL     1      -0.258  -0.491  -1.885  0.00  0.00    +0.052 C 
BRANCH   5  15
ATOM     15  O   UNL     1       5.698   2.610   0.962  0.00  0.00    -0.490 OA
BRANCH  15  17
ATOM     16  C   UNL     1       7.908   1.883   1.616  0.00  0.00    +0.048 C 
ATOM     17  C   UNL     1       6.538   1.460   1.081  0.00  0.00    +0.226 C 
ENDBRANCH  15  17
ENDBRANCH   5  15
ENDBRANCH   1  10
BRANCH   2  18
ATOM     18  C   UNL     1       3.502   7.115   1.229  0.00  0.00    +0.039 A 
ATOM     19  C   UNL     1       4.856   7.450   1.158  0.00  0.00    +0.016 A 
ATOM     20  C   UNL     1       5.254   8.752   1.379  0.00  0.00    -0.045 A 
ATOM     21  C   UNL     1       4.316   9.724   1.680  0.00  0.00    -0.021 A 
ATOM     22  C   UNL     1       2.974   9.398   1.757  0.00  0.00    +0.109 A 
ATOM     23  C   UNL     1       2.562   8.100   1.533  0.00  0.00    +0.042 A 
ATOM     24  C   UNL     1       4.758  11.143   1.925  0.00  0.00    +0.046 C 
ATOM     25  C   UNL     1       6.714   9.116   1.297  0.00  0.00    +0.044 C 
BRANCH  22  26
ATOM     26  S   UNL     1       1.787  10.643   2.141  0.00  0.00    +0.058 S 
ATOM     27  O   UNL     1       0.517  10.006   2.147  0.00  0.00    -0.153 OA
ATOM     28  O   UNL     1       2.290  11.349   3.267  0.00  0.00    -0.153 OA
BRANCH  26  29
ATOM     29  N   UNL     1       1.774  11.713   0.878  0.00  0.00    -0.193 NA
ATOM     30  C   UNL     1       1.346  11.273  -0.452  0.00  0.00    +0.127 C 
ATOM     31  H   UNL     1       2.050  12.633   1.018  0.00  0.00    +0.148 HD
ENDBRANCH  26  29
ENDBRANCH  22  26
ENDBRANCH   2  18
TORSDOF 6
