REMARK  Name = ZINC01078287
REMARK  8 active torsions:
REMARK  status: ('A' for Active; 'I' for Inactive)
REMARK    1  A    between atoms: C_1  and  C_2
REMARK    2  A    between atoms: C_3  and  N_11
REMARK    3  A    between atoms: C_7  and  N_8
REMARK    4  A    between atoms: C_12  and  C_14
REMARK    5  A    between atoms: C_14  and  N_15
REMARK    6  A    between atoms: N_15  and  C_16
REMARK    7  A    between atoms: N_15  and  S_22
REMARK    8  A    between atoms: S_22  and  C_25
REMARK                            x       y       z     vdW  Elec       q    Type
REMARK                         _______ _______ _______ _____ _____    ______ ____
ROOT
ATOM      1  N   UNL     1       0.977   2.477   0.286  0.00  0.00    -0.194 N 
ENDROOT
BRANCH   1   2
ATOM      2  C   UNL     1       1.625   2.726   1.498  0.00  0.00    +0.052 A 
ATOM      3  C   UNL     1       2.796   2.047   1.814  0.00  0.00    +0.025 A 
ATOM      4  C   UNL     1       3.437   2.300   3.011  0.00  0.00    +0.002 A 
ATOM      5  C   UNL     1       2.909   3.218   3.900  0.00  0.00    +0.000 A 
ATOM      6  C   UNL     1       1.741   3.892   3.591  0.00  0.00    +0.002 A 
ATOM      7  C   UNL     1       1.098   3.648   2.393  0.00  0.00    +0.025 A 
ENDBRANCH   1   2
BRANCH   1   8
ATOM      8  S   UNL     1      -0.588   1.937   0.280  0.00  0.00    +0.075 S 
ATOM      9  O   UNL     1      -1.180   2.422  -0.917  0.00  0.00    -0.150 OA
ATOM     10  O   UNL     1      -1.122   2.226   1.565  0.00  0.00    -0.150 OA
BRANCH   8  11
ATOM     11  C   UNL     1      -0.534   0.182   0.140  0.00  0.00    +0.109 A 
ATOM     12  C   UNL     1      -0.546  -0.412  -1.108  0.00  0.00    +0.031 A 
ATOM     13  C   UNL     1      -0.498  -1.789  -1.220  0.00  0.00    +0.040 A 
ATOM     14  C   UNL     1      -0.449  -2.574  -0.080  0.00  0.00    +0.124 A 
ATOM     15  C   UNL     1      -0.442  -1.978   1.170  0.00  0.00    +0.040 A 
ATOM     16  C   UNL     1      -0.485  -0.601   1.278  0.00  0.00    +0.031 A 
ATOM     17  F   UNL     1      -0.407  -3.920  -0.187  0.00  0.00    -0.205 F 
ENDBRANCH   8  11
ENDBRANCH   1   8
BRANCH   1  18
ATOM     18  C   UNL     1       1.683   2.693  -0.979  0.00  0.00    +0.227 C 
BRANCH  18  20
ATOM     19  N   UNL     1       2.140   4.575  -2.518  0.00  0.00    -0.284 N 
ATOM     20  C   UNL     1       1.564   4.141  -1.379  0.00  0.00    +0.236 C 
ATOM     21  O   UNL     1       0.951   4.916  -0.677  0.00  0.00    -0.274 OA
ATOM     22  H   UNL     1       2.572   3.943  -3.115  0.00  0.00    +0.155 HD
BRANCH  19  25
ATOM     23  C   UNL     1       4.361   5.664  -3.925  0.00  0.00    +0.048 C 
ATOM     24  C   UNL     1       3.178   6.508  -3.527  0.00  0.00    +0.001 A 
ATOM     25  C   UNL     1       2.115   5.936  -2.841  0.00  0.00    +0.039 A 
ATOM     26  C   UNL     1       1.029   6.719  -2.470  0.00  0.00    +0.024 A 
ATOM     27  C   UNL     1       1.008   8.062  -2.790  0.00  0.00    +0.004 A 
ATOM     28  C   UNL     1       2.065   8.628  -3.478  0.00  0.00    +0.033 A 
ATOM     29  C   UNL     1       3.148   7.851  -3.848  0.00  0.00    +0.131 A 
BRANCH  29  30
ATOM     30  N   UNL     1       4.278   8.461  -4.585  0.00  0.00    +0.057 N 
ATOM     31  O   UNL     1       4.308   9.665  -4.766  0.00  0.00    -0.126 OA
ATOM     32  O   UNL     1       5.178   7.758  -5.009  0.00  0.00    -0.126 OA
ENDBRANCH  29  30
ENDBRANCH  19  25
ENDBRANCH  18  20
ENDBRANCH   1  18
TORSDOF 7
