REMARK  Name = ZINC67577957
REMARK  10 active torsions:
REMARK  status: ('A' for Active; 'I' for Inactive)
REMARK    1  A    between atoms: C_1  and  C_2
REMARK    2  A    between atoms: C_5  and  N_14
REMARK    3  A    between atoms: C_7  and  C_8
REMARK    4  A    between atoms: N_10  and  C_11
REMARK    5  A    between atoms: C_11  and  C_12
REMARK    6  A    between atoms: C_11  and  C_13
REMARK    7  A    between atoms: N_17  and  C_18
REMARK    8  A    between atoms: C_18  and  C_20
REMARK    9  A    between atoms: C_18  and  C_21
REMARK   10  A    between atoms: C_28  and  C_30
REMARK                            x       y       z     vdW  Elec       q    Type
REMARK                         _______ _______ _______ _____ _____    ______ ____
ROOT
ATOM      1  N   UNL     1      -1.154  -2.769   0.059  0.00  0.00    -0.269 N 
ATOM      2  C   UNL     1      -0.626  -3.562  -0.895  0.00  0.00    +0.304 C 
ATOM      3  O   UNL     1      -0.229  -3.077  -1.937  0.00  0.00    -0.252 OA
ATOM      4  N   UNL     1      -0.536  -4.891  -0.693  0.00  0.00    -0.288 N 
ATOM      5  H   UNL     1      -1.537  -3.163   0.859  0.00  0.00    +0.156 HD
ATOM      6  H   UNL     1      -0.852  -5.278   0.138  0.00  0.00    +0.151 HD
ENDROOT
BRANCH   1  11
ATOM      7  C   UNL     1      -1.134   2.878  -0.576  0.00  0.00    +0.044 C 
ATOM      8  C   UNL     1      -1.140   1.380  -0.411  0.00  0.00    -0.038 A 
ATOM      9  C   UNL     1      -0.971   0.823   0.840  0.00  0.00    +0.006 A 
ATOM     10  C   UNL     1      -0.976  -0.550   0.997  0.00  0.00    +0.023 A 
ATOM     11  C   UNL     1      -1.151  -1.379  -0.105  0.00  0.00    +0.035 A 
ATOM     12  C   UNL     1      -1.322  -0.830  -1.366  0.00  0.00    +0.036 A 
ATOM     13  C   UNL     1      -1.323   0.556  -1.523  0.00  0.00    +0.041 A 
BRANCH  13  14
ATOM     14  C   UNL     1      -1.510   1.151  -2.864  0.00  0.00    +0.245 C 
ATOM     15  O   UNL     1      -1.441   2.355  -3.010  0.00  0.00    -0.270 OA
ATOM     16  N   UNL     1      -1.759   0.356  -3.924  0.00  0.00    -0.309 N 
ATOM     17  H   UNL     1      -1.814  -0.605  -3.808  0.00  0.00    +0.149 HD
BRANCH  16  18
ATOM     18  C   UNL     1      -1.945   0.945  -5.253  0.00  0.00    +0.067 C 
ATOM     19  C   UNL     1      -1.593  -0.090  -6.323  0.00  0.00    +0.027 C 
ATOM     20  C   UNL     1      -3.403   1.376  -5.420  0.00  0.00    +0.027 C 
ENDBRANCH  16  18
ENDBRANCH  13  14
ENDBRANCH   1  11
BRANCH   4  21
ATOM     21  C   UNL     1       0.038  -5.752  -1.730  0.00  0.00    +0.157 C 
ATOM     22  C   UNL     1       1.561  -5.776  -1.586  0.00  0.00    +0.038 C 
BRANCH  21  23
ATOM     23  C   UNL     1      -0.503  -7.151  -1.578  0.00  0.00    +0.236 C 
ATOM     24  O   UNL     1      -1.124  -7.456  -0.582  0.00  0.00    -0.274 OA
ATOM     25  N   UNL     1      -0.296  -8.062  -2.549  0.00  0.00    -0.297 N 
ATOM     26  C   UNL     1       0.561  -7.749  -3.700  0.00  0.00    +0.108 C 
ATOM     27  C   UNL     1       1.633  -8.836  -3.828  0.00  0.00    +0.019 C 
ATOM     28  C   UNL     1       0.956 -10.207  -3.903  0.00  0.00    +0.003 C 
ATOM     29  C   UNL     1       0.163 -10.458  -2.618  0.00  0.00    +0.022 C 
ATOM     30  C   UNL     1      -0.920  -9.390  -2.474  0.00  0.00    +0.073 C 
ATOM     31  C   UNL     1      -1.620  -9.553  -1.123  0.00  0.00    +0.028 C 
ENDBRANCH  21  23
ENDBRANCH   4  21
TORSDOF 5
