REMARK  Name = ZINC13190714
REMARK  6 active torsions:
REMARK  status: ('A' for Active; 'I' for Inactive)
REMARK    1  A    between atoms: C_3  and  N_14
REMARK    2  A    between atoms: C_4  and  N_11
REMARK    3  A    between atoms: C_6  and  C_7
REMARK    4  A    between atoms: C_8  and  C_9
REMARK    5  A    between atoms: N_17  and  S_20
REMARK    6  A    between atoms: S_20  and  C_23
REMARK                            x       y       z     vdW  Elec       q    Type
REMARK                         _______ _______ _______ _____ _____    ______ ____
ROOT
ATOM      1  N   UNL     1      -2.974   3.010  -2.791  0.00  0.00    -0.326 N 
ATOM      2  C   UNL     1      -2.123   3.862  -1.948  0.00  0.00    +0.122 C 
ATOM      3  C   UNL     1      -0.743   3.213  -1.800  0.00  0.00    +0.128 C 
ATOM      4  N   UNL     1      -0.923   1.838  -1.312  0.00  0.00    -0.174 NA
ATOM      5  C   UNL     1      -1.862   0.962  -2.029  0.00  0.00    +0.128 C 
ATOM      6  C   UNL     1      -3.203   1.701  -2.165  0.00  0.00    +0.122 C 
ENDROOT
BRANCH   1   9
ATOM      7  C   UNL     1      -6.266   4.561  -2.345  0.00  0.00    +0.010 A 
ATOM      8  C   UNL     1      -5.076   3.932  -2.058  0.00  0.00    +0.026 A 
ATOM      9  C   UNL     1      -4.178   3.641  -3.083  0.00  0.00    +0.060 A 
ATOM     10  C   UNL     1      -4.486   3.975  -4.399  0.00  0.00    +0.148 A 
ATOM     11  C   UNL     1      -5.667   4.595  -4.693  0.00  0.00    +0.042 A 
ATOM     12  C   UNL     1      -6.574   4.896  -3.669  0.00  0.00    -0.023 A 
BRANCH  10  13
ATOM     13  N   UNL     1      -3.529   3.659  -5.483  0.00  0.00    +0.058 N 
ATOM     14  O   UNL     1      -3.750   4.037  -6.620  0.00  0.00    -0.126 OA
ATOM     15  O   UNL     1      -2.522   3.019  -5.239  0.00  0.00    -0.126 OA
ENDBRANCH  10  13
BRANCH  12  16
ATOM     16  C   UNL     1      -7.845   5.562  -3.984  0.00  0.00    +0.015 C 
ATOM     17  C   UNL     1      -8.719   5.852  -2.994  0.00  0.00    +0.096 C 
BRANCH  17  18
ATOM     18  C   UNL     1      -9.945   6.495  -3.298  0.00  0.00    +0.380 C 
ATOM     19  O   UNL     1     -10.210   6.786  -4.449  0.00  0.00    -0.241 OA
ATOM     20  O   UNL     1     -10.817   6.784  -2.310  0.00  0.00    -0.241 OA
ENDBRANCH  17  18
ENDBRANCH  12  16
ENDBRANCH   1   9
BRANCH   4  21
ATOM     21  S   UNL     1      -0.086   1.288   0.006  0.00  0.00    +0.061 S 
ATOM     22  O   UNL     1      -0.028  -0.127  -0.111  0.00  0.00    -0.153 OA
ATOM     23  O   UNL     1       1.081   2.092   0.111  0.00  0.00    -0.153 OA
BRANCH  21  24
ATOM     24  C   UNL     1      -1.066   1.635   1.429  0.00  0.00    +0.107 A 
ATOM     25  C   UNL     1      -0.914   2.836   2.096  0.00  0.00    +0.030 A 
ATOM     26  C   UNL     1      -1.686   3.112   3.209  0.00  0.00    +0.023 A 
ATOM     27  C   UNL     1      -2.605   2.182   3.661  0.00  0.00    +0.059 A 
ATOM     28  C   UNL     1      -2.754   0.977   2.996  0.00  0.00    +0.061 A 
ATOM     29  C   UNL     1      -1.984   0.705   1.879  0.00  0.00    +0.050 A 
ATOM     30 CL   UNL     1      -3.906  -0.191   3.562  0.00  0.00    -0.082 Cl
ATOM     31 CL   UNL     1      -3.571   2.526   5.062  0.00  0.00    -0.082 Cl
ENDBRANCH  21  24
ENDBRANCH   4  21
TORSDOF 6
