REMARK  Name = ZINC01461935
REMARK  9 active torsions:
REMARK  status: ('A' for Active; 'I' for Inactive)
REMARK    1  A    between atoms: C_1  and  C_2
REMARK    2  A    between atoms: C_5  and  N_9
REMARK    3  A    between atoms: C_7  and  C_8
REMARK    4  A    between atoms: N_9  and  S_10
REMARK    5  A    between atoms: S_10  and  C_13
REMARK    6  A    between atoms: C_26  and  C_29
REMARK    7  A    between atoms: C_32  and  C_35
REMARK    8  A    between atoms: C_35  and  O_37
REMARK    9  A    between atoms: O_37  and  C_38
REMARK                            x       y       z     vdW  Elec       q    Type
REMARK                         _______ _______ _______ _____ _____    ______ ____
ROOT
ATOM      1  C   UNL     1       1.219   4.083   0.626  0.00  0.00    +0.109 A 
ATOM      2  C   UNL     1       1.769   3.122   1.456  0.00  0.00    +0.030 A 
ATOM      3  C   UNL     1       1.912   3.371   2.805  0.00  0.00    +0.025 A 
ATOM      4  C   UNL     1       1.501   4.585   3.342  0.00  0.00    +0.031 A 
ATOM      5  C   UNL     1       0.936   5.548   2.498  0.00  0.00    -0.018 A 
ATOM      6  C   UNL     1       0.811   5.296   1.149  0.00  0.00    +0.034 A 
ATOM      7  C   UNL     1       0.487   6.816   3.114  0.00  0.00    +0.049 C 
ATOM      8  C   UNL     1       0.409   8.082   2.342  0.00  0.00    -0.023 C 
ATOM      9  C   UNL     1       0.644   9.096   3.167  0.00  0.00    -0.030 C 
ATOM     10  C   UNL     1       0.936   8.569   4.573  0.00  0.00    +0.033 C 
ATOM     11  C   UNL     1       1.470   7.162   4.272  0.00  0.00    +0.029 C 
ATOM     12  C   UNL     1       1.242   6.096   5.328  0.00  0.00    +0.105 C 
ATOM     13  N   UNL     1       1.675   4.823   4.710  0.00  0.00    -0.336 N 
ATOM     14  H   UNL     1       2.085   4.141   5.264  0.00  0.00    +0.147 HD
ENDROOT
BRANCH  12  15
ATOM     15  C   UNL     1      -0.218   6.028   5.693  0.00  0.00    -0.027 A 
ATOM     16  C   UNL     1      -0.710   6.818   6.717  0.00  0.00    +0.006 A 
ATOM     17  C   UNL     1      -2.047   6.764   7.053  0.00  0.00    +0.015 A 
ATOM     18  C   UNL     1      -2.902   5.902   6.364  0.00  0.00    +0.059 A 
ATOM     19  C   UNL     1      -2.398   5.103   5.336  0.00  0.00    +0.015 A 
ATOM     20  C   UNL     1      -1.060   5.171   5.007  0.00  0.00    +0.006 A 
BRANCH  18  21
ATOM     21  C   UNL     1      -4.334   5.835   6.721  0.00  0.00    +0.339 C 
ATOM     22  O   UNL     1      -5.076   5.084   6.120  0.00  0.00    -0.245 OA
BRANCH  21  23
ATOM     23  O   UNL     1      -4.817   6.607   7.714  0.00  0.00    -0.464 OA
ATOM     24  C   UNL     1      -6.233   6.489   8.011  0.00  0.00    +0.280 C 
ENDBRANCH  21  23
ENDBRANCH  18  21
ENDBRANCH  12  15
BRANCH   1  25
ATOM     25  S   UNL     1       1.047   3.764  -1.098  0.00  0.00    +0.072 S 
ATOM     26  O   UNL     1       2.009   2.771  -1.426  0.00  0.00    -0.150 OA
ATOM     27  O   UNL     1       1.008   5.029  -1.743  0.00  0.00    -0.150 OA
BRANCH  25  28
ATOM     28  N   UNL     1      -0.441   3.072  -1.322  0.00  0.00    -0.216 N 
ATOM     29  H   UNL     1      -0.508   2.158  -1.639  0.00  0.00    +0.174 HD
BRANCH  28  34
ATOM     30  C   UNL     1      -5.144   6.057  -0.256  0.00  0.00    +0.044 C 
ATOM     31  C   UNL     1      -3.894   5.264  -0.539  0.00  0.00    -0.047 A 
ATOM     32  C   UNL     1      -2.853   5.844  -1.241  0.00  0.00    +0.005 A 
ATOM     33  C   UNL     1      -1.707   5.120  -1.502  0.00  0.00    +0.025 A 
ATOM     34  C   UNL     1      -1.599   3.808  -1.059  0.00  0.00    +0.048 A 
ATOM     35  C   UNL     1      -2.649   3.226  -0.359  0.00  0.00    +0.028 A 
ATOM     36  C   UNL     1      -3.791   3.958  -0.096  0.00  0.00    -0.046 A 
ATOM     37  C   UNL     1      -4.927   3.330   0.669  0.00  0.00    +0.044 C 
ENDBRANCH  28  34
ENDBRANCH  25  28
ENDBRANCH   1  25
TORSDOF 6
