REMARK  Name = ZINC12577886
REMARK  8 active torsions:
REMARK  status: ('A' for Active; 'I' for Inactive)
REMARK    1  A    between atoms: C_1  and  C_2
REMARK    2  A    between atoms: C_9  and  S_11
REMARK    3  A    between atoms: S_11  and  C_12
REMARK    4  A    between atoms: C_12  and  C_13
REMARK    5  A    between atoms: C_12  and  C_14
REMARK    6  A    between atoms: N_16  and  C_17
REMARK    7  A    between atoms: C_17  and  C_18
REMARK    8  A    between atoms: N_20  and  C_21
REMARK                            x       y       z     vdW  Elec       q    Type
REMARK                         _______ _______ _______ _____ _____    ______ ____
ROOT
ATOM      1  C   UNL     1       0.039  -8.430   1.610  0.00  0.00    +0.227 C 
ATOM      2  O   UNL     1       0.333  -8.629   2.770  0.00  0.00    -0.275 OA
ATOM      3  N   UNL     1      -0.383  -9.451   0.837  0.00  0.00    -0.306 N 
ATOM      4  H   UNL     1      -0.618  -9.292  -0.090  0.00  0.00    +0.149 HD
ENDROOT
BRANCH   1   5
ATOM      5  C   UNL     1       0.146  -7.042   1.032  0.00  0.00    +0.137 C 
ATOM      6  C   UNL     1       1.443  -6.922   0.231  0.00  0.00    +0.029 C 
BRANCH   5   7
ATOM      7  S   UNL     1       0.151  -5.826   2.378  0.00  0.00    -0.075 S 
BRANCH   7  16
ATOM      8  C   UNL     1       0.070   1.494  -0.014  0.00  0.00    +0.044 C 
ATOM      9  C   UNL     1       0.081  -0.012  -0.021  0.00  0.00    -0.048 A 
ATOM     10  C   UNL     1       0.074  -0.696  -1.227  0.00  0.00    +0.005 A 
ATOM     11  C   UNL     1       0.084  -2.073  -1.250  0.00  0.00    +0.030 A 
ATOM     12  C   UNL     1       0.102  -2.787  -0.050  0.00  0.00    +0.090 A 
ATOM     13  C   UNL     1       0.109  -2.089   1.170  0.00  0.00    +0.067 A 
ATOM     14  C   UNL     1       0.104  -0.703   1.174  0.00  0.00    +0.031 A 
ATOM     15  N   UNL     1       0.127  -3.053   2.165  0.00  0.00    -0.333 N 
ATOM     16  C   UNL     1       0.130  -4.272   1.549  0.00  0.00    +0.168 A 
ATOM     17  N   UNL     1       0.115  -4.113   0.248  0.00  0.00    -0.222 NA
ATOM     18  H   UNL     1       0.136  -2.891   3.122  0.00  0.00    +0.168 HD
ENDBRANCH   7  16
ENDBRANCH   5   7
ENDBRANCH   1   5
BRANCH   3  19
ATOM     19  C   UNL     1      -0.486 -10.800   1.399  0.00  0.00    +0.200 C 
BRANCH  19  20
ATOM     20  C   UNL     1      -0.977 -11.750   0.337  0.00  0.00    +0.234 C 
ATOM     21  O   UNL     1      -1.217 -11.340  -0.779  0.00  0.00    -0.274 OA
ATOM     22  N   UNL     1      -1.150 -13.055   0.627  0.00  0.00    -0.282 N 
ATOM     23  H   UNL     1      -0.897 -13.395   1.500  0.00  0.00    +0.155 HD
BRANCH  22  24
ATOM     24  C   UNL     1      -1.695 -13.920  -0.332  0.00  0.00    +0.072 A 
ATOM     25  C   UNL     1      -1.413 -13.731  -1.678  0.00  0.00    +0.029 A 
ATOM     26  C   UNL     1      -1.951 -14.584  -2.623  0.00  0.00    +0.043 A 
ATOM     27  C   UNL     1      -2.770 -15.628  -2.229  0.00  0.00    +0.161 A 
ATOM     28  C   UNL     1      -3.054 -15.820  -0.886  0.00  0.00    +0.195 A 
ATOM     29  C   UNL     1      -2.513 -14.971   0.064  0.00  0.00    +0.182 A 
ATOM     30  F   UNL     1      -2.784 -15.161   1.374  0.00  0.00    -0.200 F 
ATOM     31  F   UNL     1      -3.855 -16.839  -0.504  0.00  0.00    -0.199 F 
ATOM     32  F   UNL     1      -3.294 -16.460  -3.156  0.00  0.00    -0.202 F 
ENDBRANCH  22  24
ENDBRANCH  19  20
ENDBRANCH   3  19
TORSDOF 6
