REMARK  Name = ZINC47075360
REMARK  6 active torsions:
REMARK  status: ('A' for Active; 'I' for Inactive)
REMARK    1  A    between atoms: C_1  and  C_2
REMARK    2  A    between atoms: C_2  and  C_3
REMARK    3  A    between atoms: C_9  and  C_11
REMARK    4  A    between atoms: C_14  and  C_16
REMARK    5  A    between atoms: C_22  and  C_24
REMARK    6  A    between atoms: C_24  and  C_25
REMARK                            x       y       z     vdW  Elec       q    Type
REMARK                         _______ _______ _______ _____ _____    ______ ____
ROOT
ATOM      1  C   UNL     1       3.485  -2.539  -6.579  0.00  0.00    +0.075 A 
ATOM      2  C   UNL     1       4.709  -2.908  -7.119  0.00  0.00    +0.021 A 
ATOM      3  C   UNL     1       4.758  -3.303  -8.425  0.00  0.00    +0.021 A 
ATOM      4  C   UNL     1       3.582  -3.321  -9.161  0.00  0.00    +0.075 A 
ATOM      5  S   UNL     1       2.380  -2.769  -7.962  0.00  0.00    -0.079 S 
ENDROOT
BRANCH   1  12
ATOM      6  C   UNL     1       0.707  -0.490  -1.238  0.00  0.00    +0.103 A 
ATOM      7  N   UNL     1       1.982  -0.760  -1.437  0.00  0.00    -0.145 NA
ATOM      8  N   UNL     1       2.418  -1.163  -2.549  0.00  0.00    -0.126 NA
ATOM      9  C   UNL     1       1.617  -1.342  -3.591  0.00  0.00    +0.188 A 
ATOM     10  S   UNL     1       0.051  -0.874  -2.859  0.00  0.00    -0.035 S 
ATOM     11  N   UNL     1       1.909  -1.773  -4.879  0.00  0.00    -0.259 N 
ATOM     12  C   UNL     1       3.177  -2.082  -5.215  0.00  0.00    +0.256 C 
ATOM     13  O   UNL     1       4.066  -1.984  -4.391  0.00  0.00    -0.269 OA
ATOM     14  H   UNL     1       1.200  -1.852  -5.536  0.00  0.00    +0.157 HD
BRANCH   6  16
ATOM     15  C   UNL     1      -0.019   1.526   0.010  0.00  0.00    +0.011 C 
ATOM     16  C   UNL     1       0.002  -0.004   0.002  0.00  0.00    +0.061 C 
ENDBRANCH   6  16
ENDBRANCH   1  12
BRANCH   4  17
ATOM     17  C   UNL     1       3.377  -3.702 -10.567  0.00  0.00    +0.256 C 
ATOM     18  O   UNL     1       4.321  -4.064 -11.243  0.00  0.00    -0.269 OA
ATOM     19  N   UNL     1       2.142  -3.652 -11.105  0.00  0.00    -0.259 N 
ATOM     20  C   UNL     1       1.948  -4.012 -12.433  0.00  0.00    +0.188 A 
ATOM     21  N   UNL     1       2.820  -4.435 -13.338  0.00  0.00    -0.126 NA
ATOM     22  N   UNL     1       2.470  -4.724 -14.515  0.00  0.00    -0.145 NA
ATOM     23  C   UNL     1       1.219  -4.624 -14.920  0.00  0.00    +0.103 A 
ATOM     24  S   UNL     1       0.449  -4.047 -13.410  0.00  0.00    -0.035 S 
ATOM     25  H   UNL     1       1.389  -3.364 -10.566  0.00  0.00    +0.157 HD
BRANCH  23  26
ATOM     26  C   UNL     1       0.611  -4.918 -16.267  0.00  0.00    +0.061 C 
ATOM     27  C   UNL     1       0.165  -6.381 -16.316  0.00  0.00    +0.011 C 
ENDBRANCH  23  26
ENDBRANCH   4  17
TORSDOF 4
