REMARK  Name = ZINC01509254
REMARK  8 active torsions:
REMARK  status: ('A' for Active; 'I' for Inactive)
REMARK    1  A    between atoms: C_1  and  C_2
REMARK    2  A    between atoms: C_2  and  N_3
REMARK    3  A    between atoms: N_3  and  C_4
REMARK    4  A    between atoms: N_3  and  C_6
REMARK    5  A    between atoms: C_4  and  C_5
REMARK    6  A    between atoms: C_11  and  C_27
REMARK    7  A    between atoms: N_13  and  N_14
REMARK    8  A    between atoms: C_15  and  C_17
REMARK                            x       y       z     vdW  Elec       q    Type
REMARK                         _______ _______ _______ _____ _____    ______ ____
ROOT
ATOM      1  C   UNL     1      -1.233   1.752   0.017  0.00  0.00    +0.033 A 
ATOM      2  C   UNL     1      -0.013   1.076   0.008  0.00  0.00    +0.024 A 
ATOM      3  C   UNL     1       1.162   1.770   0.001  0.00  0.00    +0.013 A 
ATOM      4  C   UNL     1       1.147   3.171   0.018  0.00  0.00    +0.018 A 
ATOM      5  C   UNL     1       2.365   3.901   0.045  0.00  0.00    +0.030 A 
ATOM      6  C   UNL     1       2.307   5.268   0.258  0.00  0.00    +0.100 A 
ATOM      7  C   UNL     1       0.971   5.867   0.474  0.00  0.00    +0.248 A 
ATOM      8  N   UNL     1       0.828   6.979   1.143  0.00  0.00    -0.141 NA
ATOM      9  O   UNL     1      -0.105   5.214  -0.049  0.00  0.00    -0.436 OA
ATOM     10  C   UNL     1      -0.082   3.858   0.003  0.00  0.00    +0.139 A 
ATOM     11  C   UNL     1      -1.266   3.142   0.018  0.00  0.00    +0.070 A 
ENDROOT
BRANCH   6  12
ATOM     12  C   UNL     1       3.525   6.093   0.268  0.00  0.00    +0.247 C 
ATOM     13  O   UNL     1       4.611   5.576   0.087  0.00  0.00    -0.270 OA
ATOM     14  N   UNL     1       3.438   7.422   0.478  0.00  0.00    -0.325 N 
ATOM     15  H   UNL     1       2.571   7.834   0.622  0.00  0.00    +0.145 HD
ATOM     16  H   UNL     1       4.241   7.965   0.485  0.00  0.00    +0.145 HD
ENDBRANCH   6  12
BRANCH   8  17
ATOM     17  N   UNL     1      -0.450   7.523   1.334  0.00  0.00    -0.200 N 
ATOM     18  C   UNL     1      -0.597   8.671   2.024  0.00  0.00    +0.265 C 
ATOM     19  O   UNL     1       0.379   9.235   2.482  0.00  0.00    -0.268 OA
ATOM     20  H   UNL     1      -1.228   7.073   0.969  0.00  0.00    +0.178 HD
BRANCH  18  21
ATOM     21  C   UNL     1      -1.944   9.244   2.225  0.00  0.00    +0.057 A 
ATOM     22  C   UNL     1      -3.066   8.602   1.696  0.00  0.00    +0.014 A 
ATOM     23  C   UNL     1      -4.321   9.139   1.893  0.00  0.00    +0.001 A 
ATOM     24  C   UNL     1      -4.470  10.318   2.602  0.00  0.00    +0.001 A 
ATOM     25  C   UNL     1      -3.364  10.963   3.124  0.00  0.00    +0.021 A 
ATOM     26  C   UNL     1      -2.101  10.434   2.940  0.00  0.00    +0.053 A 
ATOM     27 CL   UNL     1      -0.713  11.244   3.597  0.00  0.00    -0.083 Cl
ENDBRANCH  18  21
ENDBRANCH   8  17
BRANCH   1  28
ATOM     28  N   UNL     1      -2.422   1.033   0.032  0.00  0.00    -0.330 N 
BRANCH  28  30
ATOM     29  C   UNL     1      -2.368  -0.937   1.481  0.00  0.00    +0.024 C 
ATOM     30  C   UNL     1      -2.392  -0.432   0.037  0.00  0.00    +0.102 C 
ENDBRANCH  28  30
BRANCH  28  31
ATOM     31  C   UNL     1      -3.706   1.739   0.042  0.00  0.00    +0.102 C 
ATOM     32  C   UNL     1      -4.167   1.980  -1.397  0.00  0.00    +0.024 C 
ENDBRANCH  28  31
ENDBRANCH   1  28
TORSDOF 6
