REMARK  Name = ZINC39663803
REMARK  11 active torsions:
REMARK  status: ('A' for Active; 'I' for Inactive)
REMARK    1  A    between atoms: C_1  and  C_2
REMARK    2  A    between atoms: C_6  and  C_9
REMARK    3  A    between atoms: C_13  and  C_22
REMARK    4  A    between atoms: N_24  and  C_25
REMARK    5  A    between atoms: C_25  and  C_26
REMARK    6  A    between atoms: C_26  and  C_28
REMARK    7  A    between atoms: C_26  and  N_36
REMARK    8  A    between atoms: C_31  and  O_34
REMARK    9  A    between atoms: O_34  and  C_35
REMARK   10  A    between atoms: N_36  and  C_37
REMARK   11  A    between atoms: N_36  and  C_38
REMARK                            x       y       z     vdW  Elec       q    Type
REMARK                         _______ _______ _______ _____ _____    ______ ____
ROOT
ATOM      1  C   UNL     1       0.246  -4.294   1.856  0.00  0.00    +0.252 C 
ATOM      2  O   UNL     1       1.256  -4.805   2.300  0.00  0.00    -0.270 OA
ATOM      3  N   UNL     1      -0.935  -4.489   2.474  0.00  0.00    -0.296 N 
ATOM      4  C   UNL     1      -2.263  -3.959   2.083  0.00  0.00    +0.121 C 
ATOM      5  C   UNL     1      -3.243  -5.121   2.358  0.00  0.00    +0.100 C 
ATOM      6  C   UNL     1      -2.541  -5.984   3.420  0.00  0.00    -0.004 C 
ATOM      7  C   UNL     1      -1.202  -5.286   3.695  0.00  0.00    +0.115 C 
ATOM      8  C   UNL     1      -2.296  -7.390   2.881  0.00  0.00    -0.010 C 
ATOM      9  C   UNL     1      -1.649  -8.245   3.974  0.00  0.00    -0.082 C 
ATOM     10  N   UNL     1      -2.533  -8.296   5.145  0.00  0.00    +0.379 N 
ATOM     11  C   UNL     1      -2.689  -6.951   5.713  0.00  0.00    -0.082 C 
ATOM     12  C   UNL     1      -3.380  -6.041   4.693  0.00  0.00    -0.010 C 
ATOM     13  H   UNL     1      -3.436  -8.649   4.868  0.00  0.00    -0.086 HD
ATOM     14  H   UNL     1      -2.133  -8.909   5.840  0.00  0.00    -0.086 HD
ENDROOT
BRANCH   1  20
ATOM     15  C   UNL     1       0.850   0.172  -0.293  0.00  0.00    +0.047 C 
ATOM     16  C   UNL     1       0.605  -1.311  -0.401  0.00  0.00    -0.014 A 
ATOM     17  C   UNL     1       0.442  -1.894  -1.645  0.00  0.00    +0.009 A 
ATOM     18  C   UNL     1       0.217  -3.254  -1.755  0.00  0.00    +0.039 A 
ATOM     19  C   UNL     1       0.151  -4.042  -0.621  0.00  0.00    +0.138 A 
ATOM     20  C   UNL     1       0.315  -3.461   0.640  0.00  0.00    +0.107 A 
ATOM     21  C   UNL     1       0.548  -2.085   0.743  0.00  0.00    +0.141 A 
ATOM     22  F   UNL     1       0.714  -1.514   1.956  0.00  0.00    -0.204 F 
ATOM     23  F   UNL     1      -0.070  -5.370  -0.732  0.00  0.00    -0.205 F 
ENDBRANCH   1  20
BRANCH   5  24
ATOM     24  C   UNL     1      -4.550  -4.591   2.889  0.00  0.00    +0.218 C 
ATOM     25  O   UNL     1      -4.568  -3.576   3.553  0.00  0.00    -0.275 OA
ATOM     26  N   UNL     1      -5.699  -5.245   2.627  0.00  0.00    -0.316 N 
ATOM     27  H   UNL     1      -5.685  -6.056   2.096  0.00  0.00    +0.149 HD
BRANCH  26  28
ATOM     28  C   UNL     1      -6.969  -4.729   3.144  0.00  0.00    +0.093 C 
BRANCH  28  29
ATOM     29  C   UNL     1      -8.092  -5.714   2.811  0.00  0.00    -0.021 C 
BRANCH  29  30
ATOM     30  C   UNL     1      -7.849  -7.015   3.533  0.00  0.00    -0.059 A 
ATOM     31  C   UNL     1      -8.190  -7.138   4.867  0.00  0.00    +0.005 A 
ATOM     32  C   UNL     1      -7.968  -8.329   5.531  0.00  0.00    +0.046 A 
ATOM     33  C   UNL     1      -7.403  -9.402   4.857  0.00  0.00    +0.120 A 
ATOM     34  C   UNL     1      -7.063  -9.276   3.518  0.00  0.00    +0.046 A 
ATOM     35  C   UNL     1      -7.292  -8.085   2.857  0.00  0.00    +0.005 A 
BRANCH  33  36
ATOM     36  O   UNL     1      -7.183 -10.575   5.508  0.00  0.00    -0.495 OA
ATOM     37  C   UNL     1      -6.599 -11.637   4.751  0.00  0.00    +0.277 C 
ENDBRANCH  33  36
ENDBRANCH  29  30
BRANCH  29  38
ATOM     38  N   UNL     1      -9.380  -5.150   3.238  0.00  0.00    +0.382 N 
ATOM     39  C   UNL     1      -9.636  -3.904   2.504  0.00  0.00    -0.096 C 
ATOM     40  C   UNL     1     -10.453  -6.114   2.957  0.00  0.00    -0.096 C 
ATOM     41  H   UNL     1      -9.351  -4.958   4.228  0.00  0.00    -0.082 HD
ENDBRANCH  29  38
ENDBRANCH  28  29
ENDBRANCH  26  28
ENDBRANCH   5  24
TORSDOF 7
