REMARK  Name = ZINC08753973
REMARK  8 active torsions:
REMARK  status: ('A' for Active; 'I' for Inactive)
REMARK    1  A    between atoms: C_1  and  O_2
REMARK    2  A    between atoms: O_2  and  C_3
REMARK    3  A    between atoms: C_6  and  C_9
REMARK    4  A    between atoms: C_15  and  C_28
REMARK    5  A    between atoms: C_15  and  O_32
REMARK    6  A    between atoms: C_17  and  C_19
REMARK    7  A    between atoms: C_20  and  C_21
REMARK    8  A    between atoms: C_26  and  O_27
REMARK                            x       y       z     vdW  Elec       q    Type
REMARK                         _______ _______ _______ _____ _____    ______ ____
ROOT
ATOM      1  C   UNL     1      -2.441   4.170   0.036  0.00  0.00    +0.080 A 
ATOM      2  C   UNL     1      -3.576   3.408   0.037  0.00  0.00    +0.077 A 
ATOM      3  S   UNL     1      -2.873   1.764   0.018  0.00  0.00    -0.058 S 
ATOM      4  C   UNL     1      -1.155   2.256   0.020  0.00  0.00    +0.184 A 
ATOM      5  N   UNL     1      -1.258   3.574   0.028  0.00  0.00    -0.223 NA
ATOM      6  N   UNL     1      -0.018   1.467   0.010  0.00  0.00    -0.160 N 
ATOM      7  C   UNL     1       0.002  -0.004   0.002  0.00  0.00    +0.256 C 
ATOM      8  C   UNL     1       1.505  -0.348  -0.014  0.00  0.00    +0.123 C 
ATOM      9  C   UNL     1       2.188   1.001  -0.013  0.00  0.00    +0.064 C 
ATOM     10  N   UNL     1       1.294   1.937   0.000  0.00  0.00    -0.180 NA
ENDROOT
BRANCH   1  14
ATOM     11  C   UNL     1      -2.705   8.415   0.059  0.00  0.00    +0.120 A 
ATOM     12  C   UNL     1      -3.857   7.649   0.166  0.00  0.00    +0.046 A 
ATOM     13  C   UNL     1      -3.775   6.272   0.158  0.00  0.00    +0.013 A 
ATOM     14  C   UNL     1      -2.533   5.650   0.044  0.00  0.00    +0.001 A 
ATOM     15  C   UNL     1      -1.377   6.422  -0.057  0.00  0.00    +0.013 A 
ATOM     16  C   UNL     1      -1.466   7.799  -0.054  0.00  0.00    +0.046 A 
BRANCH  11  18
ATOM     17  C   UNL     1      -1.563  10.498  -0.046  0.00  0.00    +0.277 C 
ATOM     18  O   UNL     1      -2.789   9.772   0.067  0.00  0.00    -0.495 OA
ENDBRANCH  11  18
ENDBRANCH   1  14
BRANCH   7  19
ATOM     19  C   UNL     1      -0.666  -0.558   1.262  0.00  0.00    +0.438 C 
ATOM     20  F   UNL     1      -2.004  -0.150   1.298  0.00  0.00    -0.166 F 
ATOM     21  F   UNL     1      -0.605  -1.956   1.246  0.00  0.00    -0.166 F 
ATOM     22  F   UNL     1      -0.001  -0.075   2.394  0.00  0.00    -0.166 F 
ENDBRANCH   7  19
BRANCH   9  23
ATOM     23  C   UNL     1       3.590   1.209  -0.026  0.00  0.00    +0.026 C 
ATOM     24  C   UNL     1       4.086   2.464  -0.024  0.00  0.00    +0.013 C 
BRANCH  24  25
ATOM     25  C   UNL     1       5.541   2.679  -0.037  0.00  0.00    +0.016 A 
ATOM     26  C   UNL     1       6.414   1.587  -0.052  0.00  0.00    +0.011 A 
ATOM     27  C   UNL     1       7.776   1.796  -0.064  0.00  0.00    +0.001 A 
ATOM     28  C   UNL     1       8.285   3.084  -0.062  0.00  0.00    +0.004 A 
ATOM     29  C   UNL     1       7.433   4.173  -0.048  0.00  0.00    +0.046 A 
ATOM     30  C   UNL     1       6.062   3.982  -0.041  0.00  0.00    +0.124 A 
BRANCH  30  31
ATOM     31  O   UNL     1       5.224   5.051  -0.033  0.00  0.00    -0.506 OA
ATOM     32  H   UNL     1       4.989   5.360   0.853  0.00  0.00    +0.292 HD
ENDBRANCH  30  31
ENDBRANCH  24  25
ENDBRANCH   9  23
BRANCH   7  33
ATOM     33  O   UNL     1      -0.641  -0.509  -1.170  0.00  0.00    -0.363 OA
ATOM     34  H   UNL     1      -1.574  -0.264  -1.243  0.00  0.00    +0.212 HD
ENDBRANCH   7  33
TORSDOF 7
