REMARK  Name = ZINC12520896
REMARK  5 active torsions:
REMARK  status: ('A' for Active; 'I' for Inactive)
REMARK    1  A    between atoms: C_4  and  C_7
REMARK    2  A    between atoms: C_13  and  C_15
REMARK    3  A    between atoms: C_20  and  N_21
REMARK    4  A    between atoms: N_21  and  S_22
REMARK    5  A    between atoms: S_22  and  C_25
REMARK                            x       y       z     vdW  Elec       q    Type
REMARK                         _______ _______ _______ _____ _____    ______ ____
ROOT
ATOM      1  C   UNL     1       3.213   2.861  -3.756  0.00  0.00    +0.059 A 
ATOM      2  C   UNL     1       3.100   4.026  -4.519  0.00  0.00    +0.015 A 
ATOM      3  C   UNL     1       2.414   5.111  -4.019  0.00  0.00    +0.001 A 
ATOM      4  C   UNL     1       1.834   5.054  -2.761  0.00  0.00    +0.002 A 
ATOM      5  C   UNL     1       1.932   3.909  -1.998  0.00  0.00    +0.025 A 
ATOM      6  C   UNL     1       2.625   2.806  -2.483  0.00  0.00    +0.060 A 
ENDROOT
BRANCH   1  13
ATOM      7  C   UNL     1       2.825   0.039  -7.872  0.00  0.00    +0.022 C 
ATOM      8  C   UNL     1       3.663  -0.722  -6.842  0.00  0.00    +0.027 C 
ATOM      9  C   UNL     1       4.617   0.254  -6.146  0.00  0.00    +0.108 C 
ATOM     10  N   UNL     1       3.834   1.364  -5.587  0.00  0.00    -0.297 N 
ATOM     11  C   UNL     1       2.922   2.102  -6.472  0.00  0.00    +0.108 C 
ATOM     12  C   UNL     1       1.991   1.109  -7.165  0.00  0.00    +0.027 C 
ATOM     13  C   UNL     1       3.946   1.696  -4.285  0.00  0.00    +0.248 C 
ATOM     14  O   UNL     1       4.651   1.035  -3.547  0.00  0.00    -0.270 OA
BRANCH   7  18
ATOM     15  C   UNL     1       0.228  -2.691  -9.886  0.00  0.00    +0.000 A 
ATOM     16  C   UNL     1       1.159  -1.965 -10.604  0.00  0.00    +0.000 A 
ATOM     17  C   UNL     1       2.000  -1.082  -9.953  0.00  0.00    +0.004 A 
ATOM     18  C   UNL     1       1.909  -0.924  -8.583  0.00  0.00    -0.044 A 
ATOM     19  C   UNL     1       0.981  -1.653  -7.863  0.00  0.00    +0.004 A 
ATOM     20  C   UNL     1       0.137  -2.533  -8.515  0.00  0.00    +0.000 A 
ENDBRANCH   7  18
ENDBRANCH   1  13
BRANCH   6  21
ATOM     21  N   UNL     1       2.730   1.654  -1.714  0.00  0.00    -0.216 N 
ATOM     22  H   UNL     1       3.495   1.067  -1.822  0.00  0.00    +0.174 HD
BRANCH  21  23
ATOM     23  S   UNL     1       1.549   1.282  -0.615  0.00  0.00    +0.072 S 
ATOM     24  O   UNL     1       1.398   2.422   0.220  0.00  0.00    -0.150 OA
ATOM     25  O   UNL     1       1.865  -0.003  -0.099  0.00  0.00    -0.150 OA
BRANCH  23  26
ATOM     26  C   UNL     1       0.040   1.109  -1.509  0.00  0.00    +0.111 A 
ATOM     27  C   UNL     1      -0.774   2.211  -1.705  0.00  0.00    +0.031 A 
ATOM     28  C   UNL     1      -1.959   2.085  -2.404  0.00  0.00    +0.030 A 
ATOM     29  C   UNL     1      -2.333   0.850  -2.912  0.00  0.00    +0.067 A 
ATOM     30  C   UNL     1      -1.511  -0.261  -2.714  0.00  0.00    +0.069 A 
ATOM     31  C   UNL     1      -0.324  -0.125  -2.011  0.00  0.00    +0.056 A 
ATOM     32  N   UNL     1      -2.139  -1.342  -3.328  0.00  0.00    -0.306 N 
ATOM     33  H   UNL     1      -1.804  -2.252  -3.357  0.00  0.00    +0.170 HD
ATOM     34  C   UNL     1      -3.291  -0.908  -3.875  0.00  0.00    +0.325 A 
ATOM     35  O   UNL     1      -4.081  -1.602  -4.487  0.00  0.00    -0.247 OA
ATOM     36  N   UNL     1      -3.436   0.410  -3.640  0.00  0.00    -0.306 N 
ATOM     37  H   UNL     1      -4.181   0.959  -3.929  0.00  0.00    +0.170 HD
ENDBRANCH  23  26
ENDBRANCH  21  23
ENDBRANCH   6  21
TORSDOF 5
