REMARK  Name = ZINC59488170
REMARK  7 active torsions:
REMARK  status: ('A' for Active; 'I' for Inactive)
REMARK    1  A    between atoms: C_1  and  C_2
REMARK    2  A    between atoms: C_2  and  C_4
REMARK    3  A    between atoms: C_2  and  S_12
REMARK    4  A    between atoms: S_12  and  C_13
REMARK    5  A    between atoms: C_18  and  N_22
REMARK    6  A    between atoms: C_23  and  C_24
REMARK    7  A    between atoms: C_33  and  O_34
REMARK                            x       y       z     vdW  Elec       q    Type
REMARK                         _______ _______ _______ _____ _____    ______ ____
ROOT
ATOM      1  C   UNL     1       2.509  -0.029  -1.285  0.00  0.00    +0.136 A 
ATOM      2  N   UNL     1       3.032   0.650  -0.288  0.00  0.00    -0.233 NA
ATOM      3  C   UNL     1       4.332   1.017  -0.263  0.00  0.00    +0.080 A 
ATOM      4  C   UNL     1       5.012   1.744   0.744  0.00  0.00    +0.031 A 
ATOM      5  C   UNL     1       6.331   2.039   0.625  0.00  0.00    +0.030 A 
ATOM      6  C   UNL     1       7.072   1.638  -0.495  0.00  0.00    +0.065 A 
ATOM      7  C   UNL     1       6.432   0.917  -1.508  0.00  0.00    +0.045 A 
ATOM      8  C   UNL     1       5.101   0.622  -1.383  0.00  0.00    +0.042 A 
ATOM      9  S   UNL     1       3.909  -0.245  -2.375  0.00  0.00    -0.061 S 
ENDROOT
BRANCH   6  10
ATOM     10  N   UNL     1       8.400   1.946  -0.596  0.00  0.00    -0.255 NA
ATOM     11  C   UNL     1       8.814   3.150  -0.305  0.00  0.00    +0.123 C 
BRANCH  11  12
ATOM     12  C   UNL     1      10.238   3.481  -0.413  0.00  0.00    +0.042 A 
ATOM     13  C   UNL     1      10.721   4.823  -0.086  0.00  0.00    -0.006 A 
ATOM     14  C   UNL     1       9.847   5.830   0.338  0.00  0.00    +0.009 A 
ATOM     15  C   UNL     1      10.337   7.068   0.633  0.00  0.00    +0.001 A 
ATOM     16  C   UNL     1      11.697   7.344   0.519  0.00  0.00    +0.001 A 
ATOM     17  C   UNL     1      12.575   6.386   0.109  0.00  0.00    +0.008 A 
ATOM     18  C   UNL     1      12.104   5.100  -0.203  0.00  0.00    -0.017 A 
ATOM     19  C   UNL     1      12.981   4.086  -0.629  0.00  0.00    +0.012 A 
ATOM     20  C   UNL     1      12.517   2.845  -0.929  0.00  0.00    +0.046 A 
ATOM     21  C   UNL     1      11.165   2.520  -0.824  0.00  0.00    +0.126 A 
BRANCH  21  22
ATOM     22  O   UNL     1      10.747   1.266  -1.129  0.00  0.00    -0.506 OA
ATOM     23  H   UNL     1      10.506   1.147  -2.058  0.00  0.00    +0.292 HD
ENDBRANCH  21  22
ENDBRANCH  11  12
ENDBRANCH   6  10
BRANCH   1  24
ATOM     24  S   UNL     1       0.851  -0.589  -1.490  0.00  0.00    -0.086 S 
BRANCH  24  26
ATOM     25  C   UNL     1      -0.019   1.526   0.010  0.00  0.00    +0.029 C 
ATOM     26  C   UNL     1       0.002  -0.004   0.002  0.00  0.00    +0.136 C 
BRANCH  26  27
ATOM     27  C   UNL     1      -1.412  -0.526   0.013  0.00  0.00    +0.232 C 
ATOM     28  O   UNL     1      -1.927  -0.901  -1.019  0.00  0.00    -0.274 OA
ATOM     29  N   UNL     1      -2.103  -0.575   1.169  0.00  0.00    -0.264 N 
ATOM     30  C   UNL     1      -3.407  -1.056   1.179  0.00  0.00    +0.164 A 
ATOM     31  N   UNL     1      -4.120  -1.507   0.169  0.00  0.00    -0.233 NA
ATOM     32  C   UNL     1      -5.357  -1.933   0.343  0.00  0.00    +0.120 A 
ATOM     33  C   UNL     1      -5.854  -1.883   1.604  0.00  0.00    +0.068 A 
ATOM     34  S   UNL     1      -4.455  -1.210   2.486  0.00  0.00    -0.061 S 
ATOM     35  H   UNL     1      -1.691  -0.275   1.994  0.00  0.00    +0.157 HD
ENDBRANCH  26  27
ENDBRANCH  24  26
ENDBRANCH   1  24
TORSDOF 6
