REMARK  Name = ZINC08835667
REMARK  6 active torsions:
REMARK  status: ('A' for Active; 'I' for Inactive)
REMARK    1  A    between atoms: C_8  and  C_10
REMARK    2  A    between atoms: N_12  and  C_13
REMARK    3  A    between atoms: C_16  and  N_19
REMARK    4  A    between atoms: N_19  and  C_20
REMARK    5  A    between atoms: C_20  and  N_22
REMARK    6  A    between atoms: C_23  and  C_25
REMARK                            x       y       z     vdW  Elec       q    Type
REMARK                         _______ _______ _______ _____ _____    ______ ____
ROOT
ATOM      1  C   UNL     1      -6.845   3.837   0.176  0.00  0.00    +0.034 A 
ATOM      2  C   UNL     1      -7.497   2.717   0.675  0.00  0.00    +0.025 A 
ATOM      3  C   UNL     1      -8.875   2.703   0.765  0.00  0.00    +0.025 A 
ATOM      4  C   UNL     1      -9.609   3.805   0.347  0.00  0.00    +0.033 A 
ATOM      5  C   UNL     1      -8.958   4.923  -0.157  0.00  0.00    +0.025 A 
ATOM      6  C   UNL     1      -7.580   4.939  -0.242  0.00  0.00    +0.025 A 
ENDROOT
BRANCH   1   9
ATOM      7  C   UNL     1      -4.772   4.997   0.321  0.00  0.00    +0.284 C 
ATOM      8  O   UNL     1      -5.378   6.026   0.554  0.00  0.00    -0.266 OA
ATOM      9  N   UNL     1      -5.448   3.854   0.090  0.00  0.00    -0.279 N 
ATOM     10  H   UNL     1      -4.967   3.043  -0.137  0.00  0.00    +0.155 HD
BRANCH   7  18
ATOM     11  C   UNL     1       1.248   5.504   0.316  0.00  0.00    +0.001 A 
ATOM     12  C   UNL     1       1.170   4.148   0.027  0.00  0.00    +0.004 A 
ATOM     13  C   UNL     1      -0.052   3.521  -0.088  0.00  0.00    +0.047 A 
ATOM     14  C   UNL     1      -1.223   4.250   0.085  0.00  0.00    +0.136 A 
ATOM     15  C   UNL     1      -1.138   5.623   0.383  0.00  0.00    +0.021 A 
ATOM     16  C   UNL     1       0.110   6.241   0.491  0.00  0.00    +0.011 A 
ATOM     17  C   UNL     1      -2.519   6.087   0.510  0.00  0.00    +0.063 A 
ATOM     18  C   UNL     1      -3.303   5.000   0.293  0.00  0.00    +0.191 A 
ATOM     19  O   UNL     1      -2.529   3.924   0.035  0.00  0.00    -0.450 OA
ENDBRANCH   7  18
ENDBRANCH   1   9
BRANCH   4  20
ATOM     20  N   UNL     1     -11.007   3.789   0.434  0.00  0.00    -0.297 N 
ATOM     21  H   UNL     1     -11.439   3.448   1.232  0.00  0.00    +0.154 HD
BRANCH  20  22
ATOM     22  C   UNL     1     -11.751   4.247  -0.592  0.00  0.00    +0.141 C 
ATOM     23  S   UNL     1     -10.989   4.938  -1.961  0.00  0.00    -0.018 S 
BRANCH  22  24
ATOM     24  N   UNL     1     -13.095   4.163  -0.540  0.00  0.00    -0.264 N 
ATOM     25  C   UNL     1     -13.840   4.621  -1.566  0.00  0.00    +0.250 C 
ATOM     26  O   UNL     1     -13.299   5.111  -2.537  0.00  0.00    -0.270 OA
ATOM     27  H   UNL     1     -13.527   3.772   0.236  0.00  0.00    +0.157 HD
BRANCH  25  28
ATOM     28  C   UNL     1     -15.313   4.528  -1.509  0.00  0.00    +0.039 A 
ATOM     29  C   UNL     1     -15.937   3.960  -0.396  0.00  0.00    +0.014 A 
ATOM     30  C   UNL     1     -17.312   3.881  -0.345  0.00  0.00    +0.022 A 
ATOM     31  C   UNL     1     -18.076   4.353  -1.401  0.00  0.00    +0.059 A 
ATOM     32  C   UNL     1     -17.462   4.912  -2.511  0.00  0.00    +0.060 A 
ATOM     33  C   UNL     1     -16.086   5.003  -2.570  0.00  0.00    +0.034 A 
ATOM     34 CL   UNL     1     -18.427   5.501  -3.829  0.00  0.00    -0.082 Cl
ATOM     35 CL   UNL     1     -19.807   4.243  -1.332  0.00  0.00    -0.082 Cl
ENDBRANCH  25  28
ENDBRANCH  22  24
ENDBRANCH  20  22
ENDBRANCH   4  20
TORSDOF 6
