REMARK  Name = ZINC66475037
REMARK  9 active torsions:
REMARK  status: ('A' for Active; 'I' for Inactive)
REMARK    1  A    between atoms: C_1  and  C_2
REMARK    2  A    between atoms: C_3  and  C_11
REMARK    3  A    between atoms: C_7  and  N_8
REMARK    4  A    between atoms: N_13  and  C_14
REMARK    5  A    between atoms: C_14  and  C_15
REMARK    6  A    between atoms: C_19  and  C_21
REMARK    7  A    between atoms: N_23  and  C_24
REMARK    8  A    between atoms: C_24  and  C_25
REMARK    9  A    between atoms: C_24  and  C_26
REMARK                            x       y       z     vdW  Elec       q    Type
REMARK                         _______ _______ _______ _____ _____    ______ ____
ROOT
ATOM      1  C   UNL     1      -0.768  -0.163  -2.475  0.00  0.00    +0.245 C 
ATOM      2  O   UNL     1      -0.931   1.040  -2.530  0.00  0.00    -0.270 OA
ATOM      3  N   UNL     1      -0.959  -0.919  -3.574  0.00  0.00    -0.307 N 
ATOM      4  H   UNL     1      -0.829  -1.880  -3.531  0.00  0.00    +0.149 HD
ENDROOT
BRANCH   1   7
ATOM      5  C   UNL     1      -0.618   1.432  -0.065  0.00  0.00    +0.047 C 
ATOM      6  C   UNL     1      -0.285  -0.038  -0.034  0.00  0.00    -0.008 A 
ATOM      7  C   UNL     1      -0.361  -0.797  -1.203  0.00  0.00    +0.042 A 
ATOM      8  C   UNL     1      -0.050  -2.157  -1.166  0.00  0.00    +0.013 A 
ATOM      9  C   UNL     1       0.329  -2.743   0.025  0.00  0.00    +0.003 A 
ATOM     10  C   UNL     1       0.402  -1.985   1.179  0.00  0.00    +0.033 A 
ATOM     11  C   UNL     1       0.102  -0.634   1.148  0.00  0.00    +0.130 A 
BRANCH  11  12
ATOM     12  N   UNL     1       0.189   0.171   2.387  0.00  0.00    +0.057 N 
ATOM     13  O   UNL     1       0.396  -0.372   3.447  0.00  0.00    -0.126 OA
ATOM     14  O   UNL     1       0.054   1.371   2.339  0.00  0.00    -0.126 OA
ENDBRANCH  11  12
ENDBRANCH   1   7
BRANCH   3  15
ATOM     15  C   UNL     1      -1.363  -0.291  -4.835  0.00  0.00    +0.139 C 
BRANCH  15  16
ATOM     16  C   UNL     1      -1.508  -1.348  -5.899  0.00  0.00    -0.030 A 
ATOM     17  C   UNL     1      -0.420  -1.694  -6.681  0.00  0.00    +0.005 A 
ATOM     18  C   UNL     1      -0.544  -2.664  -7.660  0.00  0.00    +0.001 A 
ATOM     19  C   UNL     1      -1.756  -3.292  -7.863  0.00  0.00    +0.013 A 
ATOM     20  C   UNL     1      -2.857  -2.949  -7.077  0.00  0.00    +0.037 A 
ATOM     21  C   UNL     1      -2.723  -1.973  -6.087  0.00  0.00    +0.018 A 
BRANCH  20  22
ATOM     22  C   UNL     1      -4.158  -3.618  -7.289  0.00  0.00    +0.244 C 
ATOM     23  O   UNL     1      -5.115  -3.316  -6.604  0.00  0.00    -0.270 OA
ATOM     24  N   UNL     1      -4.282  -4.562  -8.243  0.00  0.00    -0.309 N 
ATOM     25  H   UNL     1      -3.518  -4.803  -8.790  0.00  0.00    +0.149 HD
BRANCH  24  26
ATOM     26  C   UNL     1      -5.572  -5.226  -8.453  0.00  0.00    +0.067 C 
ATOM     27  C   UNL     1      -6.436  -4.377  -9.388  0.00  0.00    +0.027 C 
ATOM     28  C   UNL     1      -5.341  -6.601  -9.081  0.00  0.00    +0.027 C 
ENDBRANCH  24  26
ENDBRANCH  20  22
ENDBRANCH  15  16
ENDBRANCH   3  15
TORSDOF 6
