REMARK  Name = ZINC36568476
REMARK  10 active torsions:
REMARK  status: ('A' for Active; 'I' for Inactive)
REMARK    1  A    between atoms: C_1  and  C_2
REMARK    2  A    between atoms: C_2  and  O_3
REMARK    3  A    between atoms: O_3  and  C_4
REMARK    4  A    between atoms: C_9  and  C_10
REMARK    5  A    between atoms: N_12  and  C_13
REMARK    6  A    between atoms: C_13  and  N_15
REMARK    7  A    between atoms: N_15  and  C_16
REMARK    8  A    between atoms: C_20  and  N_23
REMARK    9  A    between atoms: C_21  and  C_22
REMARK   10  A    between atoms: C_24  and  C_26
REMARK                            x       y       z     vdW  Elec       q    Type
REMARK                         _______ _______ _______ _____ _____    ______ ____
ROOT
ATOM      1  C   UNL     1       3.346  -1.126  -5.411  0.00  0.00    +0.141 C 
ATOM      2  S   UNL     1       3.515   0.548  -5.095  0.00  0.00    -0.018 S 
ENDROOT
BRANCH   1   5
ATOM      3  C   UNL     1       2.490  -1.446  -3.263  0.00  0.00    +0.253 C 
ATOM      4  O   UNL     1       2.610  -0.257  -3.038  0.00  0.00    -0.270 OA
ATOM      5  N   UNL     1       2.852  -1.945  -4.462  0.00  0.00    -0.263 N 
ATOM      6  H   UNL     1       2.757  -2.893  -4.641  0.00  0.00    +0.157 HD
BRANCH   3  12
ATOM      7  C   UNL     1       1.572  -1.827  -0.976  0.00  0.00    +0.133 A 
ATOM      8  C   UNL     1       1.059  -2.678  -0.008  0.00  0.00    +0.047 A 
ATOM      9  C   UNL     1       0.926  -4.027  -0.272  0.00  0.00    +0.019 A 
ATOM     10  C   UNL     1       1.303  -4.541  -1.503  0.00  0.00    +0.019 A 
ATOM     11  C   UNL     1       1.815  -3.710  -2.477  0.00  0.00    +0.032 A 
ATOM     12  C   UNL     1       1.949  -2.342  -2.224  0.00  0.00    +0.080 A 
ATOM     13 BR   UNL     1       1.115  -6.391  -1.848  0.00  0.00    -0.050 Br
BRANCH   7  14
ATOM     14  O   UNL     1       1.702  -0.502  -0.718  0.00  0.00    -0.491 OA
BRANCH  14  16
ATOM     15  C   UNL     1       1.516   1.461   0.680  0.00  0.00    +0.048 C 
ATOM     16  C   UNL     1       1.297  -0.050   0.575  0.00  0.00    +0.226 C 
ENDBRANCH  14  16
ENDBRANCH   7  14
ENDBRANCH   3  12
ENDBRANCH   1   5
BRANCH   1  17
ATOM     17  N   UNL     1       3.708  -1.625  -6.610  0.00  0.00    -0.296 N 
ATOM     18  H   UNL     1       3.652  -2.579  -6.775  0.00  0.00    +0.154 HD
BRANCH  17  19
ATOM     19  C   UNL     1       4.164  -0.767  -7.616  0.00  0.00    +0.037 A 
ATOM     20  C   UNL     1       3.569   0.476  -7.793  0.00  0.00    +0.023 A 
ATOM     21  C   UNL     1       4.019   1.324  -8.786  0.00  0.00    +0.004 A 
ATOM     22  C   UNL     1       5.062   0.940  -9.606  0.00  0.00    +0.024 A 
ATOM     23  C   UNL     1       5.662  -0.301  -9.435  0.00  0.00    +0.038 A 
ATOM     24  C   UNL     1       5.216  -1.153  -8.434  0.00  0.00    -0.008 A 
ATOM     25  C   UNL     1       5.869  -2.498  -8.241  0.00  0.00    +0.047 C 
BRANCH  23  26
ATOM     26  N   UNL     1       6.717  -0.690 -10.267  0.00  0.00    -0.285 N 
ATOM     27  C   UNL     1       7.594   0.229 -10.717  0.00  0.00    +0.220 C 
ATOM     28  O   UNL     1       7.420   1.404 -10.473  0.00  0.00    -0.275 OA
ATOM     29  H   UNL     1       6.818  -1.621 -10.519  0.00  0.00    +0.155 HD
BRANCH  27  30
ATOM     30  C   UNL     1       8.792  -0.203 -11.523  0.00  0.00    +0.075 C 
ATOM     31  C   UNL     1      10.170  -0.055 -10.875  0.00  0.00    +0.013 C 
ATOM     32  C   UNL     1       9.750   0.887 -12.005  0.00  0.00    +0.013 C 
ENDBRANCH  27  30
ENDBRANCH  23  26
ENDBRANCH  17  19
ENDBRANCH   1  17
TORSDOF 8
