REMARK  Name = ZINC59044964
REMARK  7 active torsions:
REMARK  status: ('A' for Active; 'I' for Inactive)
REMARK    1  A    between atoms: C_1  and  C_2
REMARK    2  A    between atoms: C_5  and  N_8
REMARK    3  A    between atoms: C_9  and  C_11
REMARK    4  A    between atoms: C_11  and  S_12
REMARK    5  A    between atoms: S_12  and  C_13
REMARK    6  A    between atoms: C_16  and  C_19
REMARK    7  A    between atoms: N_17  and  N_18
REMARK                            x       y       z     vdW  Elec       q    Type
REMARK                         _______ _______ _______ _____ _____    ______ ____
ROOT
ATOM      1  C   UNL     1       0.593  -8.709   2.636  0.00  0.00    +0.209 A 
ATOM      2  N   UNL     1       0.603  -9.373   1.502  0.00  0.00    -0.121 NA
ATOM      3  N   UNL     1       0.725 -10.632   1.730  0.00  0.00    -0.127 NA
ATOM      4  C   UNL     1       0.800 -10.849   3.022  0.00  0.00    +0.182 A 
ATOM      5  N   UNL     1       0.724  -9.623   3.642  0.00  0.00    -0.224 N 
ENDROOT
BRANCH   4   6
ATOM      6  C   UNL     1       0.945 -12.162   3.686  0.00  0.00    +0.021 A 
ATOM      7  C   UNL     1       0.695 -12.287   5.054  0.00  0.00    +0.013 A 
ATOM      8  C   UNL     1       0.832 -13.514   5.668  0.00  0.00    +0.016 A 
ATOM      9  C   UNL     1       1.217 -14.621   4.930  0.00  0.00    +0.018 A 
ATOM     10  C   UNL     1       1.467 -14.503   3.574  0.00  0.00    +0.016 A 
ATOM     11  C   UNL     1       1.327 -13.283   2.947  0.00  0.00    +0.013 A 
ATOM     12 BR   UNL     1       1.403 -16.300   5.780  0.00  0.00    -0.050 Br
ENDBRANCH   4   6
BRANCH   5  13
ATOM     13  N   UNL     1       0.767  -9.373   4.984  0.00  0.00    -0.295 N 
ATOM     14  H   UNL     1      -0.159  -9.390   5.386  0.00  0.00    +0.163 HD
ATOM     15  H   UNL     1       1.377 -10.025   5.455  0.00  0.00    +0.163 HD
ENDBRANCH   5  13
BRANCH   1  16
ATOM     16  S   UNL     1       0.446  -6.963   2.823  0.00  0.00    -0.075 S 
BRANCH  16  17
ATOM     17  C   UNL     1       0.309  -6.349   1.121  0.00  0.00    +0.173 C 
BRANCH  17  19
ATOM     18  N   UNL     1       0.059  -4.170  -0.021  0.00  0.00    -0.285 N 
ATOM     19  C   UNL     1       0.175  -4.848   1.138  0.00  0.00    +0.227 C 
ATOM     20  O   UNL     1       0.173  -4.251   2.193  0.00  0.00    -0.275 OA
ATOM     21  H   UNL     1      -0.017  -4.651  -0.860  0.00  0.00    +0.155 HD
BRANCH  18  26
ATOM     22  C   UNL     1       0.008   1.503   0.007  0.00  0.00    +0.044 C 
ATOM     23  C   UNL     1       0.022  -0.004  -0.001  0.00  0.00    -0.050 A 
ATOM     24  C   UNL     1       0.777  -0.692   0.931  0.00  0.00    +0.005 A 
ATOM     25  C   UNL     1       0.791  -2.073   0.927  0.00  0.00    +0.023 A 
ATOM     26  C   UNL     1       0.046  -2.771  -0.014  0.00  0.00    +0.033 A 
ATOM     27  C   UNL     1      -0.712  -2.077  -0.948  0.00  0.00    +0.023 A 
ATOM     28  C   UNL     1      -0.726  -0.696  -0.936  0.00  0.00    +0.005 A 
ENDBRANCH  18  26
ENDBRANCH  17  19
ENDBRANCH  16  17
ENDBRANCH   1  16
TORSDOF 6
