REMARK  Name = ZINC32099660
REMARK  6 active torsions:
REMARK  status: ('A' for Active; 'I' for Inactive)
REMARK    1  A    between atoms: C_1  and  C_2
REMARK    2  A    between atoms: C_5  and  N_9
REMARK    3  A    between atoms: C_7  and  C_8
REMARK    4  A    between atoms: C_13  and  C_14
REMARK    5  A    between atoms: C_17  and  C_19
REMARK    6  A    between atoms: C_22  and  C_25
REMARK                            x       y       z     vdW  Elec       q    Type
REMARK                         _______ _______ _______ _____ _____    ______ ____
ROOT
ATOM      1  N   UNL     1      -0.811   7.255   0.049  0.00  0.00    -0.184 N 
ATOM      2  C   UNL     1      -0.674   5.915   0.040  0.00  0.00    +0.272 C 
ATOM      3  O   UNL     1      -1.572   5.094   0.044  0.00  0.00    -0.268 OA
ATOM      4  C   UNL     1       0.772   5.633   0.025  0.00  0.00    +0.105 C 
ATOM      5  C   UNL     1       1.389   4.390   0.012  0.00  0.00    +0.064 C 
ATOM      6  C   UNL     1       1.422   6.955   0.032  0.00  0.00    +0.266 C 
ATOM      7  O   UNL     1       2.619   7.175   0.028  0.00  0.00    -0.268 OA
ATOM      8  N   UNL     1       0.438   7.875   0.041  0.00  0.00    -0.223 N 
ATOM      9  H   UNL     1       0.507   8.973   0.042  0.00  0.00    +0.174 HD
ENDROOT
BRANCH   1  14
ATOM     10  C   UNL     1      -5.779   9.992   0.113  0.00  0.00    +0.044 C 
ATOM     11  C   UNL     1      -4.459   9.265   0.095  0.00  0.00    -0.047 A 
ATOM     12  C   UNL     1      -4.433   7.882   0.087  0.00  0.00    +0.005 A 
ATOM     13  C   UNL     1      -3.226   7.213   0.072  0.00  0.00    +0.025 A 
ATOM     14  C   UNL     1      -2.036   7.929   0.065  0.00  0.00    +0.057 A 
ATOM     15  C   UNL     1      -2.065   9.318   0.079  0.00  0.00    +0.028 A 
ATOM     16  C   UNL     1      -3.276   9.982   0.088  0.00  0.00    -0.046 A 
ATOM     17  C   UNL     1      -3.309  11.488   0.097  0.00  0.00    +0.044 C 
ENDBRANCH   1  14
BRANCH   5  18
ATOM     18  C   UNL     1       0.611   3.220   0.013  0.00  0.00    +0.129 A 
ATOM     19  C   UNL     1       1.097   1.920   0.002  0.00  0.00    +0.050 A 
ATOM     20  C   UNL     1      -0.013   1.076   0.008  0.00  0.00    +0.050 A 
ATOM     21  C   UNL     1      -1.133   1.881   0.017  0.00  0.00    +0.136 A 
ATOM     22  O   UNL     1      -0.738   3.166   0.026  0.00  0.00    -0.455 OA
BRANCH  21  23
ATOM     23  C   UNL     1      -2.531   1.411   0.020  0.00  0.00    +0.017 A 
ATOM     24  C   UNL     1      -2.808   0.040   0.008  0.00  0.00    +0.012 A 
ATOM     25  C   UNL     1      -4.112  -0.398   0.016  0.00  0.00    +0.014 A 
ATOM     26  C   UNL     1      -5.160   0.526   0.025  0.00  0.00    +0.037 A 
ATOM     27  C   UNL     1      -4.884   1.896   0.032  0.00  0.00    +0.014 A 
ATOM     28  C   UNL     1      -3.580   2.335   0.029  0.00  0.00    +0.012 A 
BRANCH  26  29
ATOM     29  C   UNL     1      -6.560   0.055   0.028  0.00  0.00    +0.242 C 
ATOM     30  O   UNL     1      -7.472   0.859   0.036  0.00  0.00    -0.270 OA
ATOM     31  N   UNL     1      -6.827  -1.266   0.021  0.00  0.00    -0.325 N 
ATOM     32  H   UNL     1      -7.869  -1.617   0.023  0.00  0.00    +0.145 HD
ATOM     33  H   UNL     1      -6.002  -1.994   0.014  0.00  0.00    +0.145 HD
ENDBRANCH  26  29
ENDBRANCH  21  23
ENDBRANCH   5  18
TORSDOF 4
