REMARK  Name = ZINC28537648
REMARK  8 active torsions:
REMARK  status: ('A' for Active; 'I' for Inactive)
REMARK    1  A    between atoms: C_1  and  C_2
REMARK    2  A    between atoms: C_2  and  N_3
REMARK    3  A    between atoms: C_5  and  O_19
REMARK    4  A    between atoms: C_7  and  S_9
REMARK    5  A    between atoms: S_9  and  C_10
REMARK    6  A    between atoms: C_10  and  C_11
REMARK    7  A    between atoms: C_11  and  C_13
REMARK    8  A    between atoms: O_19  and  C_20
REMARK                            x       y       z     vdW  Elec       q    Type
REMARK                         _______ _______ _______ _____ _____    ______ ____
ROOT
ATOM      1  N   UNL     1       0.697  -0.563  -1.224  0.00  0.00    -0.225 N 
ATOM      2  C   UNL     1       2.159  -0.745  -1.221  0.00  0.00    +0.158 C 
ATOM      3  C   UNL     1       2.692  -0.263  -2.545  0.00  0.00    +0.208 C 
ATOM      4  N   UNL     1       1.931  -0.270  -3.597  0.00  0.00    -0.263 N 
ATOM      5  C   UNL     1       0.643  -0.704  -3.554  0.00  0.00    +0.178 C 
ATOM      6  N   UNL     1       0.013  -0.850  -2.421  0.00  0.00    -0.157 NA
ATOM      7  H   UNL     1       2.323   0.082  -4.562  0.00  0.00    +0.157 HD
ENDROOT
BRANCH   1   9
ATOM      8  C   UNL     1      -0.086   1.432  -0.046  0.00  0.00    +0.026 C 
ATOM      9  C   UNL     1      -0.015  -0.096  -0.032  0.00  0.00    +0.128 C 
ENDBRANCH   1   9
BRANCH   5  10
ATOM     10  S   UNL     1      -0.192  -1.077  -5.060  0.00  0.00    -0.081 S 
BRANCH  10  11
ATOM     11  C   UNL     1      -1.843  -1.606  -4.527  0.00  0.00    +0.156 C 
BRANCH  11  12
ATOM     12  C   UNL     1      -2.672  -1.959  -5.735  0.00  0.00    +0.173 C 
ATOM     13  O   UNL     1      -2.196  -1.863  -6.846  0.00  0.00    -0.291 OA
BRANCH  12  14
ATOM     14  C   UNL     1      -4.059  -2.420  -5.566  0.00  0.00    +0.018 A 
ATOM     15  C   UNL     1      -4.611  -2.536  -4.287  0.00  0.00    +0.011 A 
ATOM     16  C   UNL     1      -5.913  -2.963  -4.137  0.00  0.00    +0.001 A 
ATOM     17  C   UNL     1      -6.671  -3.286  -5.249  0.00  0.00    +0.000 A 
ATOM     18  C   UNL     1      -6.131  -3.179  -6.519  0.00  0.00    +0.001 A 
ATOM     19  C   UNL     1      -4.832  -2.748  -6.685  0.00  0.00    +0.011 A 
ENDBRANCH  12  14
ENDBRANCH  11  12
ENDBRANCH  10  11
ENDBRANCH   5  10
BRANCH   3  20
ATOM     20  O   UNL     1       3.963   0.181  -2.636  0.00  0.00    -0.440 OA
BRANCH  20  21
ATOM     21  C   UNL     1       4.413   0.511  -3.875  0.00  0.00    +0.130 A 
ATOM     22  C   UNL     1       5.261  -0.351  -4.558  0.00  0.00    +0.046 A 
ATOM     23  C   UNL     1       5.714  -0.016  -5.819  0.00  0.00    +0.004 A 
ATOM     24  C   UNL     1       5.332   1.181  -6.396  0.00  0.00    +0.000 A 
ATOM     25  C   UNL     1       4.492   2.043  -5.716  0.00  0.00    +0.004 A 
ATOM     26  C   UNL     1       4.032   1.711  -4.457  0.00  0.00    +0.046 A 
ENDBRANCH  20  21
ENDBRANCH   3  20
TORSDOF 7
