REMARK  Name = ZINC12455010
REMARK  6 active torsions:
REMARK  status: ('A' for Active; 'I' for Inactive)
REMARK    1  A    between atoms: C_5  and  C_7
REMARK    2  A    between atoms: C_13  and  N_66
REMARK    3  A    between atoms: N_16  and  C_19
REMARK    4  A    between atoms: C_23  and  N_25
REMARK    5  A    between atoms: N_25  and  S_26
REMARK    6  A    between atoms: S_26  and  C_29
REMARK                            x       y       z     vdW  Elec       q    Type
REMARK                         _______ _______ _______ _____ _____    ______ ____
ROOT
ATOM      1  C   UNL     1       3.329   0.420  -7.960  0.00  0.00    -0.065 C 
ATOM      2  C   UNL     1       4.276  -0.778  -8.075  0.00  0.00    +0.004 C 
ATOM      3  C   UNL     1       4.697  -1.225  -6.673  0.00  0.00    +0.103 C 
ATOM      4  N   UNL     1       3.506  -1.592  -5.897  0.00  0.00    -0.330 N 
ATOM      5  C   UNL     1       2.604  -0.445  -5.733  0.00  0.00    +0.103 C 
ATOM      6  C   UNL     1       2.121   0.026  -7.107  0.00  0.00    +0.004 C 
ENDROOT
BRANCH   1  12
ATOM      7  C   UNL     1       3.977   1.403 -10.076  0.00  0.00    -0.018 C 
ATOM      8  C   UNL     1       3.438   1.936 -11.405  0.00  0.00    -0.009 C 
ATOM      9  C   UNL     1       2.794   0.787 -12.186  0.00  0.00    -0.003 C 
ATOM     10  C   UNL     1       1.683   0.163 -11.337  0.00  0.00    -0.019 C 
ATOM     11  C   UNL     1       2.273  -0.318 -10.009  0.00  0.00    -0.078 C 
ATOM     12  N   UNL     1       2.855   0.838  -9.296  0.00  0.00    +0.387 N 
ATOM     13  H   UNL     1       2.132   1.558  -9.182  0.00  0.00    -0.080 HD
BRANCH   7  18
ATOM     14  C   UNL     1       6.475   3.915  -8.789  0.00  0.00    +0.003 A 
ATOM     15  C   UNL     1       5.679   4.582  -7.870  0.00  0.00    +0.020 A 
ATOM     16  C   UNL     1       4.365   4.188  -7.707  0.00  0.00    +0.111 A 
ATOM     17  N   UNL     1       3.867   3.191  -8.412  0.00  0.00    -0.262 NA
ATOM     18  C   UNL     1       4.594   2.535  -9.295  0.00  0.00    +0.028 A 
ATOM     19  C   UNL     1       5.918   2.869  -9.508  0.00  0.00    +0.021 A 
ENDBRANCH   7  18
ENDBRANCH   1  12
BRANCH   4  20
ATOM     20  C   UNL     1       3.861  -2.129  -4.657  0.00  0.00    +0.031 A 
ATOM     21  C   UNL     1       5.202  -2.253  -4.312  0.00  0.00    +0.023 A 
ATOM     22  C   UNL     1       5.555  -2.784  -3.086  0.00  0.00    +0.004 A 
ATOM     23  C   UNL     1       4.577  -3.194  -2.200  0.00  0.00    +0.024 A 
ATOM     24  C   UNL     1       3.235  -3.074  -2.540  0.00  0.00    +0.050 A 
ATOM     25  C   UNL     1       2.877  -2.546  -3.773  0.00  0.00    +0.047 A 
BRANCH  24  26
ATOM     26  N   UNL     1       2.247  -3.490  -1.644  0.00  0.00    -0.216 N 
ATOM     27  H   UNL     1       1.496  -4.016  -1.960  0.00  0.00    +0.174 HD
BRANCH  26  28
ATOM     28  S   UNL     1       2.358  -3.083  -0.043  0.00  0.00    +0.072 S 
ATOM     29  O   UNL     1       3.679  -3.409   0.369  0.00  0.00    -0.150 OA
ATOM     30  O   UNL     1       1.207  -3.621   0.594  0.00  0.00    -0.150 OA
BRANCH  28  31
ATOM     31  C   UNL     1       2.217  -1.330   0.061  0.00  0.00    +0.109 A 
ATOM     32  C   UNL     1       0.974  -0.744   0.209  0.00  0.00    +0.031 A 
ATOM     33  C   UNL     1       0.863   0.631   0.291  0.00  0.00    +0.040 A 
ATOM     34  C   UNL     1       1.997   1.422   0.224  0.00  0.00    +0.124 A 
ATOM     35  C   UNL     1       3.242   0.835   0.075  0.00  0.00    +0.040 A 
ATOM     36  C   UNL     1       3.351  -0.541  -0.006  0.00  0.00    +0.031 A 
ATOM     37  F   UNL     1       1.889   2.767   0.304  0.00  0.00    -0.205 F 
ENDBRANCH  28  31
ENDBRANCH  26  28
ENDBRANCH  24  26
ENDBRANCH   4  20
TORSDOF 6
