REMARK  Name = ZINC08442916
REMARK  9 active torsions:
REMARK  status: ('A' for Active; 'I' for Inactive)
REMARK    1  A    between atoms: C_1  and  C_2
REMARK    2  A    between atoms: C_2  and  C_3
REMARK    3  A    between atoms: C_2  and  C_4
REMARK    4  A    between atoms: C_7  and  C_10
REMARK    5  A    between atoms: C_13  and  C_26
REMARK    6  A    between atoms: N_15  and  C_16
REMARK    7  A    between atoms: C_19  and  S_22
REMARK    8  A    between atoms: S_22  and  N_25
REMARK    9  A    between atoms: C_29  and  C_32
REMARK                            x       y       z     vdW  Elec       q    Type
REMARK                         _______ _______ _______ _____ _____    ______ ____
ROOT
ATOM      1  C   UNL     1       5.409   3.086  -0.032  0.00  0.00    +0.134 C 
ATOM      2  C   UNL     1       5.825   3.551   1.377  0.00  0.00    +0.087 C 
ATOM      3  C   UNL     1       6.116   5.025   1.203  0.00  0.00    +0.069 C 
ATOM      4  N   UNL     1       5.919   5.361  -0.026  0.00  0.00    -0.183 NA
ATOM      5  N   UNL     1       5.504   4.309  -0.846  0.00  0.00    -0.216 N 
ENDROOT
BRANCH   1   9
ATOM      6  C   UNL     1       1.401   1.607  -0.003  0.00  0.00    -0.045 A 
ATOM      7  C   UNL     1       1.635   2.970  -0.003  0.00  0.00    +0.004 A 
ATOM      8  C   UNL     1       2.932   3.448  -0.009  0.00  0.00    +0.006 A 
ATOM      9  C   UNL     1       3.995   2.564  -0.023  0.00  0.00    -0.025 A 
ATOM     10  C   UNL     1       3.761   1.202  -0.027  0.00  0.00    +0.006 A 
ATOM     11  C   UNL     1       2.464   0.724  -0.018  0.00  0.00    +0.004 A 
BRANCH   6  13
ATOM     12  C   UNL     1      -0.753   1.593  -1.232  0.00  0.00    +0.012 C 
ATOM     13  C   UNL     1      -0.013   1.086   0.008  0.00  0.00    +0.013 C 
ATOM     14  C   UNL     1      -0.729   1.579   1.267  0.00  0.00    +0.012 C 
ENDBRANCH   6  13
ENDBRANCH   1   9
BRANCH   5  15
ATOM     15  C   UNL     1       5.225   4.399  -2.210  0.00  0.00    +0.052 A 
ATOM     16  C   UNL     1       4.823   3.271  -2.915  0.00  0.00    +0.027 A 
ATOM     17  C   UNL     1       4.543   3.366  -4.264  0.00  0.00    +0.030 A 
ATOM     18  C   UNL     1       4.672   4.579  -4.915  0.00  0.00    +0.105 A 
ATOM     19  C   UNL     1       5.076   5.703  -4.218  0.00  0.00    +0.030 A 
ATOM     20  C   UNL     1       5.353   5.617  -2.868  0.00  0.00    +0.027 A 
BRANCH  18  21
ATOM     21  S   UNL     1       4.320   4.694  -6.638  0.00  0.00    +0.056 S 
ATOM     22  O   UNL     1       3.436   3.624  -6.944  0.00  0.00    -0.153 OA
ATOM     23  O   UNL     1       3.990   6.052  -6.896  0.00  0.00    -0.153 OA
BRANCH  21  24
ATOM     24  N   UNL     1       5.732   4.388  -7.448  0.00  0.00    -0.204 NA
ATOM     25  H   UNL     1       5.708   3.980  -8.327  0.00  0.00    +0.144 HD
ATOM     26  H   UNL     1       6.583   4.616  -7.042  0.00  0.00    +0.144 HD
ENDBRANCH  21  24
ENDBRANCH  18  21
ENDBRANCH   5  15
BRANCH   3  27
ATOM     27  C   UNL     1       6.557   5.936   2.273  0.00  0.00    -0.002 A 
ATOM     28  C   UNL     1       6.732   5.455   3.575  0.00  0.00    +0.010 A 
ATOM     29  C   UNL     1       7.150   6.307   4.572  0.00  0.00    +0.009 A 
ATOM     30  C   UNL     1       7.387   7.652   4.287  0.00  0.00    -0.018 A 
ATOM     31  C   UNL     1       7.208   8.135   2.991  0.00  0.00    +0.009 A 
ATOM     32  C   UNL     1       6.796   7.285   1.990  0.00  0.00    +0.010 A 
BRANCH  30  33
ATOM     33  C   UNL     1       7.831   8.570   5.364  0.00  0.00    -0.018 A 
ATOM     34  C   UNL     1       8.075   9.913   5.083  0.00  0.00    +0.008 A 
ATOM     35  C   UNL     1       8.482  10.764   6.090  0.00  0.00    +0.001 A 
ATOM     36  C   UNL     1       8.660  10.283   7.375  0.00  0.00    +0.000 A 
ATOM     37  C   UNL     1       8.425   8.949   7.659  0.00  0.00    +0.001 A 
ATOM     38  C   UNL     1       8.011   8.091   6.661  0.00  0.00    +0.008 A 
ENDBRANCH  30  33
ENDBRANCH   3  27
TORSDOF 7
