REMARK  Name = ZINC09491560
REMARK  5 active torsions:
REMARK  status: ('A' for Active; 'I' for Inactive)
REMARK    1  A    between atoms: C_4  and  C_7
REMARK    2  A    between atoms: C_8  and  C_17
REMARK    3  A    between atoms: C_17  and  C_19
REMARK    4  A    between atoms: C_19  and  N_20
REMARK    5  A    between atoms: C_29  and  C_31
REMARK                            x       y       z     vdW  Elec       q    Type
REMARK                         _______ _______ _______ _____ _____    ______ ____
ROOT
ATOM      1  C   UNL     1       3.100   3.860   1.739  0.00  0.00    +0.187 C 
ATOM      2  O   UNL     1       1.986   3.414   1.929  0.00  0.00    -0.290 OA
ENDROOT
BRANCH   1   4
ATOM      3  C   UNL     1       3.655   2.158  -0.021  0.00  0.00    +0.058 A 
ATOM      4  C   UNL     1       3.947   3.260   0.781  0.00  0.00    +0.052 A 
ATOM      5  C   UNL     1       5.319   3.671   0.430  0.00  0.00    +0.011 A 
ATOM      6  C   UNL     1       6.162   4.687   0.874  0.00  0.00    +0.011 A 
ATOM      7  C   UNL     1       7.421   4.817   0.328  0.00  0.00    +0.001 A 
ATOM      8  C   UNL     1       7.848   3.942  -0.660  0.00  0.00    +0.002 A 
ATOM      9  C   UNL     1       7.024   2.933  -1.109  0.00  0.00    +0.026 A 
ATOM     10  C   UNL     1       5.750   2.784  -0.570  0.00  0.00    +0.048 A 
ATOM     11  N   UNL     1       4.727   1.889  -0.817  0.00  0.00    -0.354 N 
ATOM     12  H   UNL     1       4.767   1.170  -1.466  0.00  0.00    +0.166 HD
BRANCH   3  16
ATOM     13  C   UNL     1       0.002  -0.004   0.002  0.00  0.00    +0.000 A 
ATOM     14  C   UNL     1      -0.017   1.380   0.010  0.00  0.00    +0.001 A 
ATOM     15  C   UNL     1       1.166   2.089   0.002  0.00  0.00    +0.010 A 
ATOM     16  C   UNL     1       2.385   1.407  -0.013  0.00  0.00    -0.001 A 
ATOM     17  C   UNL     1       2.397   0.009  -0.020  0.00  0.00    +0.010 A 
ATOM     18  C   UNL     1       1.206  -0.686  -0.013  0.00  0.00    +0.001 A 
ENDBRANCH   3  16
ENDBRANCH   1   4
BRANCH   1  19
ATOM     19  C   UNL     1       3.578   5.054   2.524  0.00  0.00    +0.227 C 
BRANCH  19  20
ATOM     20  N   UNL     1       2.523   5.488   3.444  0.00  0.00    -0.221 N 
ATOM     21  C   UNL     1       2.494   4.949   4.680  0.00  0.00    +0.275 A 
ATOM     22  O   UNL     1       3.322   4.124   5.020  0.00  0.00    -0.266 OA
ATOM     23  C   UNL     1       1.441   5.383   5.609  0.00  0.00    +0.050 A 
ATOM     24  C   UNL     1       1.327   4.892   6.905  0.00  0.00    +0.014 A 
ATOM     25  C   UNL     1       0.307   5.347   7.713  0.00  0.00    +0.001 A 
ATOM     26  C   UNL     1      -0.603   6.287   7.246  0.00  0.00    +0.001 A 
ATOM     27  C   UNL     1      -0.507   6.786   5.964  0.00  0.00    +0.011 A 
ATOM     28  C   UNL     1       0.515   6.340   5.133  0.00  0.00    +0.022 A 
ATOM     29  C   UNL     1       0.688   6.822   3.753  0.00  0.00    +0.180 A 
ATOM     30  N   UNL     1       1.677   6.353   3.031  0.00  0.00    -0.160 NA
BRANCH  29  31
ATOM     31  C   UNL     1      -0.240   7.821   3.189  0.00  0.00    +0.407 C 
ATOM     32  O   UNL     1      -1.153   8.251   3.865  0.00  0.00    -0.239 OA
ATOM     33  O   UNL     1      -0.074   8.257   1.925  0.00  0.00    -0.239 OA
ENDBRANCH  29  31
ENDBRANCH  19  20
ENDBRANCH   1  19
TORSDOF 5
