REMARK  Name = ZINC36591117
REMARK  14 active torsions:
REMARK  status: ('A' for Active; 'I' for Inactive)
REMARK    1  A    between atoms: C_1  and  C_2
REMARK    2  A    between atoms: C_2  and  C_3
REMARK    3  A    between atoms: C_2  and  C_4
REMARK    4  A    between atoms: C_2  and  N_5
REMARK    5  A    between atoms: C_6  and  C_8
REMARK    6  A    between atoms: C_8  and  C_10
REMARK    7  A    between atoms: C_8  and  N_24
REMARK    8  A    between atoms: N_24  and  C_37
REMARK    9  A    between atoms: C_25  and  C_27
REMARK   10  A    between atoms: C_27  and  N_28
REMARK   11  A    between atoms: C_29  and  C_31
REMARK   12  A    between atoms: C_37  and  C_38
REMARK   13  A    between atoms: C_37  and  C_39
REMARK   14  A    between atoms: C_37  and  C_40
REMARK                            x       y       z     vdW  Elec       q    Type
REMARK                         _______ _______ _______ _____ _____    ______ ____
ROOT
ATOM      1  C   UNL     1       2.412  -1.345  -2.789  0.00  0.00    +0.193 C 
ENDROOT
BRANCH   1   2
ATOM      2  C   UNL     1       1.843  -1.497  -4.177  0.00  0.00    -0.010 A 
ATOM      3  C   UNL     1       0.976  -0.574  -4.640  0.00  0.00    +0.015 A 
ATOM      4  C   UNL     1       0.416  -0.673  -5.934  0.00  0.00    -0.017 A 
ATOM      5  C   UNL     1      -0.485   0.293  -6.407  0.00  0.00    +0.008 A 
ATOM      6  C   UNL     1      -1.010   0.173  -7.660  0.00  0.00    +0.001 A 
ATOM      7  C   UNL     1      -0.666  -0.896  -8.479  0.00  0.00    +0.001 A 
ATOM      8  C   UNL     1       0.208  -1.853  -8.048  0.00  0.00    +0.009 A 
ATOM      9  C   UNL     1       0.763  -1.758  -6.771  0.00  0.00    -0.010 A 
ATOM     10  C   UNL     1       1.705  -2.761  -6.267  0.00  0.00    -0.010 A 
ATOM     11  C   UNL     1       2.235  -2.603  -4.967  0.00  0.00    -0.012 A 
ATOM     12  C   UNL     1       3.141  -3.555  -4.478  0.00  0.00    +0.009 A 
ATOM     13  C   UNL     1       3.501  -4.611  -5.262  0.00  0.00    +0.001 A 
ATOM     14  C   UNL     1       2.982  -4.760  -6.543  0.00  0.00    +0.001 A 
ATOM     15  C   UNL     1       2.088  -3.857  -7.043  0.00  0.00    +0.009 A 
ENDBRANCH   1   2
BRANCH   1  17
ATOM     16  N   UNL     1       0.373  -0.768  -1.513  0.00  0.00    -0.309 N 
ATOM     17  C   UNL     1       1.565  -0.376  -2.004  0.00  0.00    +0.239 C 
ATOM     18  O   UNL     1       1.958   0.756  -1.814  0.00  0.00    -0.273 OA
ATOM     19  H   UNL     1       0.030  -1.651  -1.719  0.00  0.00    +0.149 HD
BRANCH  16  21
ATOM     20  C   UNL     1      -0.728   1.415  -1.451  0.00  0.00    +0.031 C 
ATOM     21  C   UNL     1      -0.405   0.141  -0.667  0.00  0.00    +0.026 C 
ATOM     22  C   UNL     1       0.407   0.501   0.578  0.00  0.00    +0.031 C 
ATOM     23  C   UNL     1      -1.707  -0.543  -0.247  0.00  0.00    +0.031 C 
ENDBRANCH  16  21
ENDBRANCH   1  17
BRANCH   1  24
ATOM     24  N   UNL     1       3.783  -0.836  -2.877  0.00  0.00    -0.280 N 
ATOM     25  C   UNL     1       4.265  -0.398  -4.057  0.00  0.00    +0.234 C 
ATOM     26  O   UNL     1       3.534  -0.325  -5.021  0.00  0.00    -0.274 OA
BRANCH  24  27
ATOM     27  C   UNL     1       4.629  -0.803  -1.681  0.00  0.00    +0.030 C 
ATOM     28  C   UNL     1       3.926  -1.538  -0.538  0.00  0.00    +0.031 C 
ATOM     29  C   UNL     1       5.964  -1.486  -1.983  0.00  0.00    +0.031 C 
ATOM     30  C   UNL     1       4.880   0.651  -1.275  0.00  0.00    +0.031 C 
ENDBRANCH  24  27
BRANCH  25  31
ATOM     31  C   UNL     1       5.714  -0.001  -4.177  0.00  0.00    +0.200 C 
BRANCH  31  32
ATOM     32  N   UNL     1       5.976   0.481  -5.535  0.00  0.00    -0.303 N 
ATOM     33  C   UNL     1       7.213   0.894  -5.877  0.00  0.00    +0.244 C 
ATOM     34  O   UNL     1       8.111   0.866  -5.058  0.00  0.00    -0.270 OA
ATOM     35  H   UNL     1       5.260   0.504  -6.189  0.00  0.00    +0.150 HD
BRANCH  33  36
ATOM     36  C   UNL     1       7.478   1.381  -7.247  0.00  0.00    +0.037 A 
ATOM     37  C   UNL     1       6.448   1.419  -8.189  0.00  0.00    +0.013 A 
ATOM     38  C   UNL     1       6.702   1.875  -9.466  0.00  0.00    +0.001 A 
ATOM     39  C   UNL     1       7.974   2.292  -9.815  0.00  0.00    +0.000 A 
ATOM     40  C   UNL     1       9.000   2.256  -8.887  0.00  0.00    +0.001 A 
ATOM     41  C   UNL     1       8.758   1.809  -7.604  0.00  0.00    +0.013 A 
ENDBRANCH  33  36
ENDBRANCH  31  32
ENDBRANCH  25  31
ENDBRANCH   1  24
TORSDOF 8
