REMARK  Name = ZINC06409795
REMARK  12 active torsions:
REMARK  status: ('A' for Active; 'I' for Inactive)
REMARK    1  A    between atoms: C_1  and  C_2
REMARK    2  A    between atoms: C_7  and  C_14
REMARK    3  A    between atoms: C_14  and  C_16
REMARK    4  A    between atoms: C_14  and  N_69
REMARK    5  A    between atoms: N_20  and  C_21
REMARK    6  A    between atoms: C_21  and  C_22
REMARK    7  A    between atoms: C_21  and  C_23
REMARK    8  A    between atoms: C_21  and  C_24
REMARK    9  A    between atoms: C_25  and  C_26
REMARK   10  A    between atoms: C_25  and  N_69
REMARK   11  A    between atoms: C_32  and  C_33
REMARK   12  A    between atoms: C_32  and  N_69
REMARK                            x       y       z     vdW  Elec       q    Type
REMARK                         _______ _______ _______ _____ _____    ______ ____
ROOT
ATOM      1  C   UNL     1       0.404   0.762  -0.608  0.00  0.00    +0.040 C 
ENDROOT
BRANCH   1   8
ATOM      2  C   UNL     1       3.124  -6.277   1.976  0.00  0.00    +0.044 C 
ATOM      3  C   UNL     1       2.834  -4.881   1.488  0.00  0.00    -0.048 A 
ATOM      4  C   UNL     1       3.881  -3.989   1.297  0.00  0.00    +0.004 A 
ATOM      5  C   UNL     1       3.640  -2.719   0.855  0.00  0.00    +0.010 A 
ATOM      6  C   UNL     1       2.327  -2.314   0.592  0.00  0.00    -0.001 A 
ATOM      7  C   UNL     1       2.033  -0.960   0.118  0.00  0.00    +0.017 A 
ATOM      8  C   UNL     1       0.741  -0.623  -0.119  0.00  0.00    +0.011 A 
ATOM      9  C   UNL     1      -0.289  -1.563   0.095  0.00  0.00    +0.251 A 
ATOM     10  O   UNL     1      -1.444  -1.238  -0.120  0.00  0.00    -0.268 OA
ATOM     11  N   UNL     1      -0.029  -2.810   0.525  0.00  0.00    -0.322 N 
ATOM     12  H   UNL     1      -0.760  -3.433   0.658  0.00  0.00    +0.169 HD
ATOM     13  C   UNL     1       1.263  -3.215   0.785  0.00  0.00    +0.049 A 
ATOM     14  C   UNL     1       1.533  -4.503   1.236  0.00  0.00    +0.029 A 
ENDBRANCH   1   8
BRANCH   1  15
ATOM     15  C   UNL     1      -0.171   0.678  -1.998  0.00  0.00    +0.143 A 
ATOM     16  N   UNL     1      -1.387   0.308  -2.321  0.00  0.00    -0.115 NA
ATOM     17  N   UNL     1      -1.494   0.370  -3.603  0.00  0.00    -0.023 NA
ATOM     18  N   UNL     1      -0.376   0.762  -4.108  0.00  0.00    -0.043 NA
ATOM     19  N   UNL     1       0.465   0.962  -3.150  0.00  0.00    -0.225 N 
BRANCH  19  20
ATOM     20  C   UNL     1       1.851   1.415  -3.289  0.00  0.00    +0.059 C 
ATOM     21  C   UNL     1       2.784   0.422  -2.593  0.00  0.00    +0.036 C 
ATOM     22  C   UNL     1       2.212   1.500  -4.774  0.00  0.00    +0.036 C 
ATOM     23  C   UNL     1       2.004   2.795  -2.647  0.00  0.00    +0.036 C 
ENDBRANCH  19  20
ENDBRANCH   1  15
BRANCH   1  24
ATOM     24  N   UNL     1      -0.606   1.360   0.290  0.00  0.00    +0.395 N 
ATOM     25  H   UNL     1      -1.505   0.886   0.143  0.00  0.00    -0.079 HD
BRANCH  24  26
ATOM     26  C   UNL     1      -0.766   2.797  -0.015  0.00  0.00    -0.041 C 
BRANCH  26  27
ATOM     27  C   UNL     1      -1.792   2.945  -1.109  0.00  0.00    -0.064 A 
ATOM     28  C   UNL     1      -1.386   3.138  -2.416  0.00  0.00    +0.002 A 
ATOM     29  C   UNL     1      -2.327   3.268  -3.420  0.00  0.00    +0.000 A 
ATOM     30  C   UNL     1      -3.675   3.216  -3.116  0.00  0.00    +0.000 A 
ATOM     31  C   UNL     1      -4.081   3.028  -1.808  0.00  0.00    +0.000 A 
ATOM     32  C   UNL     1      -3.139   2.892  -0.804  0.00  0.00    +0.002 A 
ENDBRANCH  26  27
ENDBRANCH  24  26
BRANCH  24  33
ATOM     33  C   UNL     1      -0.197   1.185   1.699  0.00  0.00    -0.040 C 
BRANCH  33  34
ATOM     34  C   UNL     1      -1.299   1.691   2.594  0.00  0.00    -0.046 A 
ATOM     35  C   UNL     1      -1.214   2.955   3.147  0.00  0.00    +0.003 A 
ATOM     36  C   UNL     1      -2.227   3.421   3.964  0.00  0.00    +0.000 A 
ATOM     37  C   UNL     1      -3.321   2.620   4.236  0.00  0.00    +0.001 A 
ATOM     38  C   UNL     1      -3.403   1.354   3.688  0.00  0.00    +0.020 A 
ATOM     39  C   UNL     1      -2.392   0.889   2.866  0.00  0.00    +0.042 A 
ATOM     40 CL   UNL     1      -2.495  -0.702   2.178  0.00  0.00    -0.083 Cl
ENDBRANCH  33  34
ENDBRANCH  24  33
ENDBRANCH   1  24
TORSDOF 8
