REMARK  Name = ZINC06023440
REMARK  9 active torsions:
REMARK  status: ('A' for Active; 'I' for Inactive)
REMARK    1  A    between atoms: C_1  and  C_2
REMARK    2  A    between atoms: C_2  and  C_3
REMARK    3  A    between atoms: C_2  and  C_4
REMARK    4  A    between atoms: C_7  and  S_10
REMARK    5  A    between atoms: S_10  and  N_13
REMARK    6  A    between atoms: N_13  and  N_14
REMARK    7  A    between atoms: C_15  and  C_17
REMARK    8  A    between atoms: C_17  and  S_18
REMARK    9  A    between atoms: S_18  and  C_19
REMARK                            x       y       z     vdW  Elec       q    Type
REMARK                         _______ _______ _______ _____ _____    ______ ____
ROOT
ATOM      1  N   UNL     1      -1.640  -1.854   0.008  0.00  0.00    -0.231 N 
ATOM      2  C   UNL     1      -1.412  -0.526   0.013  0.00  0.00    +0.238 C 
ATOM      3  O   UNL     1      -2.344   0.250   0.026  0.00  0.00    -0.274 OA
ATOM      4  H   UNL     1      -0.894  -2.474  -0.003  0.00  0.00    +0.171 HD
ENDROOT
BRANCH   1   5
ATOM      5  N   UNL     1      -2.954  -2.339   0.018  0.00  0.00    -0.108 NA
ATOM      6  H   UNL     1      -3.570  -2.058   0.713  0.00  0.00    +0.172 HD
BRANCH   5   7
ATOM      7  S   UNL     1      -3.458  -3.391  -1.158  0.00  0.00    +0.074 S 
ATOM      8  O   UNL     1      -4.768  -3.806  -0.798  0.00  0.00    -0.152 OA
ATOM      9  O   UNL     1      -3.170  -2.774  -2.405  0.00  0.00    -0.152 OA
BRANCH   7  13
ATOM     10  C   UNL     1      -0.820  -7.060  -0.890  0.00  0.00    -0.045 A 
ATOM     11  C   UNL     1      -1.990  -6.995  -0.158  0.00  0.00    +0.006 A 
ATOM     12  C   UNL     1      -2.796  -5.875  -0.240  0.00  0.00    +0.029 A 
ATOM     13  C   UNL     1      -2.431  -4.819  -1.054  0.00  0.00    +0.107 A 
ATOM     14  C   UNL     1      -1.263  -4.886  -1.790  0.00  0.00    +0.029 A 
ATOM     15  C   UNL     1      -0.455  -6.004  -1.704  0.00  0.00    +0.006 A 
BRANCH  10  17
ATOM     16  C   UNL     1       0.196  -8.914  -2.186  0.00  0.00    +0.012 C 
ATOM     17  C   UNL     1       0.059  -8.281  -0.800  0.00  0.00    +0.013 C 
ATOM     18  C   UNL     1       1.442  -7.877  -0.285  0.00  0.00    +0.012 C 
ENDBRANCH  10  17
ENDBRANCH   7  13
ENDBRANCH   5   7
ENDBRANCH   1   5
BRANCH   2  19
ATOM     19  C   UNL     1       0.002  -0.004   0.002  0.00  0.00    +0.173 C 
BRANCH  19  20
ATOM     20  S   UNL     1      -0.022   1.806   0.012  0.00  0.00    -0.089 S 
BRANCH  20  21
ATOM     21  C   UNL     1       1.708   2.135  -0.003  0.00  0.00    +0.138 A 
ATOM     22  N   UNL     1       2.326   3.295  -0.008  0.00  0.00    -0.231 NA
ATOM     23  C   UNL     1       3.672   3.397  -0.015  0.00  0.00    +0.098 A 
ATOM     24  C   UNL     1       4.464   4.569  -0.017  0.00  0.00    +0.032 A 
ATOM     25  C   UNL     1       5.835   4.450  -0.031  0.00  0.00    +0.022 A 
ATOM     26  C   UNL     1       6.434   3.201  -0.043  0.00  0.00    +0.112 A 
ATOM     27  N   UNL     1       5.691   2.108  -0.043  0.00  0.00    -0.246 NA
ATOM     28  C   UNL     1       4.384   2.174  -0.029  0.00  0.00    +0.129 A 
ATOM     29  S   UNL     1       3.069   0.977  -0.023  0.00  0.00    -0.041 S 
ENDBRANCH  20  21
ENDBRANCH  19  20
ENDBRANCH   2  19
TORSDOF 7
