REMARK  Name = ZINC39637657
REMARK  6 active torsions:
REMARK  status: ('A' for Active; 'I' for Inactive)
REMARK    1  A    between atoms: C_3  and  C_8
REMARK    2  A    between atoms: C_8  and  C_9
REMARK    3  A    between atoms: C_9  and  N_10
REMARK    4  A    between atoms: C_11  and  C_13
REMARK    5  A    between atoms: C_24  and  C_26
REMARK    6  A    between atoms: C_26  and  C_27
REMARK                            x       y       z     vdW  Elec       q    Type
REMARK                         _______ _______ _______ _____ _____    ______ ____
ROOT
ATOM      1  C   UNL     1       7.263   4.304   2.566  0.00  0.00    +0.100 C 
ATOM      2  C   UNL     1       8.409   3.431   2.007  0.00  0.00    +0.121 C 
ATOM      3  N   UNL     1       9.591   3.797   2.821  0.00  0.00    -0.300 N 
ATOM      4  C   UNL     1       9.057   3.955   4.196  0.00  0.00    +0.115 C 
ATOM      5  C   UNL     1       7.692   4.646   4.003  0.00  0.00    -0.004 C 
ATOM      6  C   UNL     1       6.678   4.096   5.001  0.00  0.00    -0.010 C 
ATOM      7  C   UNL     1       7.095   4.498   6.419  0.00  0.00    -0.082 C 
ATOM      8  N   UNL     1       7.163   5.962   6.514  0.00  0.00    +0.379 N 
ATOM      9  C   UNL     1       8.207   6.474   5.618  0.00  0.00    -0.082 C 
ATOM     10  C   UNL     1       7.837   6.155   4.166  0.00  0.00    -0.010 C 
ATOM     11  C   UNL     1      10.864   3.952   2.407  0.00  0.00    +0.220 C 
ATOM     12  O   UNL     1      11.728   4.257   3.202  0.00  0.00    -0.275 OA
ATOM     13  H   UNL     1       6.273   6.356   6.252  0.00  0.00    -0.086 HD
ATOM     14  H   UNL     1       7.379   6.226   7.464  0.00  0.00    -0.086 HD
ENDROOT
BRANCH   1  16
ATOM     15  N   UNL     1       4.795   4.181   2.457  0.00  0.00    -0.315 N 
ATOM     16  C   UNL     1       5.970   3.531   2.574  0.00  0.00    +0.218 C 
ATOM     17  O   UNL     1       5.986   2.323   2.686  0.00  0.00    -0.275 OA
ATOM     18  H   UNL     1       4.782   5.147   2.368  0.00  0.00    +0.149 HD
BRANCH  15  19
ATOM     19  C   UNL     1       3.538   3.430   2.465  0.00  0.00    +0.109 C 
BRANCH  19  20
ATOM     20  C   UNL     1       2.363   4.399   2.319  0.00  0.00    +0.054 C 
BRANCH  20  23
ATOM     21  C   UNL     1      -0.768   2.672   3.530  0.00  0.00    +0.003 A 
ATOM     22  C   UNL     1       0.419   3.381   3.521  0.00  0.00    +0.004 A 
ATOM     23  C   UNL     1       1.070   3.626   2.327  0.00  0.00    -0.043 A 
ATOM     24  C   UNL     1       0.534   3.162   1.140  0.00  0.00    +0.042 A 
ATOM     25  C   UNL     1      -0.654   2.452   1.148  0.00  0.00    +0.124 A 
ATOM     26  C   UNL     1      -1.305   2.207   2.345  0.00  0.00    +0.038 A 
ATOM     27  F   UNL     1      -1.178   1.999  -0.012  0.00  0.00    -0.205 F 
ENDBRANCH  20  23
ENDBRANCH  19  20
ENDBRANCH  15  19
ENDBRANCH   1  16
BRANCH  11  28
ATOM     28  C   UNL     1      11.214   3.748   0.955  0.00  0.00    +0.131 C 
BRANCH  28  29
ATOM     29  C   UNL     1      12.690   3.980   0.757  0.00  0.00    -0.039 A 
ATOM     30  C   UNL     1      13.156   5.246   0.457  0.00  0.00    +0.005 A 
ATOM     31  C   UNL     1      14.509   5.460   0.275  0.00  0.00    +0.020 A 
ATOM     32  C   UNL     1      15.398   4.405   0.393  0.00  0.00    +0.041 A 
ATOM     33  C   UNL     1      14.931   3.138   0.693  0.00  0.00    +0.020 A 
ATOM     34  C   UNL     1      13.578   2.927   0.880  0.00  0.00    +0.005 A 
ATOM     35 CL   UNL     1      17.098   4.673   0.164  0.00  0.00    -0.084 Cl
ENDBRANCH  28  29
ENDBRANCH  11  28
TORSDOF 6
