REMARK  Name = ZINC12709902
REMARK  8 active torsions:
REMARK  status: ('A' for Active; 'I' for Inactive)
REMARK    1  A    between atoms: C_1  and  N_57
REMARK    2  A    between atoms: C_2  and  N_57
REMARK    3  A    between atoms: C_3  and  C_4
REMARK    4  A    between atoms: C_3  and  N_57
REMARK    5  A    between atoms: C_4  and  N_5
REMARK    6  A    between atoms: N_5  and  C_6
REMARK    7  A    between atoms: C_6  and  C_7
REMARK    8  A    between atoms: N_25  and  C_26
REMARK                            x       y       z     vdW  Elec       q    Type
REMARK                         _______ _______ _______ _____ _____    ______ ____
ROOT
ATOM      1  N   UNL     1       1.143   1.902   0.006  0.00  0.00    -0.283 N 
ATOM      2  C   UNL     1      -0.014   1.212   0.007  0.00  0.00    +0.307 C 
ATOM      3  O   UNL     1       0.002  -0.004  -0.007  0.00  0.00    -0.252 OA
ATOM      4  N   UNL     1      -1.191   1.870   0.018  0.00  0.00    -0.269 N 
ATOM      5  H   UNL     1      -1.205   2.836   0.098  0.00  0.00    +0.156 HD
ENDROOT
BRANCH   4   6
ATOM      6  C   UNL     1      -2.392   1.158  -0.086  0.00  0.00    +0.035 A 
ATOM      7  C   UNL     1      -3.469   1.707  -0.769  0.00  0.00    +0.025 A 
ATOM      8  C   UNL     1      -4.651   1.000  -0.875  0.00  0.00    +0.022 A 
ATOM      9  C   UNL     1      -4.766  -0.249  -0.291  0.00  0.00    +0.041 A 
ATOM     10  C   UNL     1      -3.696  -0.796   0.395  0.00  0.00    +0.022 A 
ATOM     11  C   UNL     1      -2.510  -0.096   0.499  0.00  0.00    +0.025 A 
ATOM     12 CL   UNL     1      -6.255  -1.132  -0.421  0.00  0.00    -0.084 Cl
ENDBRANCH   4   6
BRANCH   1  13
ATOM     13  C   UNL     1       1.123   3.366   0.023  0.00  0.00    +0.091 C 
BRANCH  13  14
ATOM     14  C   UNL     1       1.128   3.860   1.471  0.00  0.00    -0.060 C 
BRANCH  14  17
ATOM     15  C   UNL     1      -0.157   5.844   0.947  0.00  0.00    -0.097 C 
ATOM     16  C   UNL     1       1.349   5.843   2.843  0.00  0.00    -0.097 C 
ATOM     17  N   UNL     1       1.129   5.338   1.471  0.00  0.00    +0.377 N 
ATOM     18  H   UNL     1       1.890   5.671   0.867  0.00  0.00    -0.083 HD
ENDBRANCH  14  17
ENDBRANCH  13  14
ENDBRANCH   1  13
BRANCH   1  19
ATOM     19  C   UNL     1       2.422   1.187  -0.012  0.00  0.00    +0.149 C 
BRANCH  19  20
ATOM     20  C   UNL     1       2.849   0.958  -1.439  0.00  0.00    +0.035 A 
ATOM     21  C   UNL     1       3.694   1.834  -2.041  0.00  0.00    +0.020 A 
ATOM     22  C   UNL     1       4.095   1.581  -3.424  0.00  0.00    +0.003 A 
ATOM     23  C   UNL     1       4.966   2.449  -4.094  0.00  0.00    +0.059 A 
ATOM     24  C   UNL     1       5.322   2.187  -5.400  0.00  0.00    +0.163 A 
ATOM     25  C   UNL     1       4.816   1.061  -6.056  0.00  0.00    +0.164 A 
ATOM     26  C   UNL     1       3.954   0.199  -5.402  0.00  0.00    +0.075 A 
ATOM     27  C   UNL     1       3.584   0.448  -4.087  0.00  0.00    +0.053 A 
ATOM     28  N   UNL     1       2.724  -0.401  -3.420  0.00  0.00    -0.322 N 
ATOM     29  H   UNL     1       2.373  -1.181  -3.876  0.00  0.00    +0.169 HD
ATOM     30  C   UNL     1       2.366  -0.162  -2.146  0.00  0.00    +0.254 A 
ATOM     31  O   UNL     1       1.605  -0.933  -1.588  0.00  0.00    -0.268 OA
ATOM     32  O   UNL     1       5.166   0.794  -7.344  0.00  0.00    -0.485 OA
ATOM     33  C   UNL     1       5.734   1.873  -8.094  0.00  0.00    +0.270 C 
ATOM     34  C   UNL     1       6.801   2.553  -7.227  0.00  0.00    +0.270 C 
ATOM     35  O   UNL     1       6.169   3.042  -6.039  0.00  0.00    -0.485 OA
ENDBRANCH  19  20
ENDBRANCH   1  19
TORSDOF 6
