REMARK  Name = ZINC12894105
REMARK  9 active torsions:
REMARK  status: ('A' for Active; 'I' for Inactive)
REMARK    1  A    between atoms: C_1  and  C_2
REMARK    2  A    between atoms: C_5  and  N_8
REMARK    3  A    between atoms: C_10  and  C_15
REMARK    4  A    between atoms: N_17  and  C_18
REMARK    5  A    between atoms: C_19  and  C_31
REMARK    6  A    between atoms: C_21  and  S_23
REMARK    7  A    between atoms: S_23  and  C_24
REMARK    8  A    between atoms: C_24  and  C_25
REMARK    9  A    between atoms: N_27  and  C_28
REMARK                            x       y       z     vdW  Elec       q    Type
REMARK                         _______ _______ _______ _____ _____    ______ ____
ROOT
ATOM      1  C   UNL     1       2.321   1.361  -0.040  0.00  0.00    +0.100 A 
ATOM      2  C   UNL     1       1.120   2.026  -0.023  0.00  0.00    +0.101 A 
ATOM      3  N   UNL     1      -0.011   1.319  -0.031  0.00  0.00    -0.231 NA
ATOM      4  C   UNL     1       0.008   0.000  -0.055  0.00  0.00    +0.137 A 
ATOM      5  S   UNL     1       1.763  -0.337  -0.068  0.00  0.00    -0.045 S 
ENDROOT
BRANCH   2   6
ATOM      6  C   UNL     1       1.080   3.506   0.003  0.00  0.00    +0.003 A 
ATOM      7  C   UNL     1       2.049   4.220   0.709  0.00  0.00    +0.010 A 
ATOM      8  C   UNL     1       2.011   5.599   0.724  0.00  0.00    +0.001 A 
ATOM      9  C   UNL     1       1.006   6.274   0.052  0.00  0.00    +0.000 A 
ATOM     10  C   UNL     1       0.039   5.571  -0.644  0.00  0.00    +0.001 A 
ATOM     11  C   UNL     1       0.070   4.192  -0.672  0.00  0.00    +0.010 A 
ENDBRANCH   2   6
BRANCH   1  14
ATOM     12  C   UNL     1       4.674   1.031  -0.055  0.00  0.00    +0.223 C 
ATOM     13  O   UNL     1       4.493  -0.169  -0.076  0.00  0.00    -0.275 OA
ATOM     14  N   UNL     1       3.620   1.871  -0.036  0.00  0.00    -0.278 N 
ATOM     15  H   UNL     1       3.765   2.830  -0.019  0.00  0.00    +0.155 HD
BRANCH  12  18
ATOM     16  N   UNL     1       8.190   0.992   0.916  0.00  0.00    -0.271 N 
ATOM     17  C   UNL     1       7.116   0.446   0.079  0.00  0.00    +0.127 C 
ATOM     18  C   UNL     1       6.077   1.581  -0.051  0.00  0.00    +0.102 C 
ATOM     19  C   UNL     1       6.345   2.403   1.232  0.00  0.00    +0.110 C 
ATOM     20  C   UNL     1       7.783   2.088   1.579  0.00  0.00    +0.221 C 
ATOM     21  O   UNL     1       8.470   2.732   2.344  0.00  0.00    -0.275 OA
BRANCH  16  26
ATOM     22  C   UNL     1      13.394  -1.234   1.301  0.00  0.00    +0.044 C 
ATOM     23  C   UNL     1      12.012  -0.643   1.200  0.00  0.00    -0.050 A 
ATOM     24  C   UNL     1      11.032  -1.299   0.478  0.00  0.00    +0.005 A 
ATOM     25  C   UNL     1       9.764  -0.760   0.382  0.00  0.00    +0.024 A 
ATOM     26  C   UNL     1       9.474   0.443   1.012  0.00  0.00    +0.036 A 
ATOM     27  C   UNL     1      10.461   1.102   1.732  0.00  0.00    +0.024 A 
ATOM     28  C   UNL     1      11.726   0.555   1.828  0.00  0.00    +0.005 A 
ENDBRANCH  16  26
ENDBRANCH  12  18
ENDBRANCH   1  14
BRANCH   4  29
ATOM     29  S   UNL     1      -1.342  -1.132  -0.070  0.00  0.00    -0.089 S 
BRANCH  29  30
ATOM     30  C   UNL     1      -0.438  -2.699  -0.101  0.00  0.00    +0.172 C 
BRANCH  30  31
ATOM     31  C   UNL     1      -1.417  -3.844  -0.118  0.00  0.00    +0.223 C 
ATOM     32  O   UNL     1      -2.610  -3.623  -0.110  0.00  0.00    -0.275 OA
ATOM     33  N   UNL     1      -0.968  -5.115  -0.143  0.00  0.00    -0.312 N 
ATOM     34  H   UNL     1      -0.015  -5.293  -0.150  0.00  0.00    +0.149 HD
BRANCH  33  35
ATOM     35  C   UNL     1      -1.921  -6.228  -0.159  0.00  0.00    +0.073 C 
ATOM     36  C   UNL     1      -1.631  -7.419   0.757  0.00  0.00    +0.024 C 
ATOM     37  C   UNL     1      -1.447  -7.554  -0.756  0.00  0.00    +0.024 C 
ENDBRANCH  33  35
ENDBRANCH  30  31
ENDBRANCH  29  30
ENDBRANCH   4  29
TORSDOF 8
