REMARK  Name = ZINC08696021
REMARK  15 active torsions:
REMARK  status: ('A' for Active; 'I' for Inactive)
REMARK    1  A    between atoms: C_1  and  C_2
REMARK    2  A    between atoms: C_3  and  C_12
REMARK    3  A    between atoms: C_14  and  C_19
REMARK    4  A    between atoms: C_16  and  C_17
REMARK    5  A    between atoms: C_16  and  C_18
REMARK    6  A    between atoms: C_19  and  C_20
REMARK    7  A    between atoms: N_22  and  C_23
REMARK    8  A    between atoms: N_22  and  C_26
REMARK    9  A    between atoms: C_26  and  C_27
REMARK   10  A    between atoms: C_26  and  C_28
REMARK   11  A    between atoms: C_26  and  C_29
REMARK   12  A    between atoms: N_31  and  C_32
REMARK   13  A    between atoms: C_35  and  N_38
REMARK   14  A    between atoms: N_38  and  C_39
REMARK   15  A    between atoms: N_38  and  C_40
REMARK                            x       y       z     vdW  Elec       q    Type
REMARK                         _______ _______ _______ _____ _____    ______ ____
ROOT
ATOM      1  C   UNL     1      -1.254  -6.286  -9.165  0.00  0.00    +0.217 C 
ATOM      2  O   UNL     1      -1.471  -7.102 -10.036  0.00  0.00    -0.276 OA
ATOM      3  N   UNL     1      -1.246  -6.666  -7.872  0.00  0.00    -0.285 N 
ENDROOT
BRANCH   3   4
ATOM      4  C   UNL     1      -1.107  -5.662  -6.814  0.00  0.00    +0.077 C 
ATOM      5  C   UNL     1      -1.517  -4.226  -7.145  0.00  0.00    +0.024 C 
ATOM      6  C   UNL     1      -0.037  -4.585  -7.000  0.00  0.00    +0.024 C 
ENDBRANCH   3   4
BRANCH   3   7
ATOM      7  C   UNL     1      -1.377  -8.083  -7.524  0.00  0.00    +0.108 C 
ATOM      8  C   UNL     1      -0.295  -8.888  -8.246  0.00  0.00    +0.041 C 
ATOM      9  C   UNL     1      -2.757  -8.588  -7.951  0.00  0.00    +0.041 C 
BRANCH   7  10
ATOM     10  C   UNL     1      -1.219  -8.252  -6.035  0.00  0.00    +0.240 C 
ATOM     11  O   UNL     1      -1.996  -8.950  -5.418  0.00  0.00    -0.273 OA
ATOM     12  N   UNL     1      -0.215  -7.626  -5.389  0.00  0.00    -0.284 N 
ATOM     13  H   UNL     1       0.354  -7.002  -5.866  0.00  0.00    +0.155 HD
BRANCH  12  14
ATOM     14  C   UNL     1       0.006  -7.877  -4.028  0.00  0.00    +0.034 A 
ATOM     15  C   UNL     1       1.253  -7.630  -3.470  0.00  0.00    +0.025 A 
ATOM     16  C   UNL     1       1.471  -7.877  -2.129  0.00  0.00    +0.025 A 
ATOM     17  C   UNL     1       0.443  -8.372  -1.338  0.00  0.00    +0.029 A 
ATOM     18  C   UNL     1      -0.804  -8.624  -1.897  0.00  0.00    +0.025 A 
ATOM     19  C   UNL     1      -1.023  -8.372  -3.237  0.00  0.00    +0.025 A 
BRANCH  17  20
ATOM     20  N   UNL     1       0.663  -8.623   0.020  0.00  0.00    -0.336 N 
ATOM     21  C   UNL     1       1.980  -8.363   0.609  0.00  0.00    +0.129 C 
ATOM     22  C   UNL     1      -0.422  -9.145   0.855  0.00  0.00    +0.129 C 
ENDBRANCH  17  20
ENDBRANCH  12  14
ENDBRANCH   7  10
ENDBRANCH   3   7
BRANCH   1  23
ATOM     23  C   UNL     1      -0.993  -4.847  -9.529  0.00  0.00    +0.100 C 
BRANCH  23  25
ATOM     24  C   UNL     1      -0.434  -3.360 -11.607  0.00  0.00    +0.031 C 
ATOM     25  C   UNL     1      -0.617  -4.756 -11.009  0.00  0.00    +0.012 C 
ATOM     26  C   UNL     1      -1.665  -4.193 -11.971  0.00  0.00    -0.024 C 
ATOM     27  C   UNL     1      -1.724  -4.788 -13.379  0.00  0.00    +0.012 C 
ATOM     28  C   UNL     1      -3.009  -3.764 -11.379  0.00  0.00    +0.012 C 
BRANCH  24  31
ATOM     29  C   UNL     1       1.289  -2.651  -9.124  0.00  0.00    +0.063 C 
ATOM     30  C   UNL     1       0.101  -1.865  -9.617  0.00  0.00    +0.017 A 
ATOM     31  C   UNL     1      -0.638  -2.179 -10.693  0.00  0.00    -0.016 A 
ATOM     32  C   UNL     1      -1.685  -1.161 -10.805  0.00  0.00    +0.003 A 
ATOM     33  C   UNL     1      -2.741  -0.948 -11.694  0.00  0.00    +0.010 A 
ATOM     34  C   UNL     1      -3.567   0.127 -11.521  0.00  0.00    +0.001 A 
ATOM     35  C   UNL     1      -3.364   1.010 -10.469  0.00  0.00    +0.002 A 
ATOM     36  C   UNL     1      -2.329   0.819  -9.581  0.00  0.00    +0.026 A 
ATOM     37  C   UNL     1      -1.476  -0.269  -9.737  0.00  0.00    +0.047 A 
ATOM     38  N   UNL     1      -0.381  -0.724  -9.037  0.00  0.00    -0.358 N 
ATOM     39  H   UNL     1      -0.009  -0.300  -8.248  0.00  0.00    +0.166 HD
ENDBRANCH  24  31
ENDBRANCH  23  25
ENDBRANCH   1  23
TORSDOF 8
