REMARK  Name = ZINC21690538
REMARK  7 active torsions:
REMARK  status: ('A' for Active; 'I' for Inactive)
REMARK    1  A    between atoms: C_1  and  C_2
REMARK    2  A    between atoms: C_4  and  N_26
REMARK    3  A    between atoms: C_7  and  N_8
REMARK    4  A    between atoms: C_9  and  C_11
REMARK    5  A    between atoms: N_13  and  C_14
REMARK    6  A    between atoms: C_14  and  C_15
REMARK    7  A    between atoms: C_15  and  C_21
REMARK                            x       y       z     vdW  Elec       q    Type
REMARK                         _______ _______ _______ _____ _____    ______ ____
ROOT
ATOM      1  C   UNL     1       1.210   1.825  -0.036  0.00  0.00    +0.299 C 
ATOM      2  O   UNL     1       1.174   3.038  -0.035  0.00  0.00    -0.265 OA
ATOM      3  N   UNL     1       2.396   1.185  -0.048  0.00  0.00    -0.307 N 
ATOM      4  H   UNL     1       2.428   0.086  -0.050  0.00  0.00    +0.149 HD
ENDROOT
BRANCH   1   6
ATOM      5  N   UNL     1      -1.248   1.680  -0.018  0.00  0.00    -0.278 N 
ATOM      6  C   UNL     1      -0.061   1.040  -0.025  0.00  0.00    +0.303 C 
ATOM      7  O   UNL     1      -0.026  -0.173  -0.026  0.00  0.00    -0.265 OA
ATOM      8  H   UNL     1      -1.282   2.775   0.075  0.00  0.00    +0.155 HD
BRANCH   5  15
ATOM      9  C   UNL     1      -3.627   2.816   1.052  0.00  0.00    +0.046 C 
ATOM     10  C   UNL     1      -3.619   1.468   0.378  0.00  0.00    -0.027 A 
ATOM     11  C   UNL     1      -4.792   0.748   0.261  0.00  0.00    +0.038 A 
ATOM     12  C   UNL     1      -4.785  -0.491  -0.352  0.00  0.00    +0.127 A 
ATOM     13  C   UNL     1      -3.606  -1.012  -0.854  0.00  0.00    +0.034 A 
ATOM     14  C   UNL     1      -2.432  -0.295  -0.745  0.00  0.00    +0.026 A 
ATOM     15  C   UNL     1      -2.435   0.951  -0.130  0.00  0.00    +0.037 A 
BRANCH  12  16
ATOM     16  N   UNL     1      -6.043  -1.263  -0.471  0.00  0.00    +0.056 N 
ATOM     17  O   UNL     1      -6.039  -2.355  -1.010  0.00  0.00    -0.126 OA
ATOM     18  O   UNL     1      -7.082  -0.806  -0.029  0.00  0.00    -0.126 OA
ENDBRANCH  12  16
ENDBRANCH   5  15
ENDBRANCH   1   6
BRANCH   3  19
ATOM     19  C   UNL     1       3.643   1.954  -0.060  0.00  0.00    +0.116 C 
BRANCH  19  20
ATOM     20  C   UNL     1       4.830   0.999  -0.197  0.00  0.00    +0.017 C 
ATOM     21  C   UNL     1       4.774  -0.048   0.918  0.00  0.00    +0.013 C 
ATOM     22  C   UNL     1       4.836   0.651   2.277  0.00  0.00    +0.001 C 
ATOM     23  C   UNL     1       6.141   1.442   2.385  0.00  0.00    +0.000 C 
ATOM     24  C   UNL     1       6.197   2.489   1.271  0.00  0.00    +0.001 C 
ATOM     25  C   UNL     1       6.136   1.790  -0.089  0.00  0.00    +0.013 C 
BRANCH  20  26
ATOM     26  C   UNL     1       4.769   0.311  -1.536  0.00  0.00    -0.003 A 
ATOM     27  C   UNL     1       4.699   0.857  -2.775  0.00  0.00    +0.012 A 
ATOM     28  C   UNL     1       4.656   0.022  -3.875  0.00  0.00    +0.008 A 
ATOM     29  C   UNL     1       4.674  -1.320  -3.682  0.00  0.00    +0.045 A 
ATOM     30  S   UNL     1       4.762  -1.436  -1.903  0.00  0.00    -0.101 S 
ENDBRANCH  20  26
ENDBRANCH  19  20
ENDBRANCH   3  19
TORSDOF 6
