REMARK  Name = ZINC63270296
REMARK  6 active torsions:
REMARK  status: ('A' for Active; 'I' for Inactive)
REMARK    1  A    between atoms: C_1  and  C_2
REMARK    2  A    between atoms: C_3  and  C_34
REMARK    3  A    between atoms: N_11  and  C_26
REMARK    4  A    between atoms: C_12  and  S_15
REMARK    5  A    between atoms: S_15  and  C_16
REMARK    6  A    between atoms: C_16  and  C_17
REMARK                            x       y       z     vdW  Elec       q    Type
REMARK                         _______ _______ _______ _____ _____    ______ ____
ROOT
ATOM      1  C   UNL     1       0.379   1.313  -0.184  0.00  0.00    +0.041 C 
ATOM      2  C   UNL     1       0.226  -0.183  -0.090  0.00  0.00    -0.049 C 
ATOM      3  C   UNL     1       0.179  -0.945  -1.188  0.00  0.00    -0.016 C 
ATOM      4  S   UNL     1       0.068  -2.634  -0.603  0.00  0.00    -0.110 S 
ATOM      5  C   UNL     1       0.613  -2.336   1.122  0.00  0.00    +0.135 C 
ATOM      6  C   UNL     1       0.130  -0.856   1.208  0.00  0.00    +0.129 C 
ATOM      7  C   UNL     1       0.761  -0.305   2.441  0.00  0.00    +0.231 C 
ATOM      8  O   UNL     1       1.274   0.792   2.506  0.00  0.00    -0.274 OA
ATOM      9  N   UNL     1       0.695  -1.180   3.494  0.00  0.00    -0.245 N 
ATOM     10  C   UNL     1      -0.092  -2.401   3.427  0.00  0.00    +0.210 C 
ATOM     11  N   UNL     1      -0.151  -3.072   2.117  0.00  0.00    -0.277 NA
ATOM     12  C   UNL     1       0.212  -0.479  -2.620  0.00  0.00    +0.051 C 
ATOM     13  H   UNL     1      -1.105  -3.205   1.814  0.00  0.00    +0.126 HD
ENDROOT
BRANCH   9  14
ATOM     14  C   UNL     1       1.406  -0.892   4.665  0.00  0.00    +0.040 A 
ATOM     15  C   UNL     1       2.779  -0.689   4.613  0.00  0.00    +0.025 A 
ATOM     16  C   UNL     1       3.478  -0.404   5.769  0.00  0.00    +0.023 A 
ATOM     17  C   UNL     1       2.813  -0.320   6.980  0.00  0.00    +0.059 A 
ATOM     18  C   UNL     1       1.444  -0.523   7.035  0.00  0.00    +0.061 A 
ATOM     19  C   UNL     1       0.739  -0.802   5.879  0.00  0.00    +0.045 A 
ATOM     20 CL   UNL     1       0.612  -0.418   8.555  0.00  0.00    -0.082 Cl
ATOM     21 CL   UNL     1       3.695   0.038   8.431  0.00  0.00    -0.082 Cl
ENDBRANCH   9  14
BRANCH  10  22
ATOM     22  S   UNL     1       0.597  -3.584   4.616  0.00  0.00    -0.119 S 
BRANCH  22  23
ATOM     23  C   UNL     1       2.306  -3.823   4.057  0.00  0.00    +0.119 C 
BRANCH  23  24
ATOM     24  C   UNL     1       3.013  -4.813   4.985  0.00  0.00    +0.184 C 
ATOM     25  N   UNL     1       2.959  -4.331   6.371  0.00  0.00    -0.363 N 
ATOM     26  C   UNL     1       2.317  -5.221   7.070  0.00  0.00    +0.060 A 
ATOM     27  C   UNL     1       1.950  -5.302   8.490  0.00  0.00    +0.027 A 
ATOM     28  C   UNL     1       1.266  -6.373   8.941  0.00  0.00    +0.002 A 
ATOM     29  C   UNL     1       0.881  -7.434   8.102  0.00  0.00    +0.002 A 
ATOM     30  C   UNL     1       1.167  -7.460   6.785  0.00  0.00    +0.027 A 
ATOM     31  C   UNL     1       1.909  -6.345   6.182  0.00  0.00    +0.060 A 
ATOM     32  N   UNL     1       2.315  -6.105   4.969  0.00  0.00    -0.363 N 
ATOM     33  H   UNL     1       3.334  -3.501   6.705  0.00  0.00    +0.162 HD
ATOM     34  H   UNL     1       2.182  -6.675   4.196  0.00  0.00    +0.162 HD
ENDBRANCH  23  24
ENDBRANCH  22  23
ENDBRANCH  10  22
TORSDOF 4
