REMARK  Name = ZINC05489122
REMARK  11 active torsions:
REMARK  status: ('A' for Active; 'I' for Inactive)
REMARK    1  A    between atoms: C_1  and  C_2
REMARK    2  A    between atoms: C_2  and  O_3
REMARK    3  A    between atoms: O_3  and  C_4
REMARK    4  A    between atoms: C_6  and  C_14
REMARK    5  A    between atoms: C_9  and  O_10
REMARK    6  A    between atoms: O_10  and  C_11
REMARK    7  A    between atoms: C_11  and  C_12
REMARK    8  A    between atoms: C_11  and  C_13
REMARK    9  A    between atoms: C_18  and  C_28
REMARK   10  A    between atoms: C_23  and  N_27
REMARK   11  A    between atoms: C_24  and  C_25
REMARK                            x       y       z     vdW  Elec       q    Type
REMARK                         _______ _______ _______ _____ _____    ______ ____
ROOT
ATOM      1  C   UNL     1       0.578  -4.952   0.865  0.00  0.00    +0.082 C 
ATOM      2  C   UNL     1       0.621  -6.028  -0.226  0.00  0.00    +0.144 C 
ATOM      3  C   UNL     1       1.365  -5.536  -1.445  0.00  0.00    +0.156 C 
ATOM      4  N   UNL     1       2.422  -6.276  -1.547  0.00  0.00    -0.146 NA
ATOM      5  N   UNL     1       2.517  -7.215  -0.519  0.00  0.00    -0.115 NA
ATOM      6  C   UNL     1       1.528  -7.130   0.315  0.00  0.00    +0.227 C 
ATOM      7  O   UNL     1       1.262  -7.739   1.492  0.00  0.00    -0.425 OA
ATOM      8  C   UNL     1       0.788  -6.904   2.453  0.00  0.00    +0.200 C 
ATOM      9  C   UNL     1       0.456  -5.619   2.209  0.00  0.00    +0.095 C 
ENDROOT
BRANCH   1  12
ATOM     10  C   UNL     1      -1.508  -1.868   0.225  0.00  0.00    +0.162 A 
ATOM     11  C   UNL     1      -0.418  -2.697   0.433  0.00  0.00    +0.053 A 
ATOM     12  C   UNL     1      -0.609  -4.051   0.639  0.00  0.00    -0.034 A 
ATOM     13  C   UNL     1      -1.886  -4.581   0.637  0.00  0.00    +0.008 A 
ATOM     14  C   UNL     1      -2.978  -3.759   0.429  0.00  0.00    +0.050 A 
ATOM     15  C   UNL     1      -2.794  -2.400   0.229  0.00  0.00    +0.162 A 
BRANCH  10  16
ATOM     16  O   UNL     1      -1.323  -0.536   0.023  0.00  0.00    -0.489 OA
BRANCH  16  18
ATOM     17  C   UNL     1       0.034   1.450  -0.210  0.00  0.00    +0.048 C 
ATOM     18  C   UNL     1       0.025  -0.060   0.032  0.00  0.00    +0.226 C 
ENDBRANCH  16  18
ENDBRANCH  10  16
BRANCH  15  19
ATOM     19  O   UNL     1      -3.868  -1.589   0.030  0.00  0.00    -0.486 OA
BRANCH  19  20
ATOM     20  C   UNL     1      -5.146  -2.220  -0.078  0.00  0.00    +0.167 C 
ATOM     21  C   UNL     1      -5.723  -2.446   1.321  0.00  0.00    +0.051 C 
ATOM     22  C   UNL     1      -6.090  -1.323  -0.880  0.00  0.00    +0.051 C 
ENDBRANCH  19  20
ENDBRANCH  15  19
ENDBRANCH   1  12
BRANCH   3  23
ATOM     23  C   UNL     1       0.958  -4.410  -2.360  0.00  0.00    +0.433 C 
ATOM     24  F   UNL     1       1.912  -4.264  -3.373  0.00  0.00    -0.165 F 
ATOM     25  F   UNL     1      -0.287  -4.698  -2.929  0.00  0.00    -0.165 F 
ATOM     26  F   UNL     1       0.872  -3.222  -1.626  0.00  0.00    -0.165 F 
ENDBRANCH   3  23
BRANCH   8  27
ATOM     27  N   UNL     1       0.642  -7.389   3.729  0.00  0.00    -0.328 N 
ATOM     28  H   UNL     1       0.875  -8.309   3.929  0.00  0.00    +0.145 HD
ATOM     29  H   UNL     1       0.305  -6.811   4.432  0.00  0.00    +0.145 HD
ENDBRANCH   8  27
BRANCH   9  30
ATOM     30  C   UNL     1      -0.048  -4.838   3.299  0.00  0.00    +0.100 C 
ATOM     31  N   UNL     1      -0.448  -4.219   4.163  0.00  0.00    -0.191 NA
ENDBRANCH   9  30
TORSDOF 8
