REMARK  Name = ZINC38604080
REMARK  11 active torsions:
REMARK  status: ('A' for Active; 'I' for Inactive)
REMARK    1  A    between atoms: C_1  and  C_2
REMARK    2  A    between atoms: C_2  and  O_3
REMARK    3  A    between atoms: O_3  and  C_4
REMARK    4  A    between atoms: C_4  and  C_6
REMARK    5  A    between atoms: C_8  and  N_17
REMARK    6  A    between atoms: C_18  and  C_20
REMARK    7  A    between atoms: C_20  and  C_22
REMARK    8  A    between atoms: C_20  and  N_23
REMARK    9  A    between atoms: N_26  and  C_29
REMARK   10  A    between atoms: C_33  and  C_36
REMARK   11  A    between atoms: C_34  and  C_35
REMARK                            x       y       z     vdW  Elec       q    Type
REMARK                         _______ _______ _______ _____ _____    ______ ____
ROOT
ATOM      1  N   UNL     1      -3.686  -1.326   2.019  0.00  0.00    -0.285 N 
ATOM      2  C   UNL     1      -4.102  -1.402   3.299  0.00  0.00    +0.234 C 
ATOM      3  O   UNL     1      -4.147  -2.476   3.859  0.00  0.00    -0.274 OA
ATOM      4  H   UNL     1      -3.571  -0.461   1.597  0.00  0.00    +0.155 HD
ENDROOT
BRANCH   1   6
ATOM      5  C   UNL     1      -3.717  -3.887   1.746  0.00  0.00    +0.234 C 
ATOM      6  C   UNL     1      -3.425  -2.466   1.319  0.00  0.00    +0.053 C 
ATOM      7  C   UNL     1      -2.838  -2.563   0.069  0.00  0.00    +0.020 A 
ATOM      8  C   UNL     1      -2.349  -1.588  -0.834  0.00  0.00    +0.050 A 
ATOM      9  C   UNL     1      -1.812  -1.978  -2.018  0.00  0.00    +0.124 A 
ATOM     10  C   UNL     1      -1.728  -3.328  -2.375  0.00  0.00    +0.040 A 
ATOM     11  C   UNL     1      -2.176  -4.313  -1.560  0.00  0.00    +0.029 A 
ATOM     12  C   UNL     1      -2.751  -3.985  -0.305  0.00  0.00    +0.045 A 
ATOM     13  N   UNL     1      -3.251  -4.744   0.651  0.00  0.00    -0.367 N 
ATOM     14  F   UNL     1      -1.348  -1.040  -2.872  0.00  0.00    -0.205 F 
ATOM     15  H   UNL     1      -3.303  -5.713   0.633  0.00  0.00    +0.161 HD
BRANCH   5  16
ATOM     16  C   UNL     1      -5.198  -4.072   1.955  0.00  0.00    +0.336 C 
ATOM     17  O   UNL     1      -5.891  -4.472   1.050  0.00  0.00    -0.248 OA
BRANCH  16  18
ATOM     18  O   UNL     1      -5.748  -3.792   3.148  0.00  0.00    -0.463 OA
BRANCH  18  20
ATOM     19  C   UNL     1      -7.598  -3.622   4.693  0.00  0.00    +0.048 C 
ATOM     20  C   UNL     1      -7.157  -3.990   3.275  0.00  0.00    +0.229 C 
ENDBRANCH  18  20
ENDBRANCH  16  18
ENDBRANCH   5  16
ENDBRANCH   1   6
BRANCH   2  21
ATOM     21  C   UNL     1      -4.513  -0.151   4.033  0.00  0.00    +0.140 C 
ATOM     22  C   UNL     1      -3.297   0.762   4.202  0.00  0.00    +0.034 C 
BRANCH  21  23
ATOM     23  N   UNL     1      -5.043  -0.511   5.355  0.00  0.00    -0.289 NA
ATOM     24  C   UNL     1      -5.838   0.587   5.920  0.00  0.00    +0.104 C 
ATOM     25  C   UNL     1      -6.519   0.110   7.207  0.00  0.00    +0.120 C 
ATOM     26  N   UNL     1      -5.491  -0.439   8.104  0.00  0.00    -0.327 N 
ATOM     27  C   UNL     1      -4.565  -1.447   7.567  0.00  0.00    +0.120 C 
ATOM     28  C   UNL     1      -3.961  -0.909   6.265  0.00  0.00    +0.104 C 
BRANCH  26  29
ATOM     29  C   UNL     1      -5.396  -0.013   9.431  0.00  0.00    +0.033 A 
ATOM     30  C   UNL     1      -6.101  -0.676  10.427  0.00  0.00    +0.023 A 
ATOM     31  C   UNL     1      -6.004  -0.253  11.738  0.00  0.00    +0.002 A 
ATOM     32  C   UNL     1      -5.207   0.831  12.059  0.00  0.00    +0.004 A 
ATOM     33  C   UNL     1      -4.505   1.494  11.070  0.00  0.00    -0.046 A 
ATOM     34  C   UNL     1      -4.592   1.072   9.758  0.00  0.00    -0.027 A 
ATOM     35  C   UNL     1      -3.821   1.791   8.681  0.00  0.00    +0.046 C 
ATOM     36  C   UNL     1      -3.638   2.675  11.425  0.00  0.00    +0.044 C 
ENDBRANCH  26  29
ENDBRANCH  21  23
ENDBRANCH   2  21
TORSDOF 7
