REMARK  Name = ZINC19458194
REMARK  5 active torsions:
REMARK  status: ('A' for Active; 'I' for Inactive)
REMARK    1  A    between atoms: C_1  and  C_2
REMARK    2  A    between atoms: C_2  and  C_4
REMARK    3  A    between atoms: C_2  and  N_20
REMARK    4  A    between atoms: C_11  and  C_13
REMARK    5  A    between atoms: C_21  and  C_23
REMARK                            x       y       z     vdW  Elec       q    Type
REMARK                         _______ _______ _______ _____ _____    ______ ____
ROOT
ATOM      1  C   UNL     1      -0.019   1.526   0.010  0.00  0.00    +0.034 C 
ATOM      2  C   UNL     1       0.002  -0.004   0.002  0.00  0.00    +0.117 C 
ENDROOT
BRANCH   2   3
ATOM      3  C   UNL     1       0.707  -0.490  -1.238  0.00  0.00    +0.043 A 
ATOM      4  C   UNL     1       1.871  -1.172  -1.131  0.00  0.00    +0.095 A 
ATOM      5  C   UNL     1       2.527  -1.625  -2.293  0.00  0.00    +0.275 A 
ATOM      6  N   UNL     1       1.993  -1.377  -3.505  0.00  0.00    -0.180 N 
ATOM      7  C   UNL     1       0.819  -0.688  -3.605  0.00  0.00    +0.138 A 
ATOM      8  N   UNL     1       0.171  -0.248  -2.466  0.00  0.00    -0.342 N 
ATOM      9  C   UNL     1       0.519  -0.585  -4.931  0.00  0.00    +0.071 A 
ATOM     10  C   UNL     1       1.531  -1.223  -5.649  0.00  0.00    +0.069 A 
ATOM     11  N   UNL     1       2.411  -1.696  -4.803  0.00  0.00    -0.167 NA
ATOM     12  O   UNL     1       3.575  -2.240  -2.202  0.00  0.00    -0.266 OA
ATOM     13  H   UNL     1      -0.665   0.238  -2.542  0.00  0.00    +0.167 HD
BRANCH  10  14
ATOM     14  C   UNL     1       1.600  -1.347  -7.150  0.00  0.00    +0.044 C 
ATOM     15  C   UNL     1       1.017  -0.086  -7.795  0.00  0.00    +0.038 C 
ATOM     16  C   UNL     1       1.019  -0.253  -9.317  0.00  0.00    +0.160 C 
ATOM     17  O   UNL     1       0.269  -1.418  -9.667  0.00  0.00    -0.380 OA
ATOM     18  C   UNL     1       0.795  -2.634  -9.131  0.00  0.00    +0.160 C 
ATOM     19  C   UNL     1       0.784  -2.562  -7.602  0.00  0.00    +0.038 C 
ENDBRANCH  10  14
ENDBRANCH   2   3
BRANCH   2  20
ATOM     20  N   UNL     1      -1.372  -0.511   0.012  0.00  0.00    -0.302 N 
ATOM     21  C   UNL     1      -2.029  -0.655   1.181  0.00  0.00    +0.261 C 
ATOM     22  O   UNL     1      -1.480  -0.364   2.227  0.00  0.00    -0.269 OA
ATOM     23  H   UNL     1      -1.810  -0.743  -0.822  0.00  0.00    +0.150 HD
BRANCH  21  24
ATOM     24  C   UNL     1      -3.408  -1.164   1.191  0.00  0.00    +0.103 A 
ATOM     25  C   UNL     1      -4.172  -1.347   2.300  0.00  0.00    +0.040 A 
ATOM     26  C   UNL     1      -5.428  -1.848   1.881  0.00  0.00    +0.001 A 
ATOM     27  C   UNL     1      -6.593  -2.217   2.566  0.00  0.00    +0.013 A 
ATOM     28  C   UNL     1      -7.672  -2.678   1.871  0.00  0.00    +0.039 A 
ATOM     29  C   UNL     1      -7.628  -2.786   0.484  0.00  0.00    +0.125 A 
ATOM     30  C   UNL     1      -6.492  -2.429  -0.212  0.00  0.00    +0.064 A 
ATOM     31  C   UNL     1      -5.379  -1.956   0.477  0.00  0.00    +0.050 A 
ATOM     32  N   UNL     1      -4.136  -1.528   0.074  0.00  0.00    -0.350 N 
ATOM     33  H   UNL     1      -3.822  -1.489  -0.843  0.00  0.00    +0.166 HD
ATOM     34  F   UNL     1      -8.707  -3.246  -0.186  0.00  0.00    -0.205 F 
ENDBRANCH  21  24
ENDBRANCH   2  20
TORSDOF 4
