REMARK  Name = ZINC01377356
REMARK  10 active torsions:
REMARK  status: ('A' for Active; 'I' for Inactive)
REMARK    1  A    between atoms: C_1  and  C_2
REMARK    2  A    between atoms: C_2  and  C_3
REMARK    3  A    between atoms: N_5  and  C_6
REMARK    4  A    between atoms: C_8  and  N_13
REMARK    5  A    between atoms: C_11  and  C_12
REMARK    6  A    between atoms: C_14  and  C_16
REMARK    7  A    between atoms: C_16  and  S_17
REMARK    8  A    between atoms: S_17  and  C_18
REMARK    9  A    between atoms: C_25  and  C_27
REMARK   10  A    between atoms: C_31  and  C_35
REMARK                            x       y       z     vdW  Elec       q    Type
REMARK                         _______ _______ _______ _____ _____    ______ ____
ROOT
ATOM      1  C   UNL     1       0.084   1.474   0.037  0.00  0.00    +0.171 C 
ENDROOT
BRANCH   1   3
ATOM      2  N   UNL     1      -0.252   1.419  -2.413  0.00  0.00    -0.285 N 
ATOM      3  C   UNL     1      -0.657   1.877  -1.212  0.00  0.00    +0.227 C 
ATOM      4  O   UNL     1      -1.618   2.613  -1.136  0.00  0.00    -0.275 OA
ATOM      5  H   UNL     1       0.558   0.891  -2.483  0.00  0.00    +0.155 HD
BRANCH   2   8
ATOM      6  C   UNL     1      -1.108   2.170  -5.914  0.00  0.00    +0.038 A 
ATOM      7  C   UNL     1      -0.362   1.885  -4.779  0.00  0.00    +0.047 A 
ATOM      8  C   UNL     1      -1.000   1.706  -3.560  0.00  0.00    +0.035 A 
ATOM      9  C   UNL     1      -2.384   1.807  -3.481  0.00  0.00    +0.024 A 
ATOM     10  C   UNL     1      -3.123   2.095  -4.612  0.00  0.00    +0.007 A 
ATOM     11  C   UNL     1      -2.490   2.274  -5.827  0.00  0.00    -0.029 A 
ATOM     12  C   UNL     1      -3.301   2.583  -7.059  0.00  0.00    +0.045 C 
BRANCH   6  15
ATOM     13  C   UNL     1       0.844   2.655  -7.184  0.00  0.00    +0.217 C 
ATOM     14  O   UNL     1       1.447   2.872  -6.154  0.00  0.00    -0.275 OA
ATOM     15  N   UNL     1      -0.468   2.351  -7.145  0.00  0.00    -0.285 N 
ATOM     16  H   UNL     1      -0.969   2.258  -7.971  0.00  0.00    +0.155 HD
BRANCH  13  18
ATOM     17  C   UNL     1       3.031   3.086  -8.272  0.00  0.00    +0.013 C 
ATOM     18  C   UNL     1       1.562   2.726  -8.507  0.00  0.00    +0.093 C 
ENDBRANCH  13  18
ENDBRANCH   6  15
ENDBRANCH   2   8
ENDBRANCH   1   3
BRANCH   1  19
ATOM     19  S   UNL     1      -0.697   2.245   1.476  0.00  0.00    -0.096 S 
BRANCH  19  20
ATOM     20  C   UNL     1       0.341   1.621   2.757  0.00  0.00    +0.109 A 
ATOM     21  C   UNL     1       0.104   1.978   4.115  0.00  0.00    +0.043 A 
ATOM     22  C   UNL     1      -0.939   2.844   4.666  0.00  0.00    -0.025 A 
ATOM     23  C   UNL     1      -0.943   3.022   6.003  0.00  0.00    -0.004 A 
ATOM     24  S   UNL     1       0.414   2.052   6.603  0.00  0.00    -0.073 S 
ATOM     25  C   UNL     1       0.994   1.416   5.051  0.00  0.00    +0.113 A 
ATOM     26  N   UNL     1       1.980   0.623   4.677  0.00  0.00    -0.225 NA
ATOM     27  C   UNL     1       2.152   0.332   3.402  0.00  0.00    +0.135 A 
ATOM     28  N   UNL     1       1.353   0.819   2.469  0.00  0.00    -0.225 NA
ATOM     29  C   UNL     1      -1.898   3.853   6.805  0.00  0.00    +0.046 C 
ATOM     30  C   UNL     1      -3.110   4.186   5.923  0.00  0.00    -0.009 C 
ATOM     31  C   UNL     1      -2.607   4.684   4.565  0.00  0.00    +0.008 C 
ATOM     32  C   UNL     1      -1.984   3.524   3.786  0.00  0.00    +0.037 C 
ATOM     33  C   UNL     1      -3.946   5.279   6.592  0.00  0.00    +0.008 C 
BRANCH  27  34
ATOM     34  C   UNL     1       3.286  -0.576   3.001  0.00  0.00    +0.057 C 
ATOM     35  C   UNL     1       3.577  -0.724   1.506  0.00  0.00    +0.012 C 
ATOM     36  C   UNL     1       2.928  -1.876   2.277  0.00  0.00    +0.012 C 
ENDBRANCH  27  34
ENDBRANCH  19  20
ENDBRANCH   1  19
TORSDOF 7
