REMARK  Name = ZINC62533121
REMARK  3 active torsions:
REMARK  status: ('A' for Active; 'I' for Inactive)
REMARK    1  A    between atoms: C_1  and  C_2
REMARK    2  A    between atoms: C_3  and  N_16
REMARK    3  A    between atoms: N_8  and  C_14
REMARK                            x       y       z     vdW  Elec       q    Type
REMARK                         _______ _______ _______ _____ _____    ______ ____
ROOT
ATOM      1  C   UNL     1      -0.042   1.520   0.024  0.00  0.00    +0.048 C 
ATOM      2  C   UNL     1      -0.001   0.013   0.003  0.00  0.00    -0.005 A 
ATOM      3  C   UNL     1      -0.073  -0.668  -1.205  0.00  0.00    +0.031 A 
ATOM      4  C   UNL     1      -0.035  -2.056  -1.222  0.00  0.00    +0.046 A 
ATOM      5  C   UNL     1       0.076  -2.764  -0.039  0.00  0.00    +0.086 A 
ATOM      6  C   UNL     1       0.149  -2.088   1.168  0.00  0.00    +0.160 A 
ATOM      7  C   UNL     1       0.114  -0.695   1.188  0.00  0.00    +0.084 A 
ATOM      8  N   UNL     1       0.183  -0.023   2.416  0.00  0.00    -0.271 N 
ATOM      9  C   UNL     1       1.148  -0.359   3.301  0.00  0.00    +0.223 C 
ATOM     10  O   UNL     1       1.182   0.166   4.394  0.00  0.00    -0.275 OA
ATOM     11  C   UNL     1       2.179  -1.391   2.925  0.00  0.00    +0.137 C 
ATOM     12  C   UNL     1       1.560  -2.787   2.954  0.00  0.00    +0.238 C 
ATOM     13  O   UNL     1       0.265  -2.776   2.337  0.00  0.00    -0.488 OA
ATOM     14  C   UNL     1      -0.780   1.033   2.737  0.00  0.00    +0.138 C 
ATOM     15 CL   UNL     1       0.123  -4.499  -0.066  0.00  0.00    -0.080 Cl
ENDROOT
BRANCH   3  16
ATOM     16  N   UNL     1      -0.184   0.044  -2.404  0.00  0.00    -0.358 N 
ATOM     17  H   UNL     1      -0.122   1.012  -2.401  0.00  0.00    +0.142 HD
ATOM     18  H   UNL     1      -0.322  -0.430  -3.239  0.00  0.00    +0.142 HD
ENDBRANCH   3  16
TORSDOF 1
