REMARK  Name = ZINC58179374
REMARK  7 active torsions:
REMARK  status: ('A' for Active; 'I' for Inactive)
REMARK    1  A    between atoms: C_1  and  C_2
REMARK    2  A    between atoms: C_7  and  N_8
REMARK    3  A    between atoms: C_9  and  C_11
REMARK    4  A    between atoms: C_18  and  C_20
REMARK    5  A    between atoms: C_21  and  C_27
REMARK    6  A    between atoms: C_22  and  C_26
REMARK    7  A    between atoms: C_24  and  C_25
REMARK                            x       y       z     vdW  Elec       q    Type
REMARK                         _______ _______ _______ _____ _____    ______ ____
ROOT
ATOM      1  C   UNL     1       0.049   0.033   4.882  0.00  0.00    +0.093 C 
ATOM      2  C   UNL     1       0.072  -0.970   6.037  0.00  0.00    +0.016 C 
ATOM      3  C   UNL     1       0.108  -0.216   7.369  0.00  0.00    +0.020 C 
ATOM      4  C   UNL     1      -1.154   0.642   7.499  0.00  0.00    +0.108 C 
ATOM      5  N   UNL     1      -1.260   1.509   6.317  0.00  0.00    -0.297 N 
ATOM      6  C   UNL     1      -1.213   0.895   4.984  0.00  0.00    +0.120 C 
ATOM      7  C   UNL     1      -1.397   2.843   6.454  0.00  0.00    +0.250 C 
ATOM      8  O   UNL     1      -1.484   3.550   5.468  0.00  0.00    -0.270 OA
ENDROOT
BRANCH   7   9
ATOM      9  C   UNL     1      -1.443   3.445   7.799  0.00  0.00    +0.081 A 
ATOM     10  C   UNL     1      -0.306   3.935   8.592  0.00  0.00    +0.003 A 
ATOM     11  C   UNL     1      -0.828   4.394   9.740  0.00  0.00    +0.106 A 
ATOM     12  O   UNL     1      -2.159   4.229   9.715  0.00  0.00    -0.464 OA
ATOM     13  C   UNL     1      -2.549   3.669   8.565  0.00  0.00    +0.115 A 
ATOM     14  C   UNL     1      -3.969   3.340   8.181  0.00  0.00    +0.087 C 
ATOM     15  C   UNL     1      -0.044   4.998  10.876  0.00  0.00    +0.086 C 
ATOM     16  C   UNL     1       1.148   3.924   8.197  0.00  0.00    +0.048 C 
ENDBRANCH   7   9
BRANCH   1  18
ATOM     17  N   UNL     1       0.026  -0.027   2.409  0.00  0.00    -0.270 N 
ATOM     18  C   UNL     1       0.046  -0.710   3.571  0.00  0.00    +0.223 C 
ATOM     19  O   UNL     1       0.062  -1.923   3.561  0.00  0.00    -0.275 OA
ATOM     20  H   UNL     1       0.013   0.943   2.417  0.00  0.00    +0.156 HD
BRANCH  17  27
ATOM     21  C   UNL     1      -0.018   1.503   0.010  0.00  0.00    +0.047 C 
ATOM     22  C   UNL     1       0.002  -0.004   0.002  0.00  0.00    -0.010 A 
ATOM     23  C   UNL     1       0.006  -0.699  -1.195  0.00  0.00    +0.008 A 
ATOM     24  C   UNL     1       0.025  -2.086  -1.155  0.00  0.00    +0.020 A 
ATOM     25  C   UNL     1       0.039  -2.727   0.068  0.00  0.00    +0.113 A 
ATOM     26  N   UNL     1       0.035  -2.038   1.193  0.00  0.00    -0.240 NA
ATOM     27  C   UNL     1       0.023  -0.715   1.196  0.00  0.00    +0.128 A 
ENDBRANCH  17  27
ENDBRANCH   1  18
TORSDOF 3
