REMARK  Name = ZINC39674677
REMARK  11 active torsions:
REMARK  status: ('A' for Active; 'I' for Inactive)
REMARK    1  A    between atoms: C_1  and  C_2
REMARK    2  A    between atoms: C_4  and  C_14
REMARK    3  A    between atoms: C_7  and  C_12
REMARK    4  A    between atoms: C_14  and  C_15
REMARK    5  A    between atoms: C_15  and  N_16
REMARK    6  A    between atoms: C_17  and  C_19
REMARK    7  A    between atoms: C_30  and  C_32
REMARK    8  A    between atoms: C_35  and  O_40
REMARK    9  A    between atoms: C_37  and  O_38
REMARK   10  A    between atoms: O_38  and  C_39
REMARK   11  A    between atoms: O_40  and  C_41
REMARK                            x       y       z     vdW  Elec       q    Type
REMARK                         _______ _______ _______ _____ _____    ______ ____
ROOT
ATOM      1  C   UNL     1       1.369  -1.009  -7.400  0.00  0.00    +0.100 C 
ATOM      2  C   UNL     1       0.057  -1.747  -7.745  0.00  0.00    +0.121 C 
ATOM      3  N   UNL     1       0.251  -2.227  -9.134  0.00  0.00    -0.296 N 
ATOM      4  C   UNL     1       1.666  -2.667  -9.178  0.00  0.00    +0.115 C 
ATOM      5  C   UNL     1       2.423  -1.616  -8.342  0.00  0.00    -0.004 C 
ATOM      6  C   UNL     1       3.531  -2.284  -7.534  0.00  0.00    -0.010 C 
ATOM      7  C   UNL     1       4.596  -2.829  -8.490  0.00  0.00    -0.082 C 
ATOM      8  N   UNL     1       5.144  -1.729  -9.293  0.00  0.00    +0.379 N 
ATOM      9  C   UNL     1       4.090  -1.153 -10.137  0.00  0.00    -0.082 C 
ATOM     10  C   UNL     1       3.004  -0.537  -9.251  0.00  0.00    -0.010 C 
ATOM     11  C   UNL     1      -0.654  -2.256 -10.132  0.00  0.00    +0.250 C 
ATOM     12  O   UNL     1      -1.756  -1.766  -9.969  0.00  0.00    -0.270 OA
ATOM     13  H   UNL     1       5.510  -1.016  -8.680  0.00  0.00    -0.086 HD
ATOM     14  H   UNL     1       5.888  -2.080  -9.878  0.00  0.00    -0.086 HD
ENDROOT
BRANCH  11  15
ATOM     15  C   UNL     1      -0.310  -2.881 -11.421  0.00  0.00    +0.079 A 
ATOM     16  C   UNL     1       0.519  -4.007 -11.456  0.00  0.00    +0.020 A 
ATOM     17  C   UNL     1       0.838  -4.588 -12.661  0.00  0.00    +0.046 A 
ATOM     18  C   UNL     1       0.338  -4.060 -13.848  0.00  0.00    +0.124 A 
ATOM     19  C   UNL     1      -0.485  -2.944 -13.825  0.00  0.00    +0.092 A 
ATOM     20  C   UNL     1      -0.818  -2.354 -12.617  0.00  0.00    +0.136 A 
BRANCH  20  21
ATOM     21  O   UNL     1      -1.627  -1.265 -12.592  0.00  0.00    -0.494 OA
ATOM     22  C   UNL     1      -2.106  -0.784 -13.850  0.00  0.00    +0.277 C 
ENDBRANCH  20  21
BRANCH  18  23
ATOM     23  O   UNL     1       0.658  -4.639 -15.033  0.00  0.00    -0.495 OA
ATOM     24  C   UNL     1       1.510  -5.785 -14.985  0.00  0.00    +0.277 C 
ENDBRANCH  18  23
ENDBRANCH  11  15
BRANCH   1  26
ATOM     25  N   UNL     1       2.588  -0.410  -5.333  0.00  0.00    -0.315 N 
ATOM     26  C   UNL     1       1.747  -1.254  -5.962  0.00  0.00    +0.218 C 
ATOM     27  O   UNL     1       1.294  -2.212  -5.371  0.00  0.00    -0.275 OA
ATOM     28  H   UNL     1       2.951   0.355  -5.806  0.00  0.00    +0.149 HD
BRANCH  25  29
ATOM     29  C   UNL     1       2.955  -0.649  -3.935  0.00  0.00    +0.108 C 
BRANCH  29  30
ATOM     30  C   UNL     1       3.914   0.447  -3.465  0.00  0.00    +0.052 C 
BRANCH  30  33
ATOM     31  C   UNL     1       6.616   1.074  -1.789  0.00  0.00    +0.035 C 
ATOM     32  C   UNL     1       5.216   1.041  -1.174  0.00  0.00    +0.103 C 
ATOM     33  C   UNL     1       4.292   0.202  -2.027  0.00  0.00    -0.037 C 
ATOM     34  C   UNL     1       3.872  -0.818  -1.236  0.00  0.00    +0.000 A 
ATOM     35  C   UNL     1       3.001  -1.911  -1.482  0.00  0.00    +0.028 A 
ATOM     36  C   UNL     1       2.736  -2.822  -0.485  0.00  0.00    +0.052 A 
ATOM     37  C   UNL     1       3.338  -2.692   0.838  0.00  0.00    +0.021 A 
ATOM     38  C   UNL     1       4.173  -1.674   1.129  0.00  0.00    +0.027 A 
ATOM     39  C   UNL     1       4.488  -0.674   0.102  0.00  0.00    +0.043 A 
ATOM     40  N   UNL     1       5.256   0.389   0.139  0.00  0.00    -0.378 N 
ATOM     41  H   UNL     1       5.766   0.693   0.906  0.00  0.00    +0.160 HD
BRANCH  36  42
ATOM     42  C   UNL     1       1.855  -3.918  -0.751  0.00  0.00    +0.099 C 
ATOM     43  N   UNL     1       1.155  -4.788  -0.962  0.00  0.00    -0.191 NA
ENDBRANCH  36  42
ENDBRANCH  30  33
ENDBRANCH  29  30
ENDBRANCH  25  29
ENDBRANCH   1  26
TORSDOF 8
