REMARK  Name = ZINC13782008
REMARK  12 active torsions:
REMARK  status: ('A' for Active; 'I' for Inactive)
REMARK    1  A    between atoms: C_1  and  S_2
REMARK    2  A    between atoms: S_2  and  N_13
REMARK    3  A    between atoms: N_3  and  C_4
REMARK    4  A    between atoms: C_4  and  C_5
REMARK    5  A    between atoms: C_5  and  C_6
REMARK    6  A    between atoms: C_6  and  C_7
REMARK    7  A    between atoms: N_13  and  C_14
REMARK    8  A    between atoms: C_14  and  C_15
REMARK    9  A    between atoms: C_15  and  C_16
REMARK   10  A    between atoms: C_16  and  N_17
REMARK   11  A    between atoms: N_17  and  C_18
REMARK   12  A    between atoms: C_18  and  C_19
REMARK                            x       y       z     vdW  Elec       q    Type
REMARK                         _______ _______ _______ _____ _____    ______ ____
ROOT
ATOM      1  C   UNL     1      -3.856  -1.016  -0.289  0.00  0.00    +0.035 C 
ENDROOT
BRANCH   1   2
ATOM      2  C   UNL     1      -2.607  -0.221  -0.676  0.00  0.00    +0.096 C 
BRANCH   2   3
ATOM      3  N   UNL     1      -1.564  -0.428   0.332  0.00  0.00    -0.255 NA
ATOM      4  H   UNL     1      -1.792  -0.813   1.193  0.00  0.00    +0.136 HD
BRANCH   3   6
ATOM      5  C   UNL     1      -0.022   1.810   0.012  0.00  0.00    +0.115 C 
ATOM      6  S   UNL     1       0.002  -0.004   0.002  0.00  0.00    -0.035 S 
ATOM      7  N   UNL     1       0.743  -0.362   1.248  0.00  0.00    -0.249 NA
BRANCH   7   8
ATOM      8  C   UNL     1       0.755  -1.749   1.721  0.00  0.00    +0.151 C 
BRANCH   8   9
ATOM      9  C   UNL     1       2.196  -2.259   1.771  0.00  0.00    +0.030 C 
BRANCH   9  10
ATOM     10  C   UNL     1       2.208  -3.707   2.264  0.00  0.00    +0.056 C 
BRANCH  10  11
ATOM     11  C   UNL     1       3.628  -4.209   2.314  0.00  0.00    +0.033 A 
ATOM     12  C   UNL     1       4.318  -4.733   1.283  0.00  0.00    +0.105 A 
ATOM     13  N   UNL     1       5.560  -5.056   1.761  0.00  0.00    -0.352 N 
ATOM     14  H   UNL     1       6.286  -5.454   1.255  0.00  0.00    +0.166 HD
ATOM     15  C   UNL     1       5.585  -4.718   3.068  0.00  0.00    +0.171 A 
ATOM     16  N   UNL     1       4.428  -4.208   3.390  0.00  0.00    -0.350 N 
ATOM     17  H   UNL     1       4.184  -3.880   4.270  0.00  0.00    +0.166 HD
ENDBRANCH  10  11
ENDBRANCH   9  10
ENDBRANCH   8   9
ENDBRANCH   7   8
ENDBRANCH   3   6
ENDBRANCH   2   3
ENDBRANCH   1   2
BRANCH   1  18
ATOM     18  C   UNL     1      -4.945  -0.799  -1.342  0.00  0.00    +0.108 C 
BRANCH  18  19
ATOM     19  N   UNL     1      -6.140  -1.561  -0.971  0.00  0.00    -0.312 N 
ATOM     20  C   UNL     1      -6.297  -2.869  -1.415  0.00  0.00    +0.099 A 
ATOM     21  C   UNL     1      -5.311  -3.451  -2.206  0.00  0.00    +0.042 A 
ATOM     22  C   UNL     1      -5.480  -4.753  -2.640  0.00  0.00    +0.005 A 
ATOM     23  C   UNL     1      -6.632  -5.432  -2.268  0.00  0.00    +0.018 A 
ATOM     24  C   UNL     1      -7.569  -4.793  -1.481  0.00  0.00    +0.084 A 
ATOM     25  N   UNL     1      -7.379  -3.551  -1.076  0.00  0.00    -0.350 N 
ATOM     26  H   UNL     1      -8.052  -3.127  -0.521  0.00  0.00    +0.166 HD
BRANCH  19  27
ATOM     27  C   UNL     1      -7.171  -0.943  -0.133  0.00  0.00    +0.141 C 
BRANCH  27  28
ATOM     28  C   UNL     1      -8.187  -0.258  -1.009  0.00  0.00    -0.030 A 
ATOM     29  C   UNL     1      -8.008   1.065  -1.370  0.00  0.00    +0.006 A 
ATOM     30  C   UNL     1      -8.940   1.694  -2.174  0.00  0.00    +0.015 A 
ATOM     31  C   UNL     1     -10.051   1.000  -2.618  0.00  0.00    +0.018 A 
ATOM     32  C   UNL     1     -10.230  -0.323  -2.257  0.00  0.00    +0.015 A 
ATOM     33  C   UNL     1      -9.295  -0.953  -1.457  0.00  0.00    +0.006 A 
ATOM     34 BR   UNL     1     -11.326   1.861  -3.718  0.00  0.00    -0.050 Br
ENDBRANCH  27  28
ENDBRANCH  19  27
ENDBRANCH  18  19
ENDBRANCH   1  18
TORSDOF 11
