REMARK  Name = ZINC06443590
REMARK  9 active torsions:
REMARK  status: ('A' for Active; 'I' for Inactive)
REMARK    1  A    between atoms: C_1  and  C_2
REMARK    2  A    between atoms: C_12  and  C_14
REMARK    3  A    between atoms: C_14  and  C_16
REMARK    4  A    between atoms: C_14  and  N_65
REMARK    5  A    between atoms: N_20  and  C_21
REMARK    6  A    between atoms: C_21  and  C_22
REMARK    7  A    between atoms: C_21  and  C_23
REMARK    8  A    between atoms: C_21  and  C_24
REMARK    9  A    between atoms: N_27  and  C_30
REMARK                            x       y       z     vdW  Elec       q    Type
REMARK                         _______ _______ _______ _____ _____    ______ ____
ROOT
ATOM      1  C   UNL     1       0.107  -2.860   5.057  0.00  0.00    +0.039 C 
ENDROOT
BRANCH   1  13
ATOM      2  C   UNL     1      -1.570   0.418  -0.388  0.00  0.00    +0.046 C 
ATOM      3  C   UNL     1      -0.324   0.466   0.459  0.00  0.00    -0.026 A 
ATOM      4  C   UNL     1       0.712   1.309   0.118  0.00  0.00    +0.005 A 
ATOM      5  C   UNL     1       1.863   1.366   0.893  0.00  0.00    +0.001 A 
ATOM      6  C   UNL     1       1.994   0.579   2.002  0.00  0.00    +0.010 A 
ATOM      7  C   UNL     1       0.958  -0.287   2.364  0.00  0.00    -0.001 A 
ATOM      8  C   UNL     1      -0.213  -0.344   1.584  0.00  0.00    +0.052 A 
ATOM      9  N   UNL     1      -1.232  -1.200   1.945  0.00  0.00    -0.322 N 
ATOM     10  H   UNL     1      -2.037  -1.238   1.406  0.00  0.00    +0.169 HD
ATOM     11  C   UNL     1      -1.124  -1.984   3.032  0.00  0.00    +0.251 A 
ATOM     12  O   UNL     1      -2.044  -2.729   3.321  0.00  0.00    -0.268 OA
ATOM     13  C   UNL     1       0.028  -1.965   3.847  0.00  0.00    +0.011 A 
ATOM     14  C   UNL     1       1.065  -1.144   3.546  0.00  0.00    +0.017 A 
ENDBRANCH   1  13
BRANCH   1  20
ATOM     15  C   UNL     1      -0.971  -1.103   6.328  0.00  0.00    -0.058 C 
ATOM     16  C   UNL     1      -2.168  -0.786   7.227  0.00  0.00    +0.086 C 
ATOM     17  N   UNL     1      -2.105  -1.619   8.435  0.00  0.00    -0.333 N 
ATOM     18  C   UNL     1      -2.121  -3.047   8.088  0.00  0.00    +0.086 C 
ATOM     19  C   UNL     1      -0.923  -3.365   7.190  0.00  0.00    -0.058 C 
ATOM     20  N   UNL     1      -1.011  -2.536   5.969  0.00  0.00    +0.391 N 
ATOM     21  H   UNL     1      -1.899  -2.736   5.493  0.00  0.00    -0.080 HD
BRANCH  17  22
ATOM     22  C   UNL     1      -3.146  -1.306   9.315  0.00  0.00    +0.030 A 
ATOM     23  C   UNL     1      -4.024  -2.297   9.734  0.00  0.00    +0.026 A 
ATOM     24  C   UNL     1      -5.049  -1.986  10.607  0.00  0.00    +0.040 A 
ATOM     25  C   UNL     1      -5.207  -0.686  11.056  0.00  0.00    +0.124 A 
ATOM     26  C   UNL     1      -4.335   0.305  10.635  0.00  0.00    +0.040 A 
ATOM     27  C   UNL     1      -3.306  -0.003   9.767  0.00  0.00    +0.026 A 
ATOM     28  F   UNL     1      -6.212  -0.383  11.906  0.00  0.00    -0.205 F 
ENDBRANCH  17  22
ENDBRANCH   1  20
BRANCH   1  29
ATOM     29  C   UNL     1       1.429  -2.654   5.749  0.00  0.00    +0.143 A 
ATOM     30  N   UNL     1       1.793  -1.605   6.445  0.00  0.00    -0.115 NA
ATOM     31  N   UNL     1       2.991  -1.808   6.875  0.00  0.00    -0.023 NA
ATOM     32  N   UNL     1       3.400  -2.960   6.471  0.00  0.00    -0.043 NA
ATOM     33  N   UNL     1       2.464  -3.515   5.778  0.00  0.00    -0.225 N 
BRANCH  33  34
ATOM     34  C   UNL     1       2.518  -4.832   5.140  0.00  0.00    +0.059 C 
ATOM     35  C   UNL     1       2.244  -4.685   3.642  0.00  0.00    +0.036 C 
ATOM     36  C   UNL     1       3.905  -5.443   5.347  0.00  0.00    +0.036 C 
ATOM     37  C   UNL     1       1.460  -5.745   5.764  0.00  0.00    +0.036 C 
ENDBRANCH  33  34
ENDBRANCH   1  29
TORSDOF 5
