REMARK  Name = ZINC39664624
REMARK  8 active torsions:
REMARK  status: ('A' for Active; 'I' for Inactive)
REMARK    1  A    between atoms: C_1  and  N_2
REMARK    2  A    between atoms: N_2  and  C_3
REMARK    3  A    between atoms: N_2  and  C_4
REMARK    4  A    between atoms: C_4  and  C_5
REMARK    5  A    between atoms: C_5  and  C_7
REMARK    6  A    between atoms: C_5  and  N_13
REMARK    7  A    between atoms: C_14  and  C_16
REMARK    8  A    between atoms: C_27  and  C_29
REMARK                            x       y       z     vdW  Elec       q    Type
REMARK                         _______ _______ _______ _____ _____    ______ ____
ROOT
ATOM      1  C   UNL     1      -3.661  -0.102   1.555  0.00  0.00    +0.100 C 
ATOM      2  C   UNL     1      -4.189  -1.486   1.116  0.00  0.00    +0.121 C 
ATOM      3  N   UNL     1      -5.496  -1.203   0.479  0.00  0.00    -0.296 N 
ATOM      4  C   UNL     1      -5.273   0.049  -0.282  0.00  0.00    +0.115 C 
ATOM      5  C   UNL     1      -4.375   0.903   0.635  0.00  0.00    -0.004 C 
ATOM      6  C   UNL     1      -5.225   1.864   1.461  0.00  0.00    -0.010 C 
ATOM      7  C   UNL     1      -5.879   2.888   0.530  0.00  0.00    -0.082 C 
ATOM      8  N   UNL     1      -4.839   3.625  -0.198  0.00  0.00    +0.379 N 
ATOM      9  C   UNL     1      -4.085   2.707  -1.061  0.00  0.00    -0.082 C 
ATOM     10  C   UNL     1      -3.355   1.675  -0.197  0.00  0.00    -0.010 C 
ATOM     11  C   UNL     1      -6.632  -1.923   0.571  0.00  0.00    +0.247 C 
ATOM     12  O   UNL     1      -6.688  -2.879   1.319  0.00  0.00    -0.270 OA
ATOM     13  H   UNL     1      -5.269   4.340  -0.765  0.00  0.00    -0.086 HD
ATOM     14  H   UNL     1      -4.210   4.057   0.462  0.00  0.00    -0.086 HD
ENDROOT
BRANCH  11  15
ATOM     15  C   UNL     1      -7.811  -1.549  -0.239  0.00  0.00    +0.042 A 
ATOM     16  C   UNL     1      -7.656  -0.762  -1.381  0.00  0.00    +0.051 A 
ATOM     17  C   UNL     1      -8.761  -0.416  -2.135  0.00  0.00    +0.127 A 
ATOM     18  C   UNL     1     -10.022  -0.848  -1.758  0.00  0.00    +0.076 A 
ATOM     19  C   UNL     1     -10.183  -1.629  -0.626  0.00  0.00    +0.127 A 
ATOM     20  C   UNL     1      -9.084  -1.986   0.132  0.00  0.00    +0.051 A 
ATOM     21  F   UNL     1     -11.415  -2.047  -0.264  0.00  0.00    -0.205 F 
ATOM     22  F   UNL     1      -8.612   0.346  -3.241  0.00  0.00    -0.205 F 
ENDBRANCH  11  15
BRANCH   1  24
ATOM     23  N   UNL     1      -1.427   0.780   2.149  0.00  0.00    -0.310 N 
ATOM     24  C   UNL     1      -2.168  -0.023   1.360  0.00  0.00    +0.219 C 
ATOM     25  O   UNL     1      -1.635  -0.682   0.494  0.00  0.00    -0.275 OA
ATOM     26  H   UNL     1      -1.840   1.241   2.896  0.00  0.00    +0.149 HD
BRANCH  23  27
ATOM     27  C   UNL     1       0.002   0.956   1.879  0.00  0.00    +0.087 C 
BRANCH  27  28
ATOM     28  C   UNL     1       0.293   2.417   1.652  0.00  0.00    -0.029 A 
ATOM     29  C   UNL     1      -0.324   3.375   2.435  0.00  0.00    +0.005 A 
ATOM     30  C   UNL     1      -0.056   4.715   2.226  0.00  0.00    +0.000 A 
ATOM     31  C   UNL     1       0.829   5.097   1.235  0.00  0.00    +0.000 A 
ATOM     32  C   UNL     1       1.446   4.139   0.453  0.00  0.00    +0.000 A 
ATOM     33  C   UNL     1       1.182   2.799   0.664  0.00  0.00    +0.005 A 
ENDBRANCH  27  28
BRANCH  27  34
ATOM     34  C   UNL     1       0.813   0.454   3.075  0.00  0.00    -0.052 C 
BRANCH  34  36
ATOM     35  C   UNL     1       0.932  -1.781   2.212  0.00  0.00    -0.097 C 
ATOM     36  N   UNL     1       0.479  -0.952   3.337  0.00  0.00    +0.377 N 
ATOM     37  C   UNL     1       1.147  -1.392   4.570  0.00  0.00    -0.097 C 
ATOM     38  H   UNL     1      -0.520  -1.047   3.444  0.00  0.00    -0.083 HD
ENDBRANCH  34  36
ENDBRANCH  27  34
ENDBRANCH  23  27
ENDBRANCH   1  24
TORSDOF 6
