REMARK  Name = ZINC13083128
REMARK  13 active torsions:
REMARK  status: ('A' for Active; 'I' for Inactive)
REMARK    1  A    between atoms: C_1  and  C_2
REMARK    2  A    between atoms: C_2  and  C_3
REMARK    3  A    between atoms: C_3  and  C_4
REMARK    4  A    between atoms: C_4  and  C_5
REMARK    5  A    between atoms: C_5  and  C_6
REMARK    6  A    between atoms: C_11  and  C_14
REMARK    7  A    between atoms: C_18  and  O_20
REMARK    8  A    between atoms: N_23  and  C_24
REMARK    9  A    between atoms: C_24  and  C_25
REMARK   10  A    between atoms: C_28  and  C_31
REMARK   11  A    between atoms: C_31  and  C_32
REMARK   12  A    between atoms: C_31  and  C_33
REMARK   13  A    between atoms: C_31  and  C_34
REMARK                            x       y       z     vdW  Elec       q    Type
REMARK                         _______ _______ _______ _____ _____    ______ ____
ROOT
ATOM      1  C   UNL     1       2.864   2.595  -3.253  0.00  0.00    +0.138 A 
ATOM      2  N   UNL     1       1.915   2.237  -2.416  0.00  0.00    -0.211 NA
ATOM      3  C   UNL     1       2.112   2.298  -1.102  0.00  0.00    +0.186 A 
ATOM      4  C   UNL     1       3.352   2.752  -0.616  0.00  0.00    +0.192 A 
ATOM      5  C   UNL     1       4.333   3.122  -1.554  0.00  0.00    +0.246 A 
ATOM      6  N   UNL     1       4.044   3.027  -2.844  0.00  0.00    -0.196 NA
ATOM      7  N   UNL     1       3.303   2.721   0.727  0.00  0.00    -0.122 NA
ATOM      8  N   UNL     1       2.151   2.300   1.119  0.00  0.00    -0.063 NA
ATOM      9  N   UNL     1       1.356   2.010  -0.000  0.00  0.00    -0.222 N 
ENDROOT
BRANCH   1  15
ATOM     10  C   UNL     1       4.065   3.086  -8.526  0.00  0.00    +0.216 C 
ATOM     11  O   UNL     1       4.049   4.203  -8.996  0.00  0.00    -0.276 OA
ATOM     12  N   UNL     1       3.294   2.792  -7.460  0.00  0.00    -0.301 N 
ATOM     13  C   UNL     1       2.430   3.815  -6.857  0.00  0.00    +0.108 C 
ATOM     14  C   UNL     1       2.737   3.900  -5.358  0.00  0.00    +0.030 C 
ATOM     15  C   UNL     1       2.596   2.510  -4.734  0.00  0.00    +0.060 C 
ATOM     16  C   UNL     1       3.601   1.554  -5.380  0.00  0.00    +0.030 C 
ATOM     17  C   UNL     1       3.304   1.443  -6.878  0.00  0.00    +0.108 C 
BRANCH  10  18
ATOM     18  C   UNL     1       4.947   2.025  -9.133  0.00  0.00    +0.096 C 
BRANCH  18  19
ATOM     19  C   UNL     1       5.710   2.615 -10.321  0.00  0.00    +0.009 C 
BRANCH  19  20
ATOM     20  C   UNL     1       6.605   1.538 -10.938  0.00  0.00    +0.000 C 
BRANCH  20  22
ATOM     21  C   UNL     1       8.263   1.052 -12.742  0.00  0.00    +0.004 C 
ATOM     22  C   UNL     1       7.368   2.128 -12.125  0.00  0.00    -0.003 C 
ENDBRANCH  20  22
ENDBRANCH  19  20
ENDBRANCH  18  19
ENDBRANCH  10  18
ENDBRANCH   1  15
BRANCH   5  23
ATOM     23  O   UNL     1       5.546   3.565  -1.147  0.00  0.00    -0.491 OA
ATOM     24  H   UNL     1       6.204   2.865  -1.037  0.00  0.00    +0.294 HD
ENDBRANCH   5  23
BRANCH   9  25
ATOM     25  C   UNL     1      -0.018   1.503   0.010  0.00  0.00    +0.182 C 
BRANCH  25  26
ATOM     26  C   UNL     1       0.002  -0.004   0.002  0.00  0.00    -0.026 A 
ATOM     27  C   UNL     1      -0.006  -0.689  -1.199  0.00  0.00    +0.006 A 
ATOM     28  C   UNL     1       0.018  -2.071  -1.206  0.00  0.00    +0.004 A 
ATOM     29  C   UNL     1       0.039  -2.768  -0.013  0.00  0.00    -0.042 A 
ATOM     30  C   UNL     1       0.042  -2.084   1.188  0.00  0.00    +0.004 A 
ATOM     31  C   UNL     1       0.023  -0.702   1.195  0.00  0.00    +0.006 A 
BRANCH  29  32
ATOM     32  C   UNL     1       0.061  -4.275  -0.021  0.00  0.00    -0.013 C 
ATOM     33  C   UNL     1      -1.174  -4.807   0.710  0.00  0.00    +0.015 C 
ATOM     34  C   UNL     1       0.053  -4.777  -1.467  0.00  0.00    +0.015 C 
ATOM     35  C   UNL     1       1.324  -4.771   0.684  0.00  0.00    +0.015 C 
ENDBRANCH  29  32
ENDBRANCH  25  26
ENDBRANCH   9  25
TORSDOF 9
