REMARK  Name = ZINC34759933
REMARK  14 active torsions:
REMARK  status: ('A' for Active; 'I' for Inactive)
REMARK    1  A    between atoms: C_1  and  C_2
REMARK    2  A    between atoms: C_6  and  C_7
REMARK    3  A    between atoms: C_7  and  N_8
REMARK    4  A    between atoms: N_8  and  C_9
REMARK    5  A    between atoms: C_9  and  C_10
REMARK    6  A    between atoms: C_19  and  C_21
REMARK    7  A    between atoms: C_21  and  N_22
REMARK    8  A    between atoms: N_22  and  C_23
REMARK    9  A    between atoms: C_23  and  C_24
REMARK   10  A    between atoms: C_24  and  N_25
REMARK   11  A    between atoms: N_32  and  C_33
REMARK   12  A    between atoms: C_33  and  C_34
REMARK   13  A    between atoms: C_33  and  C_35
REMARK   14  A    between atoms: C_33  and  C_36
REMARK                            x       y       z     vdW  Elec       q    Type
REMARK                         _______ _______ _______ _____ _____    ______ ____
ROOT
ATOM      1  N   UNL     1      -1.597  -0.230   2.998  0.00  0.00    -0.291 N 
ATOM      2  C   UNL     1      -2.423   0.791   2.695  0.00  0.00    +0.234 C 
ATOM      3  O   UNL     1      -3.604   0.716   2.962  0.00  0.00    -0.274 OA
ENDROOT
BRANCH   1   4
ATOM      4  C   UNL     1      -0.196  -0.189   2.574  0.00  0.00    +0.150 C 
BRANCH   4  10
ATOM      5  C   UNL     1       0.062  -3.129   1.720  0.00  0.00    +0.044 C 
ATOM      6  C   UNL     1       0.033  -1.990   0.733  0.00  0.00    -0.039 A 
ATOM      7  C   UNL     1       0.116  -2.235  -0.625  0.00  0.00    +0.011 A 
ATOM      8  C   UNL     1       0.086  -1.188  -1.485  0.00  0.00    +0.046 A 
ATOM      9  S   UNL     1      -0.064   0.200  -0.372  0.00  0.00    -0.100 S 
ATOM     10  C   UNL     1      -0.083  -0.710   1.164  0.00  0.00    +0.010 A 
ENDBRANCH   4  10
ENDBRANCH   1   4
BRANCH   1  11
ATOM     11  C   UNL     1      -2.101  -1.380   3.753  0.00  0.00    +0.143 C 
BRANCH  11  12
ATOM     12  C   UNL     1      -1.924  -1.129   5.228  0.00  0.00    -0.026 A 
ATOM     13  C   UNL     1      -0.755  -1.514   5.858  0.00  0.00    +0.009 A 
ATOM     14  C   UNL     1      -0.588  -1.286   7.211  0.00  0.00    +0.050 A 
ATOM     15  C   UNL     1      -1.592  -0.671   7.940  0.00  0.00    +0.166 A 
ATOM     16  C   UNL     1      -2.770  -0.283   7.306  0.00  0.00    +0.167 A 
ATOM     17  C   UNL     1      -2.929  -0.510   5.948  0.00  0.00    +0.054 A 
ATOM     18  O   UNL     1      -3.593   0.294   8.229  0.00  0.00    -0.453 OA
ATOM     19  C   UNL     1      -3.078  -0.112   9.511  0.00  0.00    +0.466 C 
ATOM     20  O   UNL     1      -1.677  -0.337   9.261  0.00  0.00    -0.453 OA
ENDBRANCH  11  12
ENDBRANCH   1  11
BRANCH   2  21
ATOM     21  C   UNL     1      -1.880   2.026   2.023  0.00  0.00    +0.205 C 
BRANCH  21  22
ATOM     22  N   UNL     1      -2.942   3.028   1.910  0.00  0.00    -0.279 N 
ATOM     23  C   UNL     1      -3.730   3.055   0.818  0.00  0.00    +0.303 C 
ATOM     24  O   UNL     1      -4.612   3.887   0.724  0.00  0.00    -0.253 OA
ATOM     25  N   UNL     1      -3.542   2.159  -0.172  0.00  0.00    -0.294 N 
ATOM     26  H   UNL     1      -2.838   1.496  -0.097  0.00  0.00    +0.151 HD
BRANCH  25  27
ATOM     27  C   UNL     1      -4.399   2.188  -1.359  0.00  0.00    +0.028 C 
ATOM     28  C   UNL     1      -4.259   3.543  -2.056  0.00  0.00    +0.031 C 
ATOM     29  C   UNL     1      -3.977   1.075  -2.320  0.00  0.00    +0.031 C 
ATOM     30  C   UNL     1      -5.856   1.977  -0.942  0.00  0.00    +0.031 C 
ENDBRANCH  25  27
BRANCH  22  31
ATOM     31  C   UNL     1      -3.147   4.002   2.986  0.00  0.00    +0.091 C 
BRANCH  31  32
ATOM     32  C   UNL     1      -2.297   5.245   2.717  0.00  0.00    -0.060 C 
BRANCH  32  33
ATOM     33  N   UNL     1      -2.502   6.221   3.795  0.00  0.00    +0.381 N 
ATOM     34  C   UNL     1      -1.917   5.715   5.063  0.00  0.00    -0.079 C 
ATOM     35  C   UNL     1      -1.703   7.005   5.894  0.00  0.00    -0.020 C 
ATOM     36  C   UNL     1      -1.261   8.034   4.829  0.00  0.00    -0.020 C 
ATOM     37  C   UNL     1      -1.782   7.477   3.491  0.00  0.00    -0.079 C 
ATOM     38  H   UNL     1      -3.487   6.406   3.915  0.00  0.00    -0.082 HD
ENDBRANCH  32  33
ENDBRANCH  31  32
ENDBRANCH  22  31
ENDBRANCH  21  22
ENDBRANCH   2  21
TORSDOF 10
