REMARK  Name = ZINC20057151
REMARK  8 active torsions:
REMARK  status: ('A' for Active; 'I' for Inactive)
REMARK    1  A    between atoms: C_2  and  C_3
REMARK    2  A    between atoms: C_3  and  N_4
REMARK    3  A    between atoms: N_4  and  C_5
REMARK    4  A    between atoms: C_5  and  N_7
REMARK    5  A    between atoms: N_10  and  C_13
REMARK    6  A    between atoms: C_25  and  N_27
REMARK    7  A    between atoms: N_27  and  S_28
REMARK    8  A    between atoms: S_28  and  C_31
REMARK                            x       y       z     vdW  Elec       q    Type
REMARK                         _______ _______ _______ _____ _____    ______ ____
ROOT
ATOM      1  C   UNL     1      -0.353   5.369   0.044  0.00  0.00    +0.110 C 
ATOM      2  C   UNL     1      -0.126   3.878   0.096  0.00  0.00    -0.020 A 
ATOM      3  C   UNL     1       0.975   3.079   0.149  0.00  0.00    +0.006 A 
ATOM      4  C   UNL     1       0.838   1.690   0.189  0.00  0.00    +0.001 A 
ATOM      5  C   UNL     1      -0.381   1.076   0.176  0.00  0.00    +0.008 A 
ATOM      6  C   UNL     1      -1.538   1.870   0.116  0.00  0.00    -0.017 A 
ATOM      7  C   UNL     1      -1.375   3.267   0.082  0.00  0.00    -0.008 A 
ATOM      8  C   UNL     1      -2.451   4.147   0.026  0.00  0.00    -0.019 A 
ATOM      9  C   UNL     1      -3.706   3.622   0.009  0.00  0.00    +0.006 A 
ATOM     10  C   UNL     1      -3.893   2.238   0.048  0.00  0.00    +0.001 A 
ATOM     11  C   UNL     1      -2.847   1.362   0.103  0.00  0.00    +0.008 A 
ATOM     12  C   UNL     1      -1.886   5.547  -0.002  0.00  0.00    +0.128 C 
ENDROOT
BRANCH   1  16
ATOM     13  N   UNL     1       1.637   6.344   3.608  0.00  0.00    -0.310 N 
ATOM     14  C   UNL     1       0.185   6.129   3.692  0.00  0.00    +0.122 C 
ATOM     15  C   UNL     1      -0.260   5.328   2.463  0.00  0.00    +0.104 C 
ATOM     16  N   UNL     1       0.198   6.010   1.246  0.00  0.00    -0.291 NA
ATOM     17  C   UNL     1       1.665   6.067   1.186  0.00  0.00    +0.104 C 
ATOM     18  C   UNL     1       2.188   6.899   2.362  0.00  0.00    +0.122 C 
BRANCH  13  19
ATOM     19  C   UNL     1       2.443   6.041   4.646  0.00  0.00    +0.133 C 
ATOM     20  S   UNL     1       4.109   6.427   4.577  0.00  0.00    -0.019 S 
BRANCH  19  21
ATOM     21  N   UNL     1       1.936   5.435   5.737  0.00  0.00    -0.323 N 
ATOM     22  H   UNL     1       0.885   5.110   5.748  0.00  0.00    +0.148 HD
BRANCH  21  23
ATOM     23  C   UNL     1       2.784   5.208   6.910  0.00  0.00    +0.130 C 
BRANCH  23  25
ATOM     24  C   UNL     1       2.409   3.392   8.497  0.00  0.00    +0.005 C 
ATOM     25  C   UNL     1       1.983   4.519   7.984  0.00  0.00    -0.016 C 
ENDBRANCH  23  25
ENDBRANCH  21  23
ENDBRANCH  19  21
ENDBRANCH  13  19
ENDBRANCH   1  16
BRANCH  12  26
ATOM     26  N   UNL     1      -2.284   6.230  -1.236  0.00  0.00    -0.181 NA
ATOM     27  H   UNL     1      -1.621   6.210  -2.113  0.00  0.00    +0.149 HD
BRANCH  26  28
ATOM     28  S   UNL     1      -3.601   7.233  -1.239  0.00  0.00    +0.059 S 
ATOM     29  O   UNL     1      -3.709   7.757  -2.556  0.00  0.00    -0.153 OA
ATOM     30  O   UNL     1      -4.658   6.518  -0.615  0.00  0.00    -0.153 OA
BRANCH  28  31
ATOM     31  C   UNL     1      -3.222   8.594  -0.186  0.00  0.00    +0.105 A 
ATOM     32  C   UNL     1      -3.535   8.535   1.159  0.00  0.00    +0.030 A 
ATOM     33  C   UNL     1      -3.233   9.600   1.987  0.00  0.00    +0.022 A 
ATOM     34  C   UNL     1      -2.628  10.730   1.467  0.00  0.00    +0.041 A 
ATOM     35  C   UNL     1      -2.320  10.791   0.119  0.00  0.00    +0.022 A 
ATOM     36  C   UNL     1      -2.618   9.723  -0.706  0.00  0.00    +0.030 A 
ATOM     37 CL   UNL     1      -2.255  12.071   2.504  0.00  0.00    -0.084 Cl
ENDBRANCH  28  31
ENDBRANCH  26  28
ENDBRANCH  12  26
TORSDOF 8
