REMARK  Name = ZINC01117116
REMARK  8 active torsions:
REMARK  status: ('A' for Active; 'I' for Inactive)
REMARK    1  A    between atoms: C_1  and  C_2
REMARK    2  A    between atoms: C_3  and  C_27
REMARK    3  A    between atoms: C_6  and  N_7
REMARK    4  A    between atoms: N_7  and  S_8
REMARK    5  A    between atoms: S_8  and  C_11
REMARK    6  A    between atoms: C_14  and  N_17
REMARK    7  A    between atoms: C_18  and  C_20
REMARK    8  A    between atoms: C_21  and  C_22
REMARK                            x       y       z     vdW  Elec       q    Type
REMARK                         _______ _______ _______ _____ _____    ______ ____
ROOT
ATOM      1  C   UNL     1      -7.983  -3.254  -0.218  0.00  0.00    +0.109 A 
ATOM      2  C   UNL     1      -8.198  -1.888  -0.215  0.00  0.00    +0.030 A 
ATOM      3  C   UNL     1      -7.128  -1.019  -0.129  0.00  0.00    +0.025 A 
ATOM      4  C   UNL     1      -5.835  -1.518  -0.044  0.00  0.00    +0.034 A 
ATOM      5  C   UNL     1      -5.622  -2.891  -0.052  0.00  0.00    +0.025 A 
ATOM      6  C   UNL     1      -6.697  -3.754  -0.133  0.00  0.00    +0.030 A 
ENDROOT
BRANCH   4   7
ATOM      7  N   UNL     1      -4.749  -0.642   0.043  0.00  0.00    -0.282 N 
ATOM      8  C   UNL     1      -3.659  -0.987   0.757  0.00  0.00    +0.241 C 
ATOM      9  O   UNL     1      -3.657  -2.019   1.404  0.00  0.00    -0.270 OA
ATOM     10  H   UNL     1      -4.780   0.216  -0.410  0.00  0.00    +0.155 HD
BRANCH   8  11
ATOM     11  C   UNL     1      -2.518  -0.151   0.755  0.00  0.00    +0.071 C 
ATOM     12  C   UNL     1      -1.421  -0.499   1.473  0.00  0.00    +0.051 C 
BRANCH  12  13
ATOM     13  C   UNL     1      -0.279   0.337   1.470  0.00  0.00    +0.128 A 
ATOM     14  C   UNL     1       0.899   0.107   2.152  0.00  0.00    +0.049 A 
ATOM     15  C   UNL     1       1.746   1.188   1.861  0.00  0.00    +0.042 A 
ATOM     16  C   UNL     1       1.069   2.015   1.034  0.00  0.00    +0.195 A 
ATOM     17  O   UNL     1      -0.147   1.502   0.801  0.00  0.00    -0.464 OA
ENDBRANCH  12  13
ENDBRANCH   8  11
ENDBRANCH   4   7
BRANCH   1  18
ATOM     18  S   UNL     1      -9.351  -4.359  -0.329  0.00  0.00    +0.075 S 
ATOM     19  O   UNL     1      -8.925  -5.590   0.238  0.00  0.00    -0.150 OA
ATOM     20  O   UNL     1     -10.485  -3.651   0.153  0.00  0.00    -0.150 OA
BRANCH  18  21
ATOM     21  N   UNL     1      -9.620  -4.645  -1.937  0.00  0.00    -0.183 N 
ATOM     22  H   UNL     1     -10.446  -4.351  -2.351  0.00  0.00    +0.177 HD
BRANCH  21  28
ATOM     23  C   UNL     1      -9.869  -5.329  -4.978  0.00  0.00    +0.051 C 
ATOM     24  C   UNL     1      -8.743  -5.619  -4.019  0.00  0.00    +0.035 A 
ATOM     25  C   UNL     1      -7.525  -6.274  -4.283  0.00  0.00    +0.085 A 
ATOM     26  N   UNL     1      -6.867  -6.303  -3.158  0.00  0.00    -0.081 NA
ATOM     27  O   UNL     1      -7.482  -5.771  -2.263  0.00  0.00    -0.338 OA
ATOM     28  C   UNL     1      -8.667  -5.305  -2.691  0.00  0.00    +0.240 A 
ATOM     29  C   UNL     1      -7.073  -6.838  -5.605  0.00  0.00    +0.069 C 
ENDBRANCH  21  28
ENDBRANCH  18  21
ENDBRANCH   1  18
TORSDOF 6
