REMARK  Name = ZINC12657135
REMARK  8 active torsions:
REMARK  status: ('A' for Active; 'I' for Inactive)
REMARK    1  A    between atoms: C_1  and  C_2
REMARK    2  A    between atoms: C_2  and  C_4
REMARK    3  A    between atoms: C_4  and  N_5
REMARK    4  A    between atoms: N_7  and  N_16
REMARK    5  A    between atoms: C_8  and  C_11
REMARK    6  A    between atoms: C_17  and  C_18
REMARK    7  A    between atoms: C_21  and  O_25
REMARK    8  A    between atoms: C_23  and  O_24
REMARK                            x       y       z     vdW  Elec       q    Type
REMARK                         _______ _______ _______ _____ _____    ______ ____
ROOT
ATOM      1  N   UNL     1      -0.982   4.967  -0.008  0.00  0.00    -0.255 NA
ATOM      2  C   UNL     1      -0.526   3.739  -0.014  0.00  0.00    +0.190 A 
ATOM      3  N   UNL     1       0.781   3.295  -0.008  0.00  0.00    -0.205 N 
ATOM      4  C   UNL     1       1.013   1.944  -0.016  0.00  0.00    +0.117 A 
ATOM      5  C   UNL     1      -0.033   1.089  -0.030  0.00  0.00    +0.080 A 
ATOM      6  S   UNL     1      -1.430   2.200  -0.040  0.00  0.00    -0.056 S 
ENDROOT
BRANCH   4   7
ATOM      7  C   UNL     1       2.392   1.429  -0.010  0.00  0.00    +0.154 A 
ATOM      8  C   UNL     1       2.756   0.116  -0.012  0.00  0.00    +0.051 A 
ATOM      9  C   UNL     1       4.165   0.085  -0.007  0.00  0.00    +0.042 A 
ATOM     10  C   UNL     1       4.588   1.364   0.005  0.00  0.00    +0.196 A 
ATOM     11  O   UNL     1       3.515   2.174   0.003  0.00  0.00    -0.461 OA
ENDBRANCH   4   7
BRANCH   3  12
ATOM     12  N   UNL     1       1.847   4.205   0.007  0.00  0.00    -0.172 NA
ATOM     13  C   UNL     1       1.675   5.398   0.490  0.00  0.00    +0.145 C 
BRANCH  13  14
ATOM     14  C   UNL     1       2.753   6.397   0.385  0.00  0.00    +0.036 A 
ATOM     15  C   UNL     1       2.570   7.683   0.899  0.00  0.00    +0.016 A 
ATOM     16  C   UNL     1       3.582   8.613   0.803  0.00  0.00    +0.046 A 
ATOM     17  C   UNL     1       4.783   8.279   0.187  0.00  0.00    +0.120 A 
ATOM     18  C   UNL     1       4.972   7.006  -0.331  0.00  0.00    +0.091 A 
ATOM     19  C   UNL     1       3.965   6.062  -0.237  0.00  0.00    +0.129 A 
BRANCH  19  20
ATOM     20  O   UNL     1       4.149   4.816  -0.744  0.00  0.00    -0.506 OA
ATOM     21  H   UNL     1       3.878   4.723  -1.667  0.00  0.00    +0.292 HD
ENDBRANCH  19  20
BRANCH  17  22
ATOM     22  O   UNL     1       5.774   9.203   0.092  0.00  0.00    -0.507 OA
ATOM     23  H   UNL     1       5.737   9.738  -0.712  0.00  0.00    +0.292 HD
ENDBRANCH  17  22
ENDBRANCH  13  14
ENDBRANCH   3  12
BRANCH   1  24
ATOM     24  C   UNL     1      -2.426   5.211  -0.016  0.00  0.00    +0.174 C 
BRANCH  24  26
ATOM     25  C   UNL     1      -3.089   5.258   2.508  0.00  0.00    +0.040 C 
ATOM     26  C   UNL     1      -2.812   5.986   1.217  0.00  0.00    -0.059 C 
ATOM     27  C   UNL     1      -2.907   7.291   1.168  0.00  0.00    +0.009 C 
ENDBRANCH  24  26
ENDBRANCH   1  24
TORSDOF 7
