REMARK  Name = ZINC13063951
REMARK  11 active torsions:
REMARK  status: ('A' for Active; 'I' for Inactive)
REMARK    1  A    between atoms: C_1  and  C_2
REMARK    2  A    between atoms: C_2  and  C_3
REMARK    3  A    between atoms: C_3  and  C_5
REMARK    4  A    between atoms: C_3  and  N_66
REMARK    5  A    between atoms: N_9  and  C_10
REMARK    6  A    between atoms: C_10  and  C_11
REMARK    7  A    between atoms: C_16  and  C_17
REMARK    8  A    between atoms: C_16  and  N_66
REMARK    9  A    between atoms: C_26  and  C_27
REMARK   10  A    between atoms: C_26  and  N_66
REMARK   11  A    between atoms: C_32  and  C_39
REMARK                            x       y       z     vdW  Elec       q    Type
REMARK                         _______ _______ _______ _____ _____    ______ ____
ROOT
ATOM      1  N   UNL     1       4.940  -1.074   4.069  0.00  0.00    +0.392 N 
ATOM      2  H   UNL     1       4.210  -1.773   4.252  0.00  0.00    -0.080 HD
ENDROOT
BRANCH   1   3
ATOM      3  C   UNL     1       5.936  -1.126   5.160  0.00  0.00    +0.003 C 
BRANCH   3   4
ATOM      4  C   UNL     1       6.841   0.079   5.106  0.00  0.00    +0.139 A 
ATOM      5  N   UNL     1       6.478   1.335   5.202  0.00  0.00    -0.115 NA
ATOM      6  N   UNL     1       7.537   2.063   5.112  0.00  0.00    -0.023 NA
ATOM      7  N   UNL     1       8.565   1.304   4.954  0.00  0.00    -0.044 NA
ATOM      8  N   UNL     1       8.177   0.074   4.945  0.00  0.00    -0.223 N 
BRANCH   8   9
ATOM      9  C   UNL     1       9.030  -1.107   4.788  0.00  0.00    +0.221 C 
BRANCH   9  10
ATOM     10  C   UNL     1       9.467  -1.223   3.350  0.00  0.00    +0.126 A 
ATOM     11  C   UNL     1      10.633  -0.784   2.844  0.00  0.00    +0.046 A 
ATOM     12  C   UNL     1      10.627  -1.101   1.466  0.00  0.00    +0.041 A 
ATOM     13  C   UNL     1       9.453  -1.706   1.211  0.00  0.00    +0.195 A 
ATOM     14  O   UNL     1       8.755  -1.778   2.356  0.00  0.00    -0.466 OA
ENDBRANCH   9  10
ENDBRANCH   8   9
ENDBRANCH   3   4
BRANCH   3  16
ATOM     15  C   UNL     1       4.341  -2.414   6.587  0.00  0.00    +0.002 C 
ATOM     16  C   UNL     1       5.198  -1.149   6.500  0.00  0.00    -0.011 C 
ENDBRANCH   3  16
ENDBRANCH   1   3
BRANCH   1  17
ATOM     17  C   UNL     1       5.589  -1.384   2.778  0.00  0.00    -0.041 C 
BRANCH  17  18
ATOM     18  C   UNL     1       5.769  -2.877   2.674  0.00  0.00    -0.060 A 
ATOM     19  C   UNL     1       6.882  -3.478   3.233  0.00  0.00    +0.005 A 
ATOM     20  C   UNL     1       7.052  -4.846   3.141  0.00  0.00    +0.050 A 
ATOM     21  C   UNL     1       6.107  -5.620   2.486  0.00  0.00    +0.166 A 
ATOM     22  C   UNL     1       4.986  -5.014   1.923  0.00  0.00    +0.166 A 
ATOM     23  C   UNL     1       4.822  -3.642   2.020  0.00  0.00    +0.051 A 
ATOM     24  O   UNL     1       4.215  -5.979   1.342  0.00  0.00    -0.453 OA
ATOM     25  C   UNL     1       4.665  -7.224   1.907  0.00  0.00    +0.466 C 
ATOM     26  O   UNL     1       6.038  -6.963   2.258  0.00  0.00    -0.453 OA
ENDBRANCH  17  18
ENDBRANCH   1  17
BRANCH   1  27
ATOM     27  C   UNL     1       4.320   0.266   4.014  0.00  0.00    -0.036 C 
BRANCH  27  28
ATOM     28  C   UNL     1       3.046   0.176   3.215  0.00  0.00    +0.001 A 
ATOM     29  C   UNL     1       1.868  -0.060   3.845  0.00  0.00    +0.017 A 
ATOM     30  C   UNL     1       0.648  -0.142   3.040  0.00  0.00    -0.001 A 
ATOM     31  C   UNL     1      -0.595  -0.383   3.633  0.00  0.00    +0.010 A 
ATOM     32  C   UNL     1      -1.715  -0.453   2.854  0.00  0.00    +0.004 A 
ATOM     33  C   UNL     1      -1.630  -0.286   1.478  0.00  0.00    -0.048 A 
ATOM     34  C   UNL     1      -0.416  -0.047   0.873  0.00  0.00    +0.029 A 
ATOM     35  C   UNL     1       0.739   0.028   1.646  0.00  0.00    +0.049 A 
ATOM     36  N   UNL     1       1.966   0.266   1.066  0.00  0.00    -0.322 N 
ATOM     37  H   UNL     1       2.027   0.383   0.105  0.00  0.00    +0.169 HD
ATOM     38  C   UNL     1       3.081   0.345   1.814  0.00  0.00    +0.251 A 
ATOM     39  O   UNL     1       4.149   0.562   1.269  0.00  0.00    -0.268 OA
ATOM     40  C   UNL     1      -2.879  -0.367   0.639  0.00  0.00    +0.044 C 
ENDBRANCH  27  28
ENDBRANCH   1  27
TORSDOF 9
