REMARK  Name = ZINC64031564
REMARK  10 active torsions:
REMARK  status: ('A' for Active; 'I' for Inactive)
REMARK    1  A    between atoms: C_1  and  N_2
REMARK    2  A    between atoms: N_2  and  C_3
REMARK    3  A    between atoms: C_3  and  C_4
REMARK    4  A    between atoms: C_13  and  C_15
REMARK    5  A    between atoms: C_15  and  C_16
REMARK    6  A    between atoms: C_16  and  C_17
REMARK    7  A    between atoms: C_17  and  C_23
REMARK    8  A    between atoms: C_23  and  C_24
REMARK    9  A    between atoms: C_27  and  O_34
REMARK   10  A    between atoms: O_34  and  C_35
REMARK                            x       y       z     vdW  Elec       q    Type
REMARK                         _______ _______ _______ _____ _____    ______ ____
ROOT
ATOM      1  C   UNL     1       0.286  -0.152  -5.011  0.00  0.00    +0.039 C 
ATOM      2  C   UNL     1       1.678   0.449  -5.308  0.00  0.00    +0.035 C 
ATOM      3  C   UNL     1       1.533   1.878  -4.737  0.00  0.00    +0.098 C 
ATOM      4  C   UNL     1       0.045   2.146  -4.782  0.00  0.00    +0.214 C 
ATOM      5  O   UNL     1      -0.467   3.242  -4.689  0.00  0.00    -0.276 OA
ATOM      6  N   UNL     1      -0.628   0.994  -4.942  0.00  0.00    -0.309 N 
ATOM      7  H   UNL     1      -1.594   0.928  -5.003  0.00  0.00    +0.149 HD
ENDROOT
BRANCH   1   8
ATOM      8  C   UNL     1       0.304  -0.896  -3.675  0.00  0.00    +0.035 C 
BRANCH   8   9
ATOM      9  C   UNL     1       0.636   0.085  -2.549  0.00  0.00    +0.098 C 
BRANCH   9  12
ATOM     10  C   UNL     1       1.203   1.458  -0.135  0.00  0.00    +0.132 C 
ATOM     11  N   UNL     1       0.925   0.020  -0.093  0.00  0.00    -0.301 N 
ATOM     12  C   UNL     1       0.654  -0.648  -1.232  0.00  0.00    +0.216 C 
ATOM     13  O   UNL     1       0.424  -1.838  -1.198  0.00  0.00    -0.276 OA
BRANCH  11  14
ATOM     14  C   UNL     1       0.943  -0.693   1.187  0.00  0.00    +0.154 C 
BRANCH  14  15
ATOM     15  C   UNL     1      -0.456  -0.665   1.805  0.00  0.00    +0.192 C 
ATOM     16  N   UNL     1      -1.430  -1.248   0.875  0.00  0.00    -0.362 N 
ATOM     17  C   UNL     1      -2.305  -0.326   0.596  0.00  0.00    +0.060 A 
ATOM     18  C   UNL     1      -3.498  -0.306  -0.262  0.00  0.00    +0.027 A 
ATOM     19  C   UNL     1      -4.229   0.822  -0.359  0.00  0.00    +0.002 A 
ATOM     20  C   UNL     1      -3.900   2.001   0.333  0.00  0.00    +0.002 A 
ATOM     21  C   UNL     1      -2.827   2.091   1.145  0.00  0.00    +0.027 A 
ATOM     22  C   UNL     1      -1.956   0.922   1.328  0.00  0.00    +0.060 A 
ATOM     23  N   UNL     1      -0.879   0.723   2.032  0.00  0.00    -0.362 N 
ATOM     24  H   UNL     1      -1.423  -2.155   0.531  0.00  0.00    +0.162 HD
ATOM     25  H   UNL     1      -0.438   1.371   2.602  0.00  0.00    +0.162 HD
ENDBRANCH  14  15
ENDBRANCH  11  14
ENDBRANCH   9  12
ENDBRANCH   8   9
ENDBRANCH   1   8
BRANCH   1  26
ATOM     26  C   UNL     1      -0.136  -1.098  -6.137  0.00  0.00    +0.061 C 
BRANCH  26  27
ATOM     27  C   UNL     1      -0.281  -0.320  -7.420  0.00  0.00    -0.037 A 
ATOM     28  C   UNL     1       0.776  -0.200  -8.270  0.00  0.00    +0.008 A 
ATOM     29  C   UNL     1       0.664   0.514  -9.459  0.00  0.00    +0.046 A 
ATOM     30  C   UNL     1      -0.512   1.117  -9.808  0.00  0.00    +0.128 A 
ATOM     31  C   UNL     1      -1.627   1.013  -8.952  0.00  0.00    +0.024 A 
ATOM     32  C   UNL     1      -1.509   0.280  -7.745  0.00  0.00    -0.011 A 
ATOM     33  C   UNL     1      -2.622   0.173  -6.893  0.00  0.00    +0.009 A 
ATOM     34  C   UNL     1      -3.796   0.768  -7.240  0.00  0.00    +0.001 A 
ATOM     35  C   UNL     1      -3.913   1.483  -8.431  0.00  0.00    +0.001 A 
ATOM     36  C   UNL     1      -2.852   1.618  -9.274  0.00  0.00    +0.012 A 
BRANCH  30  37
ATOM     37  O   UNL     1      -0.605   1.811 -10.972  0.00  0.00    -0.495 OA
ATOM     38  C   UNL     1       0.567   1.872 -11.787  0.00  0.00    +0.277 C 
ENDBRANCH  30  37
ENDBRANCH  26  27
ENDBRANCH   1  26
TORSDOF 8
