REMARK  Name = ZINC12660040
REMARK  9 active torsions:
REMARK  status: ('A' for Active; 'I' for Inactive)
REMARK    1  A    between atoms: C_1  and  C_2
REMARK    2  A    between atoms: C_2  and  C_3
REMARK    3  A    between atoms: C_2  and  N_4
REMARK    4  A    between atoms: C_5  and  C_7
REMARK    5  A    between atoms: C_7  and  O_8
REMARK    6  A    between atoms: O_8  and  C_9
REMARK    7  A    between atoms: C_9  and  C_11
REMARK    8  A    between atoms: C_25  and  C_26
REMARK    9  A    between atoms: C_29  and  N_32
REMARK                            x       y       z     vdW  Elec       q    Type
REMARK                         _______ _______ _______ _____ _____    ______ ____
ROOT
ATOM      1  C   UNL     1      -6.136  -6.158  -1.497  0.00  0.00    +0.073 A 
ATOM      2  C   UNL     1      -6.098  -7.450  -0.811  0.00  0.00    +0.015 A 
ATOM      3  C   UNL     1      -6.346  -7.558   0.561  0.00  0.00    +0.011 A 
ATOM      4  C   UNL     1      -6.301  -8.783   1.159  0.00  0.00    +0.001 A 
ATOM      5  C   UNL     1      -6.011  -9.928   0.420  0.00  0.00    +0.002 A 
ATOM      6  C   UNL     1      -5.765  -9.858  -0.917  0.00  0.00    +0.028 A 
ATOM      7  C   UNL     1      -5.803  -8.611  -1.569  0.00  0.00    +0.072 A 
ATOM      8  N   UNL     1      -5.565  -8.510  -2.876  0.00  0.00    -0.247 NA
ATOM      9  C   UNL     1      -5.593  -7.355  -3.519  0.00  0.00    +0.072 A 
ATOM     10  C   UNL     1      -5.886  -6.146  -2.863  0.00  0.00    -0.007 A 
ATOM     11  C   UNL     1      -5.939  -4.835  -3.598  0.00  0.00    +0.038 C 
ATOM     12  C   UNL     1      -5.136  -4.896  -4.895  0.00  0.00    +0.009 C 
ATOM     13  C   UNL     1      -5.627  -6.078  -5.741  0.00  0.00    +0.037 C 
ATOM     14  C   UNL     1      -5.309  -7.344  -4.971  0.00  0.00    -0.021 C 
ATOM     15  C   UNL     1      -4.799  -8.424  -5.588  0.00  0.00    +0.013 C 
ENDROOT
BRANCH  15  16
ATOM     16  C   UNL     1      -4.293  -9.556  -4.792  0.00  0.00    -0.025 A 
ATOM     17  C   UNL     1      -4.605 -10.868  -5.160  0.00  0.00    +0.010 A 
ATOM     18  C   UNL     1      -4.127 -11.922  -4.410  0.00  0.00    +0.033 A 
ATOM     19  C   UNL     1      -3.341 -11.684  -3.296  0.00  0.00    +0.126 A 
ATOM     20  C   UNL     1      -3.028 -10.388  -2.926  0.00  0.00    +0.033 A 
ATOM     21  C   UNL     1      -3.494  -9.323  -3.669  0.00  0.00    +0.010 A 
BRANCH  19  22
ATOM     22  N   UNL     1      -2.833 -12.821  -2.496  0.00  0.00    +0.056 N 
ATOM     23  O   UNL     1      -3.104 -13.955  -2.817  0.00  0.00    -0.126 OA
ATOM     24  O   UNL     1      -2.146 -12.617  -1.522  0.00  0.00    -0.126 OA
ENDBRANCH  19  22
ENDBRANCH  15  16
BRANCH   1  25
ATOM     25  C   UNL     1      -6.437  -4.911  -0.763  0.00  0.00    +0.341 C 
ATOM     26  O   UNL     1      -7.586  -4.534  -0.650  0.00  0.00    -0.245 OA
BRANCH  25  27
ATOM     27  O   UNL     1      -5.436  -4.192  -0.218  0.00  0.00    -0.452 OA
BRANCH  27  28
ATOM     28  C   UNL     1      -5.799  -2.997   0.477  0.00  0.00    +0.328 C 
BRANCH  28  30
ATOM     29  N   UNL     1      -4.658  -1.181   1.709  0.00  0.00    -0.310 N 
ATOM     30  C   UNL     1      -4.558  -2.331   1.013  0.00  0.00    +0.251 C 
ATOM     31  O   UNL     1      -3.470  -2.830   0.819  0.00  0.00    -0.272 OA
ATOM     32  H   UNL     1      -5.528  -0.782   1.864  0.00  0.00    +0.149 HD
BRANCH  29  34
ATOM     33  C   UNL     1      -3.711   0.964   2.404  0.00  0.00    +0.027 C 
ATOM     34  C   UNL     1      -3.451  -0.534   2.230  0.00  0.00    +0.067 C 
ATOM     35  C   UNL     1      -3.087  -1.149   3.583  0.00  0.00    +0.027 C 
ENDBRANCH  29  34
ENDBRANCH  28  30
ENDBRANCH  27  28
ENDBRANCH  25  27
ENDBRANCH   1  25
TORSDOF 7
