REMARK  Name = ZINC09483904
REMARK  4 active torsions:
REMARK  status: ('A' for Active; 'I' for Inactive)
REMARK    1  A    between atoms: C_6  and  N_7
REMARK    2  A    between atoms: C_11  and  C_13
REMARK    3  A    between atoms: C_13  and  S_14
REMARK    4  A    between atoms: S_14  and  C_15
REMARK                            x       y       z     vdW  Elec       q    Type
REMARK                         _______ _______ _______ _____ _____    ______ ____
ROOT
ATOM      1  N   UNL     1      -1.202  -0.722   0.009  0.00  0.00    -0.269 N 
ATOM      2  C   UNL     1      -2.375  -0.068   0.124  0.00  0.00    +0.310 C 
ATOM      3  O   UNL     1      -2.396   1.147   0.131  0.00  0.00    -0.252 OA
ATOM      4  N   UNL     1      -3.525  -0.763   0.232  0.00  0.00    -0.239 N 
ATOM      5  C   UNL     1      -4.698  -0.109   0.348  0.00  0.00    +0.231 C 
ATOM      6  O   UNL     1      -4.719   1.103   0.355  0.00  0.00    -0.274 OA
ATOM      7  H   UNL     1      -1.191  -1.688  -0.074  0.00  0.00    +0.156 HD
ATOM      8  H   UNL     1      -3.508  -1.732   0.227  0.00  0.00    +0.159 HD
ENDROOT
BRANCH   1  14
ATOM      9  C   UNL     1       0.121   1.154   0.764  0.00  0.00    +0.027 A 
ATOM     10  C   UNL     1       1.308   1.862   0.763  0.00  0.00    +0.051 A 
ATOM     11  C   UNL     1       2.384   1.417   0.010  0.00  0.00    +0.162 A 
ATOM     12  C   UNL     1       2.269   0.255  -0.745  0.00  0.00    +0.164 A 
ATOM     13  C   UNL     1       1.077  -0.453  -0.746  0.00  0.00    +0.072 A 
ATOM     14  C   UNL     1       0.002  -0.005   0.009  0.00  0.00    +0.038 A 
ATOM     15  O   UNL     1       3.317  -0.201  -1.484  0.00  0.00    -0.485 OA
ATOM     16  C   UNL     1       4.369   0.731  -1.754  0.00  0.00    +0.270 C 
ATOM     17  C   UNL     1       4.718   1.454  -0.446  0.00  0.00    +0.270 C 
ATOM     18  O   UNL     1       3.544   2.130   0.020  0.00  0.00    -0.485 OA
ENDBRANCH   1  14
BRANCH   5  19
ATOM     19  C   UNL     1      -5.984  -0.886   0.468  0.00  0.00    +0.173 C 
BRANCH  19  20
ATOM     20  S   UNL     1      -7.377   0.269   0.607  0.00  0.00    -0.079 S 
BRANCH  20  21
ATOM     21  C   UNL     1      -8.787  -0.779   0.739  0.00  0.00    +0.168 A 
ATOM     22  N   UNL     1     -10.078  -0.347   0.859  0.00  0.00    -0.333 N 
ATOM     23  H   UNL     1     -10.375   0.576   0.887  0.00  0.00    +0.168 HD
ATOM     24  C   UNL     1     -10.882  -1.472   0.933  0.00  0.00    +0.068 A 
ATOM     25  C   UNL     1     -12.249  -1.670   1.061  0.00  0.00    +0.047 A 
ATOM     26  C   UNL     1     -12.756  -2.953   1.107  0.00  0.00    +0.043 A 
ATOM     27  C   UNL     1     -11.907  -4.048   1.028  0.00  0.00    +0.022 A 
ATOM     28  C   UNL     1     -10.547  -3.869   0.902  0.00  0.00    +0.031 A 
ATOM     29  C   UNL     1     -10.018  -2.576   0.853  0.00  0.00    +0.090 A 
ATOM     30  N   UNL     1      -8.756  -2.089   0.730  0.00  0.00    -0.222 NA
ATOM     31 CL   UNL     1     -14.467  -3.199   1.267  0.00  0.00    -0.083 Cl
ENDBRANCH  20  21
ENDBRANCH  19  20
ENDBRANCH   5  19
TORSDOF 4
