REMARK  Name = ZINC45228362
REMARK  10 active torsions:
REMARK  status: ('A' for Active; 'I' for Inactive)
REMARK    1  A    between atoms: C_1  and  C_2
REMARK    2  A    between atoms: C_2  and  N_3
REMARK    3  A    between atoms: N_3  and  C_4
REMARK    4  A    between atoms: N_3  and  C_6
REMARK    5  A    between atoms: C_4  and  C_5
REMARK    6  A    between atoms: C_6  and  C_7
REMARK    7  A    between atoms: C_7  and  C_8
REMARK    8  A    between atoms: C_8  and  N_9
REMARK    9  A    between atoms: C_12  and  C_15
REMARK   10  A    between atoms: N_24  and  C_25
REMARK                            x       y       z     vdW  Elec       q    Type
REMARK                         _______ _______ _______ _____ _____    ______ ____
ROOT
ATOM      1  N   UNL     1      -4.598  -3.573   0.879  0.00  0.00    -0.234 N 
ATOM      2  C   UNL     1      -5.404  -3.475  -0.248  0.00  0.00    +0.169 A 
ATOM      3  N   UNL     1      -6.716  -3.349  -0.329  0.00  0.00    -0.224 NA
ATOM      4  C   UNL     1      -7.328  -3.269  -1.501  0.00  0.00    +0.080 A 
ATOM      5  C   UNL     1      -6.589  -3.318  -2.649  0.00  0.00    +0.076 A 
ATOM      6  S   UNL     1      -4.941  -3.479  -1.975  0.00  0.00    -0.060 S 
ATOM      7  C   UNL     1      -5.151  -3.549   2.107  0.00  0.00    +0.312 C 
ATOM      8  O   UNL     1      -6.356  -3.442   2.229  0.00  0.00    -0.252 OA
ATOM      9  N   UNL     1      -4.369  -3.644   3.201  0.00  0.00    -0.266 N 
ATOM     10  H   UNL     1      -3.404  -3.677   3.106  0.00  0.00    +0.156 HD
ENDROOT
BRANCH   9  11
ATOM     11  C   UNL     1      -4.947  -3.695   4.471  0.00  0.00    +0.075 A 
ATOM     12  C   UNL     1      -6.069  -4.487   4.715  0.00  0.00    +0.082 A 
ATOM     13  C   UNL     1      -6.611  -4.510   5.984  0.00  0.00    +0.132 A 
ATOM     14  N   UNL     1      -6.080  -3.797   6.959  0.00  0.00    -0.260 NA
ATOM     15  C   UNL     1      -5.019  -3.036   6.769  0.00  0.00    +0.132 A 
ATOM     16  C   UNL     1      -4.415  -2.961   5.530  0.00  0.00    +0.082 A 
ATOM     17 CL   UNL     1      -3.015  -1.962   5.292  0.00  0.00    -0.080 Cl
ATOM     18 CL   UNL     1      -6.776  -5.429   3.439  0.00  0.00    -0.080 Cl
ENDBRANCH   9  11
BRANCH   4  19
ATOM     19  C   UNL     1      -8.803  -3.128  -1.566  0.00  0.00    +0.001 A 
ATOM     20  C   UNL     1      -9.444  -3.050  -2.801  0.00  0.00    +0.013 A 
ATOM     21  C   UNL     1     -10.817  -2.919  -2.857  0.00  0.00    +0.039 A 
ATOM     22  C   UNL     1     -11.558  -2.865  -1.688  0.00  0.00    +0.123 A 
ATOM     23  C   UNL     1     -10.925  -2.941  -0.458  0.00  0.00    +0.039 A 
ATOM     24  C   UNL     1      -9.554  -3.078  -0.392  0.00  0.00    +0.013 A 
ATOM     25  F   UNL     1     -12.901  -2.736  -1.748  0.00  0.00    -0.205 F 
ENDBRANCH   4  19
BRANCH   1  26
ATOM     26  C   UNL     1      -3.146  -3.702   0.732  0.00  0.00    +0.115 C 
BRANCH  26  27
ATOM     27  C   UNL     1      -2.510  -2.310   0.712  0.00  0.00    +0.001 C 
BRANCH  27  28
ATOM     28  C   UNL     1      -0.994  -2.445   0.558  0.00  0.00    -0.077 C 
BRANCH  28  29
ATOM     29  N   UNL     1      -0.397  -1.111   0.408  0.00  0.00    +0.379 N 
ATOM     30  H   UNL     1      -0.839  -0.629  -0.360  0.00  0.00    -0.082 HD
BRANCH  29  32
ATOM     31  C   UNL     1      -0.082   1.084   1.446  0.00  0.00    -0.017 C 
ATOM     32  C   UNL     1      -0.592  -0.344   1.645  0.00  0.00    -0.082 C 
ENDBRANCH  29  32
BRANCH  29  33
ATOM     33  C   UNL     1       1.041  -1.246   0.137  0.00  0.00    -0.082 C 
ATOM     34  C   UNL     1       1.244  -1.903  -1.230  0.00  0.00    -0.017 C 
ENDBRANCH  29  33
ENDBRANCH  28  29
ENDBRANCH  27  28
ENDBRANCH  26  27
ENDBRANCH   1  26
TORSDOF 8
