REMARK  Name = ZINC20710567
REMARK  7 active torsions:
REMARK  status: ('A' for Active; 'I' for Inactive)
REMARK    1  A    between atoms: C_1  and  N_2
REMARK    2  A    between atoms: N_5  and  S_8
REMARK    3  A    between atoms: S_8  and  C_11
REMARK    4  A    between atoms: C_24  and  C_27
REMARK    5  A    between atoms: C_32  and  O_33
REMARK    6  A    between atoms: O_33  and  C_34
REMARK    7  A    between atoms: C_34  and  C_35
REMARK                            x       y       z     vdW  Elec       q    Type
REMARK                         _______ _______ _______ _____ _____    ______ ____
ROOT
ATOM      1  C   UNL     1      -1.220   1.749   0.017  0.00  0.00    +0.106 A 
ATOM      2  C   UNL     1      -0.013   1.076   0.008  0.00  0.00    +0.030 A 
ATOM      3  C   UNL     1       1.174   1.780   0.000  0.00  0.00    +0.025 A 
ATOM      4  C   UNL     1       1.165   3.170   0.002  0.00  0.00    +0.031 A 
ATOM      5  C   UNL     1      -0.061   3.845   0.009  0.00  0.00    -0.018 A 
ATOM      6  C   UNL     1      -1.240   3.132   0.024  0.00  0.00    +0.034 A 
ATOM      7  C   UNL     1      -0.027   5.323  -0.012  0.00  0.00    +0.049 C 
ATOM      8  C   UNL     1      -1.133   6.142   0.547  0.00  0.00    -0.023 C 
ATOM      9  C   UNL     1      -0.626   7.275   1.017  0.00  0.00    -0.030 C 
ATOM     10  C   UNL     1       0.893   7.284   0.834  0.00  0.00    +0.033 C 
ATOM     11  C   UNL     1       1.211   5.783   0.815  0.00  0.00    +0.029 C 
ATOM     12  C   UNL     1       2.421   5.341   0.012  0.00  0.00    +0.108 C 
ATOM     13  N   UNL     1       2.382   3.863   0.013  0.00  0.00    -0.336 N 
ATOM     14  H   UNL     1       3.319   3.287   0.024  0.00  0.00    +0.147 HD
ENDROOT
BRANCH  12  15
ATOM     15  C   UNL     1       3.689   5.829   0.665  0.00  0.00    +0.015 A 
ATOM     16  C   UNL     1       4.398   4.995   1.508  0.00  0.00    +0.009 A 
ATOM     17  C   UNL     1       5.561   5.441   2.106  0.00  0.00    +0.001 A 
ATOM     18  C   UNL     1       6.019   6.723   1.863  0.00  0.00    +0.004 A 
ATOM     19  C   UNL     1       5.313   7.562   1.022  0.00  0.00    +0.046 A 
ATOM     20  C   UNL     1       4.148   7.114   0.415  0.00  0.00    +0.126 A 
BRANCH  20  21
ATOM     21  O   UNL     1       3.456   7.934  -0.418  0.00  0.00    -0.487 OA
BRANCH  21  22
ATOM     22  C   UNL     1       3.988   9.244  -0.628  0.00  0.00    +0.264 C 
BRANCH  22  23
ATOM     23  C   UNL     1       3.093  10.004  -1.573  0.00  0.00    -0.010 A 
ATOM     24  C   UNL     1       3.321   9.949  -2.935  0.00  0.00    +0.007 A 
ATOM     25  C   UNL     1       2.497  10.643  -3.802  0.00  0.00    +0.000 A 
ATOM     26  C   UNL     1       1.451  11.398  -3.306  0.00  0.00    +0.000 A 
ATOM     27  C   UNL     1       1.226  11.457  -1.944  0.00  0.00    +0.000 A 
ATOM     28  C   UNL     1       2.047  10.760  -1.077  0.00  0.00    +0.007 A 
ENDBRANCH  22  23
ENDBRANCH  21  22
ENDBRANCH  20  21
ENDBRANCH  12  15
BRANCH   1  29
ATOM     29  S   UNL     1      -2.733   0.846   0.028  0.00  0.00    +0.061 S 
ATOM     30  O   UNL     1      -3.724   1.707  -0.515  0.00  0.00    -0.153 OA
ATOM     31  O   UNL     1      -2.447  -0.431  -0.526  0.00  0.00    -0.153 OA
BRANCH  29  36
ATOM     32  C   UNL     1      -2.452   0.984   5.734  0.00  0.00    -0.096 C 
ATOM     33  N   UNL     1      -2.969   0.683   4.392  0.00  0.00    +0.380 N 
ATOM     34  C   UNL     1      -3.274   1.917   3.656  0.00  0.00    -0.062 C 
ATOM     35  C   UNL     1      -3.976   1.562   2.340  0.00  0.00    +0.091 C 
ATOM     36  N   UNL     1      -3.142   0.594   1.612  0.00  0.00    -0.180 NA
ATOM     37  C   UNL     1      -2.686  -0.608   2.327  0.00  0.00    +0.091 C 
ATOM     38  C   UNL     1      -2.030  -0.166   3.645  0.00  0.00    -0.062 C 
ATOM     39  H   UNL     1      -3.908   0.121   4.508  0.00  0.00    -0.082 HD
ENDBRANCH  29  36
ENDBRANCH   1  29
TORSDOF 6
