REMARK  Name = ZINC04259087
REMARK  9 active torsions:
REMARK  status: ('A' for Active; 'I' for Inactive)
REMARK    1  A    between atoms: C_1  and  C_2
REMARK    2  A    between atoms: C_2  and  O_3
REMARK    3  A    between atoms: O_3  and  C_4
REMARK    4  A    between atoms: C_4  and  C_6
REMARK    5  A    between atoms: C_10  and  N_11
REMARK    6  A    between atoms: C_12  and  C_14
REMARK    7  A    between atoms: N_16  and  N_17
REMARK    8  A    between atoms: C_18  and  C_19
REMARK    9  A    between atoms: C_27  and  C_31
REMARK                            x       y       z     vdW  Elec       q    Type
REMARK                         _______ _______ _______ _____ _____    ______ ____
ROOT
ATOM      1  N   UNL     1      -8.469   1.504   0.051  0.00  0.00    -0.271 N 
ATOM      2  C   UNL     1      -7.295   0.841   0.042  0.00  0.00    +0.305 C 
ATOM      3  O   UNL     1      -7.284  -0.373   0.036  0.00  0.00    -0.265 OA
ATOM      4  H   UNL     1      -8.479   2.603   0.057  0.00  0.00    +0.156 HD
ENDROOT
BRANCH   1   9
ATOM      5  C   UNL     1     -10.957   1.299   0.063  0.00  0.00    +0.091 A 
ATOM      6  C   UNL     1     -12.046   0.336   0.063  0.00  0.00    -0.021 A 
ATOM      7  C   UNL     1     -11.667  -0.961   0.055  0.00  0.00    -0.004 A 
ATOM      8  S   UNL     1      -9.897  -0.916   0.038  0.00  0.00    -0.077 S 
ATOM      9  C   UNL     1      -9.660   0.800   0.054  0.00  0.00    +0.087 A 
ATOM     10  C   UNL     1     -12.561  -2.162   0.054  0.00  0.00    +0.046 C 
ATOM     11  C   UNL     1     -13.977  -1.712   0.442  0.00  0.00    -0.009 C 
ATOM     12  C   UNL     1     -14.347  -0.479  -0.387  0.00  0.00    +0.008 C 
ATOM     13  C   UNL     1     -13.519   0.724   0.072  0.00  0.00    +0.037 C 
ATOM     14  C   UNL     1     -14.970  -2.841   0.159  0.00  0.00    +0.008 C 
BRANCH   5  15
ATOM     15  C   UNL     1     -11.217   2.740   0.071  0.00  0.00    +0.342 C 
ATOM     16  O   UNL     1     -11.330   3.344  -0.979  0.00  0.00    -0.245 OA
BRANCH  15  17
ATOM     17  O   UNL     1     -11.332   3.398   1.242  0.00  0.00    -0.461 OA
BRANCH  17  19
ATOM     18  C   UNL     1     -11.687   5.394   2.592  0.00  0.00    +0.048 C 
ATOM     19  C   UNL     1     -11.590   4.825   1.175  0.00  0.00    +0.229 C 
ENDBRANCH  17  19
ENDBRANCH  15  17
ENDBRANCH   5  15
ENDBRANCH   1   9
BRANCH   2  20
ATOM     20  C   UNL     1      -6.012   1.599   0.040  0.00  0.00    +0.318 C 
ATOM     21  O   UNL     1      -6.024   2.813   0.046  0.00  0.00    -0.263 OA
ATOM     22  N   UNL     1      -4.838   0.936   0.031  0.00  0.00    -0.199 N 
ATOM     23  H   UNL     1      -4.827  -0.164   0.025  0.00  0.00    +0.178 HD
BRANCH  22  24
ATOM     24  N   UNL     1      -3.632   1.649   0.029  0.00  0.00    -0.187 NA
ATOM     25  C   UNL     1      -2.501   1.010   0.020  0.00  0.00    +0.138 C 
BRANCH  25  26
ATOM     26  C   UNL     1      -1.231   1.760   0.017  0.00  0.00    -0.005 A 
ATOM     27  C   UNL     1      -0.013   1.076   0.008  0.00  0.00    +0.011 A 
ATOM     28  C   UNL     1       1.171   1.783   0.001  0.00  0.00    +0.020 A 
ATOM     29  C   UNL     1       1.154   3.168   0.008  0.00  0.00    +0.041 A 
ATOM     30  C   UNL     1      -0.050   3.852   0.022  0.00  0.00    +0.020 A 
ATOM     31  C   UNL     1      -1.241   3.157   0.030  0.00  0.00    +0.011 A 
ATOM     32 CL   UNL     1       2.649   4.051  -0.003  0.00  0.00    -0.084 Cl
ENDBRANCH  25  26
ENDBRANCH  22  24
ENDBRANCH   2  20
TORSDOF 7
