REMARK  Name = ZINC02257050
REMARK  10 active torsions:
REMARK  status: ('A' for Active; 'I' for Inactive)
REMARK    1  A    between atoms: C_1  and  C_2
REMARK    2  A    between atoms: C_5  and  C_8
REMARK    3  A    between atoms: N_10  and  C_11
REMARK    4  A    between atoms: C_11  and  C_25
REMARK    5  A    between atoms: C_12  and  C_13
REMARK    6  A    between atoms: C_16  and  C_18
REMARK    7  A    between atoms: N_27  and  C_28
REMARK    8  A    between atoms: C_28  and  C_29
REMARK    9  A    between atoms: C_28  and  C_30
REMARK   10  A    between atoms: C_28  and  C_31
REMARK                            x       y       z     vdW  Elec       q    Type
REMARK                         _______ _______ _______ _____ _____    ______ ____
ROOT
ATOM      1  C   UNL     1      -1.101   1.113  -0.053  0.00  0.00    +0.100 C 
ATOM      2  C   UNL     1      -0.509  -0.107   0.071  0.00  0.00    +0.074 C 
ENDROOT
BRANCH   2   3
ATOM      3  C   UNL     1      -1.268  -1.222   0.494  0.00  0.00    +0.131 A 
ATOM      4  C   UNL     1      -0.765  -2.458   0.852  0.00  0.00    +0.050 A 
ATOM      5  C   UNL     1      -1.861  -3.254   1.199  0.00  0.00    +0.050 A 
ATOM      6  C   UNL     1      -2.981  -2.487   1.043  0.00  0.00    +0.136 A 
ATOM      7  O   UNL     1      -2.611  -1.264   0.624  0.00  0.00    -0.455 OA
BRANCH   6   8
ATOM      8  C   UNL     1      -4.366  -2.927   1.299  0.00  0.00    +0.017 A 
ATOM      9  C   UNL     1      -4.610  -4.167   1.894  0.00  0.00    +0.012 A 
ATOM     10  C   UNL     1      -5.907  -4.570   2.134  0.00  0.00    +0.016 A 
ATOM     11  C   UNL     1      -6.966  -3.752   1.779  0.00  0.00    +0.018 A 
ATOM     12  C   UNL     1      -6.731  -2.523   1.184  0.00  0.00    +0.016 A 
ATOM     13  C   UNL     1      -5.439  -2.107   0.942  0.00  0.00    +0.012 A 
ATOM     14 BR   UNL     1      -8.742  -4.315   2.106  0.00  0.00    -0.050 Br
ENDBRANCH   6   8
ENDBRANCH   2   3
BRANCH   1  17
ATOM     15  C   UNL     1      -0.977   3.381  -0.757  0.00  0.00    +0.248 C 
ATOM     16  O   UNL     1      -2.147   3.526  -0.461  0.00  0.00    -0.270 OA
ATOM     17  N   UNL     1      -0.364   2.203  -0.527  0.00  0.00    -0.277 N 
ATOM     18  H   UNL     1       0.715   2.099  -0.712  0.00  0.00    +0.155 HD
BRANCH  15  23
ATOM     19  C   UNL     1       1.946   7.727  -3.142  0.00  0.00    +0.044 C 
ATOM     20  C   UNL     1       1.181   6.589  -2.517  0.00  0.00    -0.050 A 
ATOM     21  C   UNL     1      -0.151   6.757  -2.182  0.00  0.00    +0.004 A 
ATOM     22  C   UNL     1      -0.858   5.719  -1.610  0.00  0.00    +0.013 A 
ATOM     23  C   UNL     1      -0.226   4.497  -1.370  0.00  0.00    +0.037 A 
ATOM     24  C   UNL     1       1.119   4.336  -1.706  0.00  0.00    +0.013 A 
ATOM     25  C   UNL     1       1.813   5.381  -2.282  0.00  0.00    +0.004 A 
ENDBRANCH  15  23
ENDBRANCH   1  17
BRANCH   1  26
ATOM     26  C   UNL     1      -2.510   1.283   0.311  0.00  0.00    +0.259 C 
ATOM     27  O   UNL     1      -3.372   0.671  -0.293  0.00  0.00    -0.269 OA
ATOM     28  N   UNL     1      -2.851   2.116   1.313  0.00  0.00    -0.306 N 
ATOM     29  H   UNL     1      -2.083   2.737   1.798  0.00  0.00    +0.150 HD
BRANCH  28  30
ATOM     30  C   UNL     1      -4.245   2.196   1.757  0.00  0.00    +0.027 C 
ATOM     31  C   UNL     1      -4.654   0.867   2.395  0.00  0.00    +0.031 C 
ATOM     32  C   UNL     1      -4.390   3.321   2.784  0.00  0.00    +0.031 C 
ATOM     33  C   UNL     1      -5.147   2.484   0.555  0.00  0.00    +0.031 C 
ENDBRANCH  28  30
ENDBRANCH   1  26
TORSDOF 6
