REMARK  Name = ZINC30883627
REMARK  10 active torsions:
REMARK  status: ('A' for Active; 'I' for Inactive)
REMARK    1  A    between atoms: C_1  and  O_2
REMARK    2  A    between atoms: O_2  and  C_3
REMARK    3  A    between atoms: C_3  and  C_5
REMARK    4  A    between atoms: C_5  and  C_7
REMARK    5  A    between atoms: C_5  and  N_18
REMARK    6  A    between atoms: C_7  and  C_8
REMARK    7  A    between atoms: C_19  and  C_21
REMARK    8  A    between atoms: C_24  and  C_26
REMARK    9  A    between atoms: C_26  and  O_27
REMARK   10  A    between atoms: O_27  and  C_28
REMARK                            x       y       z     vdW  Elec       q    Type
REMARK                         _______ _______ _______ _____ _____    ______ ____
ROOT
ATOM      1  N   UNL     1       8.455  -2.575   2.855  0.00  0.00    -0.296 N 
ATOM      2  C   UNL     1       8.589  -2.677   1.518  0.00  0.00    +0.280 C 
ATOM      3  O   UNL     1       9.489  -3.348   1.046  0.00  0.00    -0.267 OA
ATOM      4  H   UNL     1       7.643  -1.969   3.282  0.00  0.00    +0.150 HD
ENDROOT
BRANCH   2   5
ATOM      5  C   UNL     1       7.651  -1.980   0.631  0.00  0.00    +0.190 A 
ATOM      6  C   UNL     1       7.673  -1.999  -0.734  0.00  0.00    +0.055 A 
ATOM      7  C   UNL     1       6.598  -1.206  -1.165  0.00  0.00    +0.049 A 
ATOM      8  C   UNL     1       5.981  -0.737  -0.058  0.00  0.00    +0.143 A 
ATOM      9  O   UNL     1       6.616  -1.209   1.022  0.00  0.00    -0.452 OA
BRANCH   8  10
ATOM     10  C   UNL     1       4.772   0.164  -0.042  0.00  0.00    +0.303 C 
BRANCH  10  11
ATOM     11  O   UNL     1       3.586  -0.632  -0.035  0.00  0.00    -0.484 OA
BRANCH  11  12
ATOM     12  C   UNL     1       2.399   0.030  -0.021  0.00  0.00    +0.121 A 
ATOM     13  C   UNL     1       1.207  -0.680  -0.013  0.00  0.00    +0.045 A 
ATOM     14  C   UNL     1       0.002  -0.004   0.002  0.00  0.00    +0.004 A 
ATOM     15  C   UNL     1      -0.017   1.378   0.010  0.00  0.00    +0.000 A 
ATOM     16  C   UNL     1       1.170   2.088   0.002  0.00  0.00    +0.004 A 
ATOM     17  C   UNL     1       2.377   1.417  -0.013  0.00  0.00    +0.045 A 
ENDBRANCH  11  12
ENDBRANCH  10  11
ENDBRANCH   8  10
ENDBRANCH   2   5
BRANCH   1  18
ATOM     18  C   UNL     1       9.392  -3.271   3.740  0.00  0.00    +0.186 C 
BRANCH  18  19
ATOM     19  C   UNL     1      10.619  -2.420   3.943  0.00  0.00    +0.328 C 
ATOM     20  O   UNL     1      10.702  -1.342   3.404  0.00  0.00    -0.249 OA
BRANCH  19  22
ATOM     21  C   UNL     1      12.770  -1.985   4.873  0.00  0.00    +0.280 C 
ATOM     22  O   UNL     1      11.619  -2.858   4.723  0.00  0.00    -0.467 OA
ENDBRANCH  19  22
ENDBRANCH  18  19
BRANCH  18  23
ATOM     23  C   UNL     1       8.722  -3.530   5.091  0.00  0.00    +0.071 C 
BRANCH  23  24
ATOM     24  C   UNL     1       7.567  -4.481   4.905  0.00  0.00    -0.020 A 
ATOM     25  C   UNL     1       6.278  -4.148   4.736  0.00  0.00    +0.087 A 
ATOM     26  N   UNL     1       5.519  -5.278   4.597  0.00  0.00    -0.360 N 
ATOM     27  H   UNL     1       4.433  -5.196   4.443  0.00  0.00    +0.165 HD
ATOM     28  C   UNL     1       6.321  -6.394   4.684  0.00  0.00    +0.047 A 
ATOM     29  C   UNL     1       7.639  -5.944   4.880  0.00  0.00    +0.003 A 
ATOM     30  C   UNL     1       8.679  -6.866   5.004  0.00  0.00    +0.010 A 
ATOM     31  C   UNL     1       8.411  -8.205   4.933  0.00  0.00    +0.001 A 
ATOM     32  C   UNL     1       7.112  -8.654   4.740  0.00  0.00    +0.002 A 
ATOM     33  C   UNL     1       6.071  -7.761   4.615  0.00  0.00    +0.026 A 
ENDBRANCH  23  24
ENDBRANCH  18  23
ENDBRANCH   1  18
TORSDOF 9
