REMARK  Name = ZINC39696553
REMARK  13 active torsions:
REMARK  status: ('A' for Active; 'I' for Inactive)
REMARK    1  A    between atoms: C_1  and  C_2
REMARK    2  A    between atoms: C_2  and  C_3
REMARK    3  A    between atoms: C_2  and  C_4
REMARK    4  A    between atoms: C_2  and  S_5
REMARK    5  A    between atoms: S_5  and  C_6
REMARK    6  A    between atoms: C_6  and  C_7
REMARK    7  A    between atoms: C_7  and  N_8
REMARK    8  A    between atoms: C_9  and  C_11
REMARK    9  A    between atoms: C_22  and  C_24
REMARK   10  A    between atoms: C_24  and  C_25
REMARK   11  A    between atoms: C_25  and  C_26
REMARK   12  A    between atoms: C_29  and  O_32
REMARK   13  A    between atoms: O_32  and  C_33
REMARK                            x       y       z     vdW  Elec       q    Type
REMARK                         _______ _______ _______ _____ _____    ______ ____
ROOT
ATOM      1  C   UNL     1       6.994   0.612  -3.300  0.00  0.00    +0.100 C 
ATOM      2  C   UNL     1       7.667   0.150  -1.988  0.00  0.00    +0.121 C 
ATOM      3  N   UNL     1       8.471  -1.033  -2.375  0.00  0.00    -0.300 N 
ATOM      4  C   UNL     1       9.038  -0.676  -3.698  0.00  0.00    +0.115 C 
ATOM      5  C   UNL     1       7.899   0.071  -4.419  0.00  0.00    -0.004 C 
ATOM      6  C   UNL     1       8.463   1.223  -5.246  0.00  0.00    -0.010 C 
ATOM      7  C   UNL     1       9.312   0.658  -6.388  0.00  0.00    -0.082 C 
ATOM      8  N   UNL     1       8.484  -0.216  -7.229  0.00  0.00    +0.379 N 
ATOM      9  C   UNL     1       8.023  -1.371  -6.450  0.00  0.00    -0.082 C 
ATOM     10  C   UNL     1       7.119  -0.891  -5.310  0.00  0.00    -0.010 C 
ATOM     11  C   UNL     1       8.646  -2.176  -1.682  0.00  0.00    +0.216 C 
ATOM     12  O   UNL     1       9.340  -3.060  -2.137  0.00  0.00    -0.276 OA
ATOM     13  H   UNL     1       7.686   0.301  -7.566  0.00  0.00    -0.086 HD
ATOM     14  H   UNL     1       9.029  -0.538  -8.015  0.00  0.00    -0.086 HD
ENDROOT
BRANCH   1  16
ATOM     15  N   UNL     1       4.657   0.680  -4.106  0.00  0.00    -0.314 N 
ATOM     16  C   UNL     1       5.610   0.026  -3.414  0.00  0.00    +0.218 C 
ATOM     17  O   UNL     1       5.355  -1.034  -2.883  0.00  0.00    -0.275 OA
ATOM     18  H   UNL     1       4.861   1.528  -4.531  0.00  0.00    +0.149 HD
BRANCH  15  19
ATOM     19  C   UNL     1       3.312   0.110  -4.218  0.00  0.00    +0.115 C 
BRANCH  19  20
ATOM     20  C   UNL     1       2.429   1.044  -5.049  0.00  0.00    +0.088 C 
BRANCH  20  21
ATOM     21  S   UNL     1       0.764   0.338  -5.187  0.00  0.00    -0.153 S 
BRANCH  21  23
ATOM     22  C   UNL     1       0.535   1.695  -7.551  0.00  0.00    +0.022 C 
ATOM     23  C   UNL     1      -0.144   1.549  -6.187  0.00  0.00    +0.008 C 
ATOM     24  C   UNL     1      -0.148   2.901  -5.472  0.00  0.00    +0.022 C 
ATOM     25  C   UNL     1      -1.584   1.071  -6.383  0.00  0.00    +0.022 C 
ENDBRANCH  21  23
ENDBRANCH  20  21
ENDBRANCH  19  20
ENDBRANCH  15  19
ENDBRANCH   1  16
BRANCH  11  26
ATOM     26  C   UNL     1       7.980  -2.354  -0.342  0.00  0.00    +0.100 C 
BRANCH  26  27
ATOM     27  C   UNL     1       8.340  -3.728   0.227  0.00  0.00    +0.044 C 
BRANCH  27  28
ATOM     28  C   UNL     1       7.674  -3.906   1.567  0.00  0.00    -0.047 A 
ATOM     29  C   UNL     1       8.325  -3.508   2.720  0.00  0.00    +0.007 A 
ATOM     30  C   UNL     1       7.717  -3.671   3.950  0.00  0.00    +0.046 A 
ATOM     31  C   UNL     1       6.452  -4.234   4.027  0.00  0.00    +0.120 A 
ATOM     32  C   UNL     1       5.800  -4.632   2.869  0.00  0.00    +0.046 A 
ATOM     33  C   UNL     1       6.410  -4.463   1.641  0.00  0.00    +0.007 A 
BRANCH  31  34
ATOM     34  O   UNL     1       5.852  -4.396   5.236  0.00  0.00    -0.495 OA
ATOM     35  C   UNL     1       4.549  -4.982   5.240  0.00  0.00    +0.277 C 
ENDBRANCH  31  34
ENDBRANCH  27  28
ENDBRANCH  26  27
ENDBRANCH  11  26
TORSDOF 9
