REMARK  Name = ZINC50566215
REMARK  4 active torsions:
REMARK  status: ('A' for Active; 'I' for Inactive)
REMARK    1  A    between atoms: C_1  and  C_2
REMARK    2  A    between atoms: N_7  and  S_11
REMARK    3  A    between atoms: C_8  and  C_10
REMARK    4  A    between atoms: S_11  and  N_14
REMARK                            x       y       z     vdW  Elec       q    Type
REMARK                         _______ _______ _______ _____ _____    ______ ____
ROOT
ATOM      1  C   UNL     1      -0.019   1.526   0.010  0.00  0.00    +0.009 C 
ATOM      2  C   UNL     1       0.002  -0.004   0.002  0.00  0.00    +0.005 C 
ATOM      3  C   UNL     1      -1.433  -0.534   0.015  0.00  0.00    +0.006 C 
ATOM      4  C   UNL     1      -1.414  -2.064  -0.027  0.00  0.00    +0.017 C 
ATOM      5  C   UNL     1      -0.692  -2.596   1.215  0.00  0.00    +0.111 C 
ATOM      6  N   UNL     1       0.639  -1.977   1.288  0.00  0.00    -0.164 NA
ATOM      7  C   UNL     1       0.742  -0.512   1.244  0.00  0.00    +0.081 C 
ATOM      8  C   UNL     1       0.104   0.084   2.500  0.00  0.00    +0.026 C 
ENDROOT
BRANCH   6   9
ATOM      9  S   UNL     1       1.999  -2.914   1.419  0.00  0.00    +0.095 S 
ATOM     10  O   UNL     1       2.998  -2.098   2.015  0.00  0.00    -0.141 OA
ATOM     11  O   UNL     1       1.587  -4.150   1.986  0.00  0.00    -0.141 OA
BRANCH   9  12
ATOM     12  N   UNL     1       2.514  -3.247  -0.119  0.00  0.00    -0.193 NA
ATOM     13  H   UNL     1       2.024  -2.899  -0.880  0.00  0.00    +0.145 HD
ATOM     14  H   UNL     1       3.306  -3.789  -0.258  0.00  0.00    +0.145 HD
ENDBRANCH   9  12
ENDBRANCH   6   9
TORSDOF 2
