REMARK  Name = ZINC36858342
REMARK  9 active torsions:
REMARK  status: ('A' for Active; 'I' for Inactive)
REMARK    1  A    between atoms: C_1  and  C_2
REMARK    2  A    between atoms: C_5  and  C_9
REMARK    3  A    between atoms: C_7  and  C_8
REMARK    4  A    between atoms: N_16  and  C_33
REMARK    5  A    between atoms: C_17  and  S_19
REMARK    6  A    between atoms: S_19  and  C_20
REMARK    7  A    between atoms: C_20  and  C_21
REMARK    8  A    between atoms: N_23  and  C_24
REMARK    9  A    between atoms: C_29  and  N_30
REMARK                            x       y       z     vdW  Elec       q    Type
REMARK                         _______ _______ _______ _____ _____    ______ ____
ROOT
ATOM      1  C   UNL     1       0.154  -4.275  -0.090  0.00  0.00    +0.004 A 
ATOM      2  C   UNL     1       1.062  -4.959   0.645  0.00  0.00    +0.056 A 
ATOM      3  S   UNL     1       0.667  -6.664   0.305  0.00  0.00    -0.076 S 
ATOM      4  C   UNL     1      -0.695  -6.421  -0.805  0.00  0.00    +0.117 A 
ATOM      5  C   UNL     1      -0.817  -5.023  -0.882  0.00  0.00    +0.080 A 
ATOM      6  C   UNL     1      -1.863  -4.534  -1.724  0.00  0.00    +0.263 A 
ATOM      7  O   UNL     1      -2.039  -3.335  -1.856  0.00  0.00    -0.267 OA
ATOM      8  N   UNL     1      -2.650  -5.413  -2.370  0.00  0.00    -0.290 N 
ATOM      9  C   UNL     1      -2.466  -6.759  -2.235  0.00  0.00    +0.173 A 
ATOM     10  N   UNL     1      -1.503  -7.236  -1.474  0.00  0.00    -0.216 NA
ATOM     11  C   UNL     1      -3.724  -4.917  -3.235  0.00  0.00    +0.154 C 
ENDROOT
BRANCH   1  16
ATOM     12  C   UNL     1       0.107   1.483  -0.069  0.00  0.00    +0.044 C 
ATOM     13  C   UNL     1       0.119  -0.024  -0.074  0.00  0.00    -0.048 A 
ATOM     14  C   UNL     1       0.103  -0.709  -1.276  0.00  0.00    +0.004 A 
ATOM     15  C   UNL     1       0.115  -2.088  -1.288  0.00  0.00    +0.009 A 
ATOM     16  C   UNL     1       0.142  -2.792  -0.084  0.00  0.00    -0.016 A 
ATOM     17  C   UNL     1       0.158  -2.097   1.124  0.00  0.00    +0.012 A 
ATOM     18  C   UNL     1       0.151  -0.717   1.122  0.00  0.00    -0.047 A 
ATOM     19  C   UNL     1       0.174   0.037   2.427  0.00  0.00    +0.044 C 
ENDBRANCH   1  16
BRANCH   9  20
ATOM     20  S   UNL     1      -3.523  -7.872  -3.101  0.00  0.00    -0.078 S 
BRANCH  20  21
ATOM     21  C   UNL     1      -2.915  -9.514  -2.625  0.00  0.00    +0.173 C 
BRANCH  21  22
ATOM     22  C   UNL     1      -3.743 -10.573  -3.306  0.00  0.00    +0.228 C 
ATOM     23  O   UNL     1      -4.654 -10.252  -4.040  0.00  0.00    -0.275 OA
ATOM     24  N   UNL     1      -3.472 -11.877  -3.099  0.00  0.00    -0.283 N 
ATOM     25  H   UNL     1      -2.704 -12.134  -2.565  0.00  0.00    +0.155 HD
BRANCH  24  26
ATOM     26  C   UNL     1      -4.298 -12.860  -3.655  0.00  0.00    +0.064 A 
ATOM     27  C   UNL     1      -4.877 -12.659  -4.902  0.00  0.00    +0.025 A 
ATOM     28  C   UNL     1      -5.691 -13.631  -5.448  0.00  0.00    +0.002 A 
ATOM     29  C   UNL     1      -5.931 -14.804  -4.755  0.00  0.00    +0.002 A 
ATOM     30  C   UNL     1      -5.356 -15.007  -3.514  0.00  0.00    +0.034 A 
ATOM     31  C   UNL     1      -4.536 -14.041  -2.965  0.00  0.00    +0.147 A 
BRANCH  31  32
ATOM     32  N   UNL     1      -3.916 -14.262  -1.639  0.00  0.00    +0.058 N 
ATOM     33  O   UNL     1      -4.043 -15.327  -1.082  0.00  0.00    -0.126 OA
ATOM     34  O   UNL     1      -3.281 -13.377  -1.113  0.00  0.00    -0.126 OA
ENDBRANCH  31  32
ENDBRANCH  24  26
ENDBRANCH  21  22
ENDBRANCH  20  21
ENDBRANCH   9  20
TORSDOF 6
