REMARK  Name = ZINC13137411
REMARK  8 active torsions:
REMARK  status: ('A' for Active; 'I' for Inactive)
REMARK    1  A    between atoms: C_1  and  N_2
REMARK    2  A    between atoms: N_2  and  C_3
REMARK    3  A    between atoms: N_2  and  S_22
REMARK    4  A    between atoms: C_3  and  C_4
REMARK    5  A    between atoms: C_4  and  C_6
REMARK    6  A    between atoms: C_15  and  C_16
REMARK    7  A    between atoms: S_22  and  C_25
REMARK    8  A    between atoms: C_29  and  N_31
REMARK                            x       y       z     vdW  Elec       q    Type
REMARK                         _______ _______ _______ _____ _____    ______ ____
ROOT
ATOM      1  C   UNL     1       0.615   4.600   0.024  0.00  0.00    +0.181 C 
ATOM      2  O   UNL     1       1.033   5.741   0.028  0.00  0.00    -0.291 OA
ENDROOT
BRANCH   1   3
ATOM      3  C   UNL     1       1.521   3.516   0.008  0.00  0.00    +0.052 A 
ATOM      4  C   UNL     1       1.184   2.080   0.002  0.00  0.00    +0.011 A 
ATOM      5  C   UNL     1      -0.017   1.374   0.010  0.00  0.00    +0.011 A 
ATOM      6  C   UNL     1       0.002  -0.004   0.002  0.00  0.00    +0.001 A 
ATOM      7  C   UNL     1       1.210  -0.687  -0.014  0.00  0.00    +0.002 A 
ATOM      8  C   UNL     1       2.404  -0.001  -0.021  0.00  0.00    +0.026 A 
ATOM      9  C   UNL     1       2.407   1.391  -0.013  0.00  0.00    +0.048 A 
ATOM     10  N   UNL     1       3.424   2.326  -0.017  0.00  0.00    -0.354 N 
ATOM     11  H   UNL     1       4.370   2.113  -0.028  0.00  0.00    +0.166 HD
ATOM     12  C   UNL     1       2.912   3.588  -0.005  0.00  0.00    +0.058 A 
BRANCH  12  13
ATOM     13  C   UNL     1       3.705   4.832  -0.004  0.00  0.00    -0.001 A 
ATOM     14  C   UNL     1       3.366   5.880   0.856  0.00  0.00    +0.010 A 
ATOM     15  C   UNL     1       4.115   7.038   0.856  0.00  0.00    +0.001 A 
ATOM     16  C   UNL     1       5.193   7.168  -0.002  0.00  0.00    +0.000 A 
ATOM     17  C   UNL     1       5.530   6.137  -0.862  0.00  0.00    +0.001 A 
ATOM     18  C   UNL     1       4.794   4.971  -0.868  0.00  0.00    +0.010 A 
ENDBRANCH  12  13
ENDBRANCH   1   3
BRANCH   1  19
ATOM     19  C   UNL     1      -0.870   4.342   0.036  0.00  0.00    +0.188 C 
BRANCH  19  21
ATOM     20  C   UNL     1      -1.862   6.320  -1.205  0.00  0.00    +0.132 C 
ATOM     21  N   UNL     1      -1.587   5.619   0.052  0.00  0.00    -0.172 NA
BRANCH  21  22
ATOM     22  S   UNL     1      -2.089   6.269   1.490  0.00  0.00    +0.061 S 
ATOM     23  O   UNL     1      -3.177   7.131   1.188  0.00  0.00    -0.153 OA
ATOM     24  O   UNL     1      -2.203   5.189   2.406  0.00  0.00    -0.153 OA
BRANCH  22  25
ATOM     25  C   UNL     1      -0.783   7.295   2.081  0.00  0.00    +0.108 A 
ATOM     26  C   UNL     1       0.194   6.765   2.903  0.00  0.00    +0.030 A 
ATOM     27  C   UNL     1       1.220   7.568   3.362  0.00  0.00    +0.024 A 
ATOM     28  C   UNL     1       1.265   8.905   3.009  0.00  0.00    +0.071 A 
ATOM     29  C   UNL     1       0.284   9.436   2.190  0.00  0.00    +0.146 A 
ATOM     30  C   UNL     1      -0.740   8.630   1.727  0.00  0.00    +0.062 A 
ATOM     31 CL   UNL     1       2.551   9.915   3.591  0.00  0.00    -0.081 Cl
BRANCH  29  32
ATOM     32  N   UNL     1       0.331  10.865   1.811  0.00  0.00    +0.058 N 
ATOM     33  O   UNL     1      -0.533  11.333   1.090  0.00  0.00    -0.126 OA
ATOM     34  O   UNL     1       1.232  11.575   2.219  0.00  0.00    -0.126 OA
ENDBRANCH  29  32
ENDBRANCH  22  25
ENDBRANCH  21  22
ENDBRANCH  19  21
ENDBRANCH   1  19
TORSDOF 7
