REMARK  Name = ZINC64120727
REMARK  4 active torsions:
REMARK  status: ('A' for Active; 'I' for Inactive)
REMARK    1  A    between atoms: C_6  and  C_11
REMARK    2  A    between atoms: C_14  and  N_17
REMARK    3  A    between atoms: C_18  and  C_20
REMARK    4  A    between atoms: C_26  and  C_28
REMARK                            x       y       z     vdW  Elec       q    Type
REMARK                         _______ _______ _______ _____ _____    ______ ____
ROOT
ATOM      1  N   UNL     1       4.449  -5.132  -4.332  0.00  0.00    -0.285 N 
ATOM      2  C   UNL     1       5.113  -6.305  -4.342  0.00  0.00    +0.220 C 
ATOM      3  O   UNL     1       5.180  -6.972  -3.332  0.00  0.00    -0.275 OA
ATOM      4  H   UNL     1       4.332  -4.634  -5.156  0.00  0.00    +0.155 HD
ENDROOT
BRANCH   2   5
ATOM      5  C   UNL     1       5.772  -6.787  -5.609  0.00  0.00    +0.078 C 
ATOM      6  C   UNL     1       4.715  -6.950  -6.704  0.00  0.00    +0.032 C 
ATOM      7  C   UNL     1       5.393  -7.407  -7.999  0.00  0.00    +0.108 C 
ATOM      8  N   UNL     1       6.168  -8.624  -7.723  0.00  0.00    -0.299 N 
ATOM      9  C   UNL     1       7.149  -8.603  -6.630  0.00  0.00    +0.108 C 
ATOM     10  C   UNL     1       6.452  -8.133  -5.350  0.00  0.00    +0.032 C 
ATOM     11  C   UNL     1       5.983  -9.738  -8.459  0.00  0.00    +0.244 C 
ATOM     12  O   UNL     1       6.568 -10.760  -8.169  0.00  0.00    -0.273 OA
BRANCH  11  13
ATOM     13  C   UNL     1       5.048  -9.713  -9.641  0.00  0.00    +0.204 C 
ATOM     14  C   UNL     1       5.638  -8.824 -10.739  0.00  0.00    +0.041 C 
ATOM     15  C   UNL     1       4.713  -8.852 -11.960  0.00  0.00    +0.005 C 
ATOM     16  C   UNL     1       4.535 -10.303 -12.419  0.00  0.00    +0.028 C 
ATOM     17  C   UNL     1       3.988 -11.135 -11.256  0.00  0.00    +0.161 C 
ATOM     18  O   UNL     1       4.880 -11.040 -10.143  0.00  0.00    -0.367 OA
ENDBRANCH  11  13
ENDBRANCH   2   5
BRANCH   1  22
ATOM     19  C   UNL     1       2.894  -3.648  -0.763  0.00  0.00    -0.021 A 
ATOM     20  C   UNL     1       4.069  -4.378  -0.754  0.00  0.00    +0.008 A 
ATOM     21  C   UNL     1       4.587  -4.871  -1.935  0.00  0.00    +0.023 A 
ATOM     22  C   UNL     1       3.926  -4.634  -3.134  0.00  0.00    +0.033 A 
ATOM     23  C   UNL     1       2.747  -3.901  -3.140  0.00  0.00    +0.023 A 
ATOM     24  C   UNL     1       2.232  -3.415  -1.954  0.00  0.00    +0.008 A 
BRANCH  19  30
ATOM     25  C   UNL     1       4.870  -2.042   4.265  0.00  0.00    +0.001 A 
ATOM     26  C   UNL     1       4.478  -3.348   4.590  0.00  0.00    +0.002 A 
ATOM     27  C   UNL     1       3.701  -4.100   3.782  0.00  0.00    +0.026 A 
ATOM     28  C   UNL     1       3.241  -3.579   2.541  0.00  0.00    +0.043 A 
ATOM     29  N   UNL     1       2.493  -4.100   1.599  0.00  0.00    -0.374 N 
ATOM     30  C   UNL     1       2.332  -3.111   0.528  0.00  0.00    +0.133 C 
ATOM     31  C   UNL     1       3.110  -1.892   0.969  0.00  0.00    +0.012 C 
ATOM     32  C   UNL     1       3.641  -2.202   2.174  0.00  0.00    -0.004 A 
ATOM     33  C   UNL     1       4.487  -1.452   3.110  0.00  0.00    +0.010 A 
ATOM     34  H   UNL     1       2.109  -4.991   1.609  0.00  0.00    +0.161 HD
ENDBRANCH  19  30
ENDBRANCH   1  22
TORSDOF 4
