REMARK  Name = ZINC03299919
REMARK  10 active torsions:
REMARK  status: ('A' for Active; 'I' for Inactive)
REMARK    1  A    between atoms: C_1  and  C_2
REMARK    2  A    between atoms: C_5  and  C_8
REMARK    3  A    between atoms: C_11  and  S_14
REMARK    4  A    between atoms: N_12  and  N_13
REMARK    5  A    between atoms: S_14  and  C_15
REMARK    6  A    between atoms: C_15  and  C_17
REMARK    7  A    between atoms: C_15  and  C_18
REMARK    8  A    between atoms: N_20  and  C_21
REMARK    9  A    between atoms: C_24  and  N_27
REMARK   10  A    between atoms: C_28  and  C_30
REMARK                            x       y       z     vdW  Elec       q    Type
REMARK                         _______ _______ _______ _____ _____    ______ ____
ROOT
ATOM      1  C   UNL     1      -5.796   5.811   0.880  0.00  0.00    +0.137 C 
ATOM      2  C   UNL     1      -6.223   5.889   2.348  0.00  0.00    +0.029 C 
ENDROOT
BRANCH   1   3
ATOM      3  C   UNL     1      -4.468   5.105   0.781  0.00  0.00    +0.230 C 
ATOM      4  O   UNL     1      -3.440   5.749   0.745  0.00  0.00    -0.274 OA
ATOM      5  N   UNL     1      -4.422   3.759   0.732  0.00  0.00    -0.285 N 
ATOM      6  H   UNL     1      -5.237   3.242   0.828  0.00  0.00    +0.155 HD
BRANCH   5   7
ATOM      7  C   UNL     1      -3.197   3.107   0.542  0.00  0.00    +0.034 A 
ATOM      8  C   UNL     1      -3.143   1.935  -0.201  0.00  0.00    +0.025 A 
ATOM      9  C   UNL     1      -1.935   1.292  -0.389  0.00  0.00    +0.025 A 
ATOM     10  C   UNL     1      -0.775   1.817   0.166  0.00  0.00    +0.033 A 
ATOM     11  C   UNL     1      -0.831   2.986   0.914  0.00  0.00    +0.025 A 
ATOM     12  C   UNL     1      -2.037   3.632   1.097  0.00  0.00    +0.025 A 
BRANCH  10  13
ATOM     13  N   UNL     1       0.450   1.165  -0.025  0.00  0.00    -0.286 N 
ATOM     14  C   UNL     1       0.704   0.536  -1.189  0.00  0.00    +0.214 C 
ATOM     15  O   UNL     1      -0.156   0.467  -2.042  0.00  0.00    -0.276 OA
ATOM     16  C   UNL     1       2.057  -0.081  -1.432  0.00  0.00    +0.109 C 
ATOM     17  H   UNL     1       1.113   1.163   0.683  0.00  0.00    +0.155 HD
ENDBRANCH  10  13
ENDBRANCH   5   7
ENDBRANCH   1   3
BRANCH   1  18
ATOM     18  S   UNL     1      -5.642   7.484   0.207  0.00  0.00    -0.072 S 
BRANCH  18  22
ATOM     19  C   UNL     1      -9.164   9.175   0.183  0.00  0.00    +0.182 A 
ATOM     20  N   UNL     1      -9.417   7.990   0.687  0.00  0.00    -0.127 NA
ATOM     21  N   UNL     1      -8.333   7.303   0.759  0.00  0.00    -0.121 NA
ATOM     22  C   UNL     1      -7.321   8.008   0.304  0.00  0.00    +0.209 A 
ATOM     23  N   UNL     1      -7.813   9.225  -0.072  0.00  0.00    -0.224 N 
BRANCH  19  28
ATOM     24  C   UNL     1     -12.981  13.378  -0.758  0.00  0.00    +0.044 C 
ATOM     25  C   UNL     1     -11.982  12.277  -0.512  0.00  0.00    -0.050 A 
ATOM     26  C   UNL     1     -12.320  11.208   0.299  0.00  0.00    +0.004 A 
ATOM     27  C   UNL     1     -11.410  10.197   0.529  0.00  0.00    +0.012 A 
ATOM     28  C   UNL     1     -10.145  10.255  -0.059  0.00  0.00    +0.021 A 
ATOM     29  C   UNL     1      -9.808  11.338  -0.872  0.00  0.00    +0.012 A 
ATOM     30  C   UNL     1     -10.729  12.340  -1.097  0.00  0.00    +0.004 A 
ENDBRANCH  19  28
BRANCH  23  31
ATOM     31  N   UNL     1      -7.110  10.274  -0.595  0.00  0.00    -0.295 N 
ATOM     32  H   UNL     1      -7.078  10.221  -1.602  0.00  0.00    +0.163 HD
ATOM     33  H   UNL     1      -7.496  11.155  -0.291  0.00  0.00    +0.163 HD
ENDBRANCH  23  31
ENDBRANCH  18  22
ENDBRANCH   1  18
TORSDOF 7
