REMARK  Name = ZINC22993234
REMARK  6 active torsions:
REMARK  status: ('A' for Active; 'I' for Inactive)
REMARK    1  A    between atoms: C_3  and  C_8
REMARK    2  A    between atoms: N_10  and  C_11
REMARK    3  A    between atoms: C_13  and  S_18
REMARK    4  A    between atoms: C_16  and  O_17
REMARK    5  A    between atoms: S_18  and  N_21
REMARK    6  A    between atoms: N_21  and  C_22
REMARK                            x       y       z     vdW  Elec       q    Type
REMARK                         _______ _______ _______ _____ _____    ______ ____
ROOT
ATOM      1  C   UNL     1       0.891  -0.561  -0.290  0.00  0.00    +0.077 A 
ATOM      2  C   UNL     1       2.129   0.060  -0.209  0.00  0.00    +0.055 A 
ATOM      3  C   UNL     1       2.206   1.437  -0.117  0.00  0.00    +0.110 A 
ATOM      4  C   UNL     1       1.052   2.198  -0.105  0.00  0.00    +0.032 A 
ATOM      5  C   UNL     1      -0.185   1.586  -0.186  0.00  0.00    +0.049 A 
ATOM      6  C   UNL     1      -0.271   0.206  -0.279  0.00  0.00    +0.138 A 
ENDROOT
BRANCH   1   9
ATOM      7  C   UNL     1       1.759  -2.643  -1.051  0.00  0.00    +0.248 C 
ATOM      8  O   UNL     1       2.728  -2.062  -1.500  0.00  0.00    -0.270 OA
ATOM      9  N   UNL     1       0.811  -1.956  -0.383  0.00  0.00    -0.279 N 
ATOM     10  H   UNL     1      -0.026  -2.491   0.089  0.00  0.00    +0.155 HD
BRANCH   7  13
ATOM     11  C   UNL     1       2.465  -6.179  -2.103  0.00  0.00    +0.004 A 
ATOM     12  C   UNL     1       2.600  -4.816  -1.931  0.00  0.00    +0.013 A 
ATOM     13  C   UNL     1       1.620  -4.102  -1.239  0.00  0.00    +0.040 A 
ATOM     14  C   UNL     1       0.511  -4.773  -0.721  0.00  0.00    +0.051 A 
ATOM     15  C   UNL     1       0.386  -6.137  -0.904  0.00  0.00    +0.124 A 
ATOM     16  C   UNL     1       1.363  -6.839  -1.592  0.00  0.00    +0.038 A 
ATOM     17  F   UNL     1      -0.688  -6.788  -0.407  0.00  0.00    -0.205 F 
ENDBRANCH   7  13
ENDBRANCH   1   9
BRANCH   3  18
ATOM     18  S   UNL     1       3.779   2.225  -0.014  0.00  0.00    +0.072 S 
ATOM     19  O   UNL     1       3.583   3.429   0.715  0.00  0.00    -0.150 OA
ATOM     20  O   UNL     1       4.706   1.229   0.396  0.00  0.00    -0.150 OA
BRANCH  18  21
ATOM     21  N   UNL     1       4.207   2.666  -1.551  0.00  0.00    -0.216 N 
ATOM     22  H   UNL     1       5.089   2.213  -2.028  0.00  0.00    +0.174 HD
BRANCH  21  23
ATOM     23  C   UNL     1       3.449   3.613  -2.243  0.00  0.00    +0.049 A 
ATOM     24  C   UNL     1       3.552   4.960  -1.918  0.00  0.00    +0.024 A 
ATOM     25  C   UNL     1       2.801   5.895  -2.603  0.00  0.00    +0.003 A 
ATOM     26  C   UNL     1       1.947   5.492  -3.613  0.00  0.00    +0.020 A 
ATOM     27  C   UNL     1       1.841   4.151  -3.941  0.00  0.00    +0.043 A 
ATOM     28  C   UNL     1       2.594   3.212  -3.261  0.00  0.00    +0.044 A 
ATOM     29 CL   UNL     1       0.768   3.650  -5.210  0.00  0.00    -0.083 Cl
ENDBRANCH  21  23
ENDBRANCH  18  21
ENDBRANCH   3  18
BRANCH   6  30
ATOM     30  O   UNL     1      -1.487  -0.397  -0.357  0.00  0.00    -0.505 OA
ATOM     31  H   UNL     1      -2.404   0.210  -0.348  0.00  0.00    +0.292 HD
ENDBRANCH   6  30
TORSDOF 6
