REMARK  Name = ZINC08437699
REMARK  9 active torsions:
REMARK  status: ('A' for Active; 'I' for Inactive)
REMARK    1  A    between atoms: C_1  and  C_2
REMARK    2  A    between atoms: C_5  and  C_8
REMARK    3  A    between atoms: C_8  and  C_10
REMARK    4  A    between atoms: C_11  and  N_37
REMARK    5  A    between atoms: N_12  and  C_30
REMARK    6  A    between atoms: C_15  and  C_17
REMARK    7  A    between atoms: C_20  and  S_23
REMARK    8  A    between atoms: S_23  and  C_24
REMARK    9  A    between atoms: C_35  and  C_36
REMARK                            x       y       z     vdW  Elec       q    Type
REMARK                         _______ _______ _______ _____ _____    ______ ____
ROOT
ATOM      1  C   UNL     1       0.001  -4.899  -1.302  0.00  0.00    +0.048 C 
ATOM      2  C   UNL     1      -0.070  -6.266  -1.418  0.00  0.00    +0.100 C 
ATOM      3  N   UNL     1      -0.118  -6.846  -2.662  0.00  0.00    -0.260 N 
ATOM      4  C   UNL     1       0.300  -6.154  -3.770  0.00  0.00    +0.024 C 
ATOM      5  C   UNL     1       0.385  -4.808  -3.752  0.00  0.00    +0.024 C 
ATOM      6  C   UNL     1       0.013  -4.021  -2.519  0.00  0.00    +0.091 C 
ATOM      7  C   UNL     1       0.813  -4.094  -4.886  0.00  0.00    +0.162 C 
ATOM      8  O   UNL     1       0.897  -2.883  -4.832  0.00  0.00    -0.292 OA
ATOM      9  C   UNL     1       1.168  -4.801  -6.166  0.00  0.00    +0.080 C 
ATOM     10  C   UNL     1       0.368  -6.105  -6.253  0.00  0.00    +0.014 C 
ATOM     11  C   UNL     1       0.667  -6.940  -5.006  0.00  0.00    +0.052 C 
ENDROOT
BRANCH   3  12
ATOM     12  C   UNL     1      -0.596  -8.154  -2.800  0.00  0.00    +0.042 A 
ATOM     13  C   UNL     1      -1.948  -8.380  -3.024  0.00  0.00    +0.024 A 
ATOM     14  C   UNL     1      -2.417  -9.672  -3.161  0.00  0.00    +0.002 A 
ATOM     15  C   UNL     1      -1.542 -10.740  -3.074  0.00  0.00    +0.000 A 
ATOM     16  C   UNL     1      -0.196 -10.518  -2.851  0.00  0.00    +0.005 A 
ATOM     17  C   UNL     1       0.281  -9.228  -2.719  0.00  0.00    -0.029 A 
ATOM     18  C   UNL     1       1.749  -8.986  -2.483  0.00  0.00    +0.045 C 
ENDBRANCH   3  12
BRANCH   6  19
ATOM     19  C   UNL     1      -1.355  -3.417  -2.706  0.00  0.00    -0.035 A 
ATOM     20  C   UNL     1      -2.440  -4.234  -2.967  0.00  0.00    +0.005 A 
ATOM     21  C   UNL     1      -3.696  -3.685  -3.135  0.00  0.00    +0.015 A 
ATOM     22  C   UNL     1      -3.867  -2.308  -3.051  0.00  0.00    +0.008 A 
ATOM     23  C   UNL     1      -2.773  -1.490  -2.794  0.00  0.00    +0.015 A 
ATOM     24  C   UNL     1      -1.522  -2.047  -2.622  0.00  0.00    +0.005 A 
BRANCH  22  25
ATOM     25  S   UNL     1      -5.466  -1.602  -3.271  0.00  0.00    -0.129 S 
ATOM     26  C   UNL     1      -6.539  -3.032  -3.575  0.00  0.00    +0.090 C 
ENDBRANCH  22  25
ENDBRANCH   6  19
BRANCH   2  27
ATOM     27  N   UNL     1      -0.095  -7.050  -0.294  0.00  0.00    -0.346 N 
ATOM     28  H   UNL     1      -0.144  -6.638   0.583  0.00  0.00    +0.143 HD
ATOM     29  H   UNL     1      -0.062  -8.015  -0.376  0.00  0.00    +0.143 HD
ENDBRANCH   2  27
BRANCH   1  30
ATOM     30  C   UNL     1       0.057  -4.315  -0.028  0.00  0.00    +0.193 C 
ATOM     31  O   UNL     1      -0.902  -4.394   0.722  0.00  0.00    -0.287 OA
BRANCH  30  36
ATOM     32  C   UNL     1       4.812  -1.543   1.661  0.00  0.00    +0.044 C 
ATOM     33  C   UNL     1       3.567  -2.269   1.219  0.00  0.00    -0.050 A 
ATOM     34  C   UNL     1       3.545  -2.918  -0.003  0.00  0.00    +0.004 A 
ATOM     35  C   UNL     1       2.410  -3.589  -0.410  0.00  0.00    +0.012 A 
ATOM     36  C   UNL     1       1.280  -3.602   0.407  0.00  0.00    +0.022 A 
ATOM     37  C   UNL     1       1.307  -2.941   1.635  0.00  0.00    +0.012 A 
ATOM     38  C   UNL     1       2.449  -2.279   2.034  0.00  0.00    +0.004 A 
ENDBRANCH  30  36
ENDBRANCH   1  30
TORSDOF 6
