REMARK  Name = ZINC10266852
REMARK  8 active torsions:
REMARK  status: ('A' for Active; 'I' for Inactive)
REMARK    1  A    between atoms: C_1  and  C_2
REMARK    2  A    between atoms: C_4  and  C_25
REMARK    3  A    between atoms: C_6  and  S_10
REMARK    4  A    between atoms: C_7  and  C_8
REMARK    5  A    between atoms: S_10  and  C_11
REMARK    6  A    between atoms: C_11  and  C_12
REMARK    7  A    between atoms: C_21  and  O_24
REMARK    8  A    between atoms: C_22  and  C_23
REMARK                            x       y       z     vdW  Elec       q    Type
REMARK                         _______ _______ _______ _____ _____    ______ ____
ROOT
ATOM      1  C   UNL     1      -2.505   1.036   0.019  0.00  0.00    -0.020 A 
ATOM      2  C   UNL     1      -3.655   1.758   0.028  0.00  0.00    +0.097 A 
ATOM      3  C   UNL     1      -3.599   3.167   0.035  0.00  0.00    +0.338 A 
ATOM      4  O   UNL     1      -4.638   3.803   0.044  0.00  0.00    -0.245 OA
ATOM      5  O   UNL     1      -2.429   3.826   0.046  0.00  0.00    -0.422 OA
ATOM      6  C   UNL     1      -1.250   3.169   0.032  0.00  0.00    +0.146 A 
ATOM      7  C   UNL     1      -1.232   1.761   0.018  0.00  0.00    +0.022 A 
ATOM      8  C   UNL     1      -0.013   1.076   0.008  0.00  0.00    +0.015 A 
ATOM      9  C   UNL     1       1.159   1.776   0.001  0.00  0.00    +0.046 A 
ATOM     10  C   UNL     1       1.148   3.170   0.008  0.00  0.00    +0.123 A 
ATOM     11  C   UNL     1      -0.051   3.864   0.023  0.00  0.00    +0.034 A 
ATOM     12  C   UNL     1      -0.051   5.371   0.032  0.00  0.00    +0.051 C 
ENDROOT
BRANCH  10  13
ATOM     13  O   UNL     1       2.321   3.852  -0.000  0.00  0.00    -0.506 OA
ATOM     14  H   UNL     1       2.653   4.054  -0.886  0.00  0.00    +0.292 HD
ENDBRANCH  10  13
BRANCH   1  15
ATOM     15  C   UNL     1      -2.537  -0.471   0.010  0.00  0.00    +0.112 C 
BRANCH  15  16
ATOM     16  S   UNL     1      -2.542  -1.084   1.713  0.00  0.00    -0.100 S 
BRANCH  16  22
ATOM     17  C   UNL     1      -2.639  -6.093   3.359  0.00  0.00    +0.045 C 
ATOM     18  C   UNL     1      -2.624  -5.091   2.233  0.00  0.00    -0.029 A 
ATOM     19  C   UNL     1      -2.639  -5.507   0.913  0.00  0.00    +0.027 A 
ATOM     20  C   UNL     1      -2.624  -4.564  -0.099  0.00  0.00    +0.040 A 
ATOM     21  N   UNL     1      -2.596  -3.273   0.169  0.00  0.00    -0.244 NA
ATOM     22  C   UNL     1      -2.580  -2.820   1.413  0.00  0.00    +0.115 A 
ATOM     23  C   UNL     1      -2.588  -3.717   2.497  0.00  0.00    +0.086 A 
ATOM     24  C   UNL     1      -2.641  -5.021  -1.535  0.00  0.00    +0.065 C 
BRANCH  23  25
ATOM     25  C   UNL     1      -2.566  -3.233   3.844  0.00  0.00    +0.102 C 
ATOM     26  N   UNL     1      -2.548  -2.850   4.913  0.00  0.00    -0.191 NA
ENDBRANCH  23  25
ENDBRANCH  16  22
ENDBRANCH  15  16
ENDBRANCH   1  15
TORSDOF 5
