REMARK  Name = ZINC19458196
REMARK  5 active torsions:
REMARK  status: ('A' for Active; 'I' for Inactive)
REMARK    1  A    between atoms: C_1  and  C_2
REMARK    2  A    between atoms: C_2  and  C_4
REMARK    3  A    between atoms: C_2  and  N_20
REMARK    4  A    between atoms: C_11  and  C_13
REMARK    5  A    between atoms: C_21  and  C_23
REMARK                            x       y       z     vdW  Elec       q    Type
REMARK                         _______ _______ _______ _____ _____    ______ ____
ROOT
ATOM      1  C   UNL     1      -0.019   1.526   0.010  0.00  0.00    +0.034 C 
ATOM      2  C   UNL     1       0.002  -0.004   0.002  0.00  0.00    +0.117 C 
ENDROOT
BRANCH   2   3
ATOM      3  C   UNL     1      -1.412  -0.526   0.013  0.00  0.00    +0.043 A 
ATOM      4  C   UNL     1      -1.867  -1.225   1.077  0.00  0.00    +0.095 A 
ATOM      5  C   UNL     1      -3.190  -1.711   1.084  0.00  0.00    +0.275 A 
ATOM      6  N   UNL     1      -3.995  -1.476   0.029  0.00  0.00    -0.180 N 
ATOM      7  C   UNL     1      -3.529  -0.770  -1.042  0.00  0.00    +0.138 A 
ATOM      8  N   UNL     1      -2.234  -0.288  -1.047  0.00  0.00    -0.342 N 
ATOM      9  C   UNL     1      -4.544  -0.687  -1.947  0.00  0.00    +0.071 A 
ATOM     10  C   UNL     1      -5.648  -1.356  -1.416  0.00  0.00    +0.069 A 
ATOM     11  N   UNL     1      -5.324  -1.828  -0.238  0.00  0.00    -0.167 NA
ATOM     12  O   UNL     1      -3.604  -2.342   2.040  0.00  0.00    -0.266 OA
ATOM     13  H   UNL     1      -1.908   0.217  -1.809  0.00  0.00    +0.167 HD
BRANCH  10  14
ATOM     14  C   UNL     1      -6.989  -1.510  -2.087  0.00  0.00    +0.044 C 
ATOM     15  C   UNL     1      -6.793  -1.644  -3.600  0.00  0.00    +0.038 C 
ATOM     16  C   UNL     1      -8.162  -1.720  -4.279  0.00  0.00    +0.160 C 
ATOM     17  O   UNL     1      -8.923  -0.557  -3.948  0.00  0.00    -0.380 OA
ATOM     18  C   UNL     1      -9.178  -0.405  -2.551  0.00  0.00    +0.160 C 
ATOM     19  C   UNL     1      -7.849  -0.275  -1.802  0.00  0.00    +0.038 C 
ENDBRANCH  10  14
ENDBRANCH   2   3
BRANCH   2  20
ATOM     20  N   UNL     1       0.688  -0.476  -1.203  0.00  0.00    -0.302 N 
ATOM     21  C   UNL     1       2.031  -0.587  -1.215  0.00  0.00    +0.261 C 
ATOM     22  O   UNL     1       2.674  -0.294  -0.225  0.00  0.00    -0.269 OA
ATOM     23  H   UNL     1       0.175  -0.710  -1.993  0.00  0.00    +0.150 HD
BRANCH  21  24
ATOM     24  C   UNL     1       2.719  -1.061  -2.424  0.00  0.00    +0.103 A 
ATOM     25  C   UNL     1       4.062  -1.219  -2.556  0.00  0.00    +0.040 A 
ATOM     26  C   UNL     1       4.315  -1.692  -3.866  0.00  0.00    +0.001 A 
ATOM     27  C   UNL     1       5.486  -2.029  -4.558  0.00  0.00    +0.013 A 
ATOM     28  C   UNL     1       5.411  -2.467  -5.847  0.00  0.00    +0.039 A 
ATOM     29  C   UNL     1       4.180  -2.583  -6.485  0.00  0.00    +0.125 A 
ATOM     30  C   UNL     1       3.014  -2.257  -5.825  0.00  0.00    +0.064 A 
ATOM     31  C   UNL     1       3.067  -1.809  -4.509  0.00  0.00    +0.050 A 
ATOM     32  N   UNL     1       2.102  -1.423  -3.607  0.00  0.00    -0.350 N 
ATOM     33  H   UNL     1       1.147  -1.405  -3.775  0.00  0.00    +0.166 HD
ATOM     34  F   UNL     1       4.127  -3.018  -7.763  0.00  0.00    -0.205 F 
ENDBRANCH  21  24
ENDBRANCH   2  20
TORSDOF 4
