REMARK  Name = ZINC36586838
REMARK  15 active torsions:
REMARK  status: ('A' for Active; 'I' for Inactive)
REMARK    1  A    between atoms: C_1  and  C_2
REMARK    2  A    between atoms: C_2  and  C_3
REMARK    3  A    between atoms: C_3  and  C_4
REMARK    4  A    between atoms: C_4  and  N_5
REMARK    5  A    between atoms: C_6  and  C_8
REMARK    6  A    between atoms: C_8  and  C_10
REMARK    7  A    between atoms: C_8  and  N_17
REMARK    8  A    between atoms: C_13  and  C_16
REMARK    9  A    between atoms: N_17  and  C_28
REMARK   10  A    between atoms: C_18  and  C_20
REMARK   11  A    between atoms: C_21  and  O_27
REMARK   12  A    between atoms: C_25  and  O_26
REMARK   13  A    between atoms: C_28  and  C_29
REMARK   14  A    between atoms: C_28  and  C_30
REMARK   15  A    between atoms: C_28  and  C_31
REMARK                            x       y       z     vdW  Elec       q    Type
REMARK                         _______ _______ _______ _____ _____    ______ ____
ROOT
ATOM      1  N   UNL     1       2.887  -5.223  -3.293  0.00  0.00    -0.277 N 
ATOM      2  C   UNL     1       1.555  -5.057  -3.171  0.00  0.00    +0.255 C 
ATOM      3  O   UNL     1       1.054  -3.973  -3.400  0.00  0.00    -0.270 OA
ENDROOT
BRANCH   2   4
ATOM      4  C   UNL     1       0.707  -6.188  -2.760  0.00  0.00    +0.119 A 
ATOM      5  C   UNL     1       0.453  -6.424  -1.401  0.00  0.00    +0.133 A 
ATOM      6  C   UNL     1      -0.347  -7.491  -1.026  0.00  0.00    +0.046 A 
ATOM      7  C   UNL     1      -0.895  -8.322  -1.986  0.00  0.00    +0.007 A 
ATOM      8  C   UNL     1      -0.651  -8.098  -3.328  0.00  0.00    +0.046 A 
ATOM      9  C   UNL     1       0.141  -7.034  -3.726  0.00  0.00    +0.133 A 
BRANCH   9  10
ATOM     10  O   UNL     1       0.374  -6.814  -5.044  0.00  0.00    -0.506 OA
ATOM     11  H   UNL     1       1.154  -7.270  -5.387  0.00  0.00    +0.292 HD
ENDBRANCH   9  10
BRANCH   5  12
ATOM     12  O   UNL     1       0.990  -5.611  -0.457  0.00  0.00    -0.506 OA
ATOM     13  H   UNL     1       0.432  -4.855  -0.227  0.00  0.00    +0.292 HD
ENDBRANCH   5  12
ENDBRANCH   2   4
BRANCH   1  14
ATOM     14  C   UNL     1       3.499  -6.510  -2.952  0.00  0.00    +0.030 C 
ATOM     15  C   UNL     1       5.020  -6.397  -3.065  0.00  0.00    +0.031 C 
ATOM     16  C   UNL     1       3.121  -6.891  -1.519  0.00  0.00    +0.031 C 
ATOM     17  C   UNL     1       2.994  -7.586  -3.916  0.00  0.00    +0.031 C 
ENDBRANCH   1  14
BRANCH   1  18
ATOM     18  C   UNL     1       3.723  -4.118  -3.767  0.00  0.00    +0.193 C 
BRANCH  18  19
ATOM     19  C   UNL     1       3.485  -3.904  -5.240  0.00  0.00    -0.018 A 
ATOM     20  C   UNL     1       2.277  -4.268  -5.805  0.00  0.00    +0.006 A 
ATOM     21  C   UNL     1       2.059  -4.072  -7.156  0.00  0.00    +0.004 A 
ATOM     22  C   UNL     1       3.049  -3.511  -7.941  0.00  0.00    -0.050 A 
ATOM     23  C   UNL     1       4.257  -3.146  -7.376  0.00  0.00    +0.004 A 
ATOM     24  C   UNL     1       4.473  -3.338  -6.024  0.00  0.00    +0.006 A 
ATOM     25  C   UNL     1       2.812  -3.298  -9.414  0.00  0.00    +0.044 C 
ENDBRANCH  18  19
BRANCH  18  27
ATOM     26  N   UNL     1       3.872  -1.675  -3.407  0.00  0.00    -0.313 N 
ATOM     27  C   UNL     1       3.369  -2.862  -3.013  0.00  0.00    +0.238 C 
ATOM     28  O   UNL     1       2.631  -2.919  -2.052  0.00  0.00    -0.273 OA
ATOM     29  H   UNL     1       4.461  -1.629  -4.176  0.00  0.00    +0.149 HD
BRANCH  26  30
ATOM     30  C   UNL     1       3.527  -0.454  -2.675  0.00  0.00    +0.104 C 
BRANCH  30  31
ATOM     31  C   UNL     1       4.225   0.744  -3.323  0.00  0.00    +0.018 C 
BRANCH  31  33
ATOM     32  C   UNL     1       4.562   3.216  -3.207  0.00  0.00    +0.004 C 
ATOM     33  C   UNL     1       3.865   2.019  -2.558  0.00  0.00    -0.002 C 
ENDBRANCH  31  33
ENDBRANCH  30  31
ENDBRANCH  26  30
ENDBRANCH  18  27
ENDBRANCH   1  18
TORSDOF 10
