REMARK  Name = ZINC63389913
REMARK  5 active torsions:
REMARK  status: ('A' for Active; 'I' for Inactive)
REMARK    1  A    between atoms: N_4  and  C_6
REMARK    2  A    between atoms: C_12  and  C_13
REMARK    3  A    between atoms: N_15  and  C_16
REMARK    4  A    between atoms: C_16  and  C_17
REMARK    5  A    between atoms: C_17  and  C_18
REMARK                            x       y       z     vdW  Elec       q    Type
REMARK                         _______ _______ _______ _____ _____    ______ ____
ROOT
ATOM      1  C   UNL     1      -0.407  -4.704  -2.142  0.00  0.00    +0.238 C 
ATOM      2  O   UNL     1      -0.353  -3.583  -2.615  0.00  0.00    -0.271 OA
ATOM      3  N   UNL     1      -1.006  -5.697  -2.829  0.00  0.00    -0.311 N 
ATOM      4  H   UNL     1      -1.049  -6.590  -2.453  0.00  0.00    +0.149 HD
ENDROOT
BRANCH   1  10
ATOM      5  C   UNL     1       1.486  -1.692   0.019  0.00  0.00    +0.233 C 
ATOM      6  N   UNL     1       0.503  -2.663  -0.511  0.00  0.00    -0.318 N 
ATOM      7  C   UNL     1       0.654  -3.949  -0.134  0.00  0.00    +0.021 C 
ATOM      8  C   UNL     1       1.405  -4.202   1.163  0.00  0.00    +0.123 C 
ATOM      9  S   UNL     1       1.912  -2.490   1.627  0.00  0.00    -0.111 S 
ATOM     10  C   UNL     1       0.160  -4.964  -0.873  0.00  0.00    +0.086 C 
ATOM     11  H   UNL     1      -0.215  -2.387  -1.101  0.00  0.00    +0.149 HD
BRANCH   5  15
ATOM     12  C   UNL     1      -0.624   1.186   0.601  0.00  0.00    +0.019 A 
ATOM     13  C   UNL     1       0.634   1.797   0.435  0.00  0.00    +0.019 A 
ATOM     14  C   UNL     1       1.532   0.818   0.207  0.00  0.00    +0.088 A 
ATOM     15  N   UNL     1       0.874  -0.377   0.225  0.00  0.00    -0.326 N 
ATOM     16  C   UNL     1      -0.447  -0.144   0.467  0.00  0.00    +0.088 A 
ENDBRANCH   5  15
ENDBRANCH   1  10
BRANCH   3  17
ATOM     17  C   UNL     1      -1.593  -5.427  -4.144  0.00  0.00    +0.109 C 
BRANCH  17  18
ATOM     18  C   UNL     1      -2.204  -6.714  -4.703  0.00  0.00    +0.052 C 
BRANCH  18  19
ATOM     19  C   UNL     1      -2.807  -6.436  -6.056  0.00  0.00    -0.040 C 
ATOM     20  C   UNL     1      -2.223  -6.625  -7.261  0.00  0.00    +0.000 A 
ATOM     21  C   UNL     1      -0.901  -7.124  -7.658  0.00  0.00    +0.030 A 
ATOM     22  C   UNL     1      -0.596  -7.199  -8.974  0.00  0.00    +0.042 A 
ATOM     23  C   UNL     1      -1.509  -6.813  -9.966  0.00  0.00    +0.022 A 
ATOM     24  C   UNL     1      -2.742  -6.345  -9.679  0.00  0.00    +0.027 A 
ATOM     25  C   UNL     1      -3.168  -6.224  -8.327  0.00  0.00    +0.043 A 
ATOM     26  N   UNL     1      -4.294  -5.804  -7.802  0.00  0.00    -0.380 N 
ATOM     27  C   UNL     1      -4.191  -5.898  -6.341  0.00  0.00    +0.144 C 
ATOM     28 CL   UNL     1       0.967  -7.789  -9.447  0.00  0.00    -0.084 Cl
ATOM     29  H   UNL     1      -5.066  -5.489  -8.296  0.00  0.00    +0.160 HD
ENDBRANCH  18  19
ENDBRANCH  17  18
ENDBRANCH   3  17
TORSDOF 5
