REMARK  Name = ZINC18837036
REMARK  8 active torsions:
REMARK  status: ('A' for Active; 'I' for Inactive)
REMARK    1  A    between atoms: C_1  and  C_2
REMARK    2  A    between atoms: C_2  and  C_3
REMARK    3  A    between atoms: C_2  and  C_4
REMARK    4  A    between atoms: C_2  and  N_5
REMARK    5  A    between atoms: N_5  and  S_6
REMARK    6  A    between atoms: S_6  and  C_9
REMARK    7  A    between atoms: C_13  and  N_15
REMARK    8  A    between atoms: C_16  and  C_18
REMARK                            x       y       z     vdW  Elec       q    Type
REMARK                         _______ _______ _______ _____ _____    ______ ____
ROOT
ATOM      1  C   UNL     1      -7.275   3.241  -0.667  0.00  0.00    +0.107 A 
ATOM      2  C   UNL     1      -7.466   4.378   0.097  0.00  0.00    +0.028 A 
ATOM      3  C   UNL     1      -6.494   5.360   0.136  0.00  0.00    +0.004 A 
ATOM      4  C   UNL     1      -5.329   5.210  -0.590  0.00  0.00    +0.023 A 
ATOM      5  C   UNL     1      -5.133   4.069  -1.359  0.00  0.00    +0.036 A 
ATOM      6  C   UNL     1      -6.114   3.087  -1.399  0.00  0.00    +0.051 A 
ENDROOT
BRANCH   5   7
ATOM      7  N   UNL     1      -3.955   3.914  -2.095  0.00  0.00    -0.281 N 
ATOM      8  C   UNL     1      -3.411   4.972  -2.728  0.00  0.00    +0.249 C 
ATOM      9  O   UNL     1      -3.913   6.073  -2.613  0.00  0.00    -0.270 OA
ATOM     10  H   UNL     1      -3.528   3.044  -2.149  0.00  0.00    +0.155 HD
BRANCH   8  11
ATOM     11  C   UNL     1      -2.207   4.794  -3.560  0.00  0.00    +0.045 A 
ATOM     12  C   UNL     1      -1.558   3.569  -3.602  0.00  0.00    +0.014 A 
ATOM     13  C   UNL     1      -0.420   3.396  -4.380  0.00  0.00    +0.001 A 
ATOM     14  C   UNL     1       0.083   4.417  -5.130  0.00  0.00    +0.008 A 
ATOM     15  C   UNL     1      -0.546   5.673  -5.124  0.00  0.00    -0.017 A 
ATOM     16  C   UNL     1      -1.704   5.871  -4.332  0.00  0.00    -0.006 A 
ATOM     17  C   UNL     1      -2.330   7.124  -4.328  0.00  0.00    +0.009 A 
ATOM     18  C   UNL     1      -1.819   8.137  -5.082  0.00  0.00    +0.001 A 
ATOM     19  C   UNL     1      -0.680   7.945  -5.861  0.00  0.00    +0.001 A 
ATOM     20  C   UNL     1      -0.047   6.741  -5.890  0.00  0.00    +0.008 A 
ENDBRANCH   8  11
ENDBRANCH   5   7
BRANCH   1  21
ATOM     21  S   UNL     1      -8.517   1.992  -0.713  0.00  0.00    +0.059 S 
ATOM     22  O   UNL     1      -7.838   0.744  -0.737  0.00  0.00    -0.153 OA
ATOM     23  O   UNL     1      -9.464   2.324   0.293  0.00  0.00    -0.153 OA
BRANCH  21  24
ATOM     24  N   UNL     1      -9.300   2.133  -2.165  0.00  0.00    -0.185 NA
ATOM     25  H   UNL     1      -9.231   1.424  -2.824  0.00  0.00    +0.149 HD
BRANCH  24  27
ATOM     26  C   UNL     1      -9.193   4.562  -2.427  0.00  0.00    +0.029 C 
ATOM     27  C   UNL     1     -10.097   3.328  -2.455  0.00  0.00    +0.032 C 
ATOM     28  C   UNL     1     -10.732   3.193  -3.840  0.00  0.00    +0.029 C 
ATOM     29  C   UNL     1     -11.196   3.476  -1.401  0.00  0.00    +0.029 C 
ENDBRANCH  24  27
ENDBRANCH  21  24
ENDBRANCH   1  21
TORSDOF 5
