REMARK  Name = ZINC19234200
REMARK  7 active torsions:
REMARK  status: ('A' for Active; 'I' for Inactive)
REMARK    1  A    between atoms: C_1  and  C_2
REMARK    2  A    between atoms: C_7  and  C_15
REMARK    3  A    between atoms: C_13  and  C_14
REMARK    4  A    between atoms: C_15  and  C_17
REMARK    5  A    between atoms: C_15  and  N_27
REMARK    6  A    between atoms: N_21  and  C_22
REMARK    7  A    between atoms: N_30  and  C_33
REMARK                            x       y       z     vdW  Elec       q    Type
REMARK                         _______ _______ _______ _____ _____    ______ ____
ROOT
ATOM      1  C   UNL     1       2.591  -0.626  -0.058  0.00  0.00    +0.162 C 
ENDROOT
BRANCH   1   8
ATOM      2  C   UNL     1       3.733  -3.448  -7.430  0.00  0.00    +0.044 C 
ATOM      3  C   UNL     1       3.308  -3.019  -6.049  0.00  0.00    -0.046 A 
ATOM      4  C   UNL     1       2.058  -3.386  -5.569  0.00  0.00    +0.004 A 
ATOM      5  C   UNL     1       1.654  -3.008  -4.321  0.00  0.00    +0.010 A 
ATOM      6  C   UNL     1       2.506  -2.242  -3.518  0.00  0.00    -0.001 A 
ATOM      7  C   UNL     1       2.105  -1.819  -2.176  0.00  0.00    +0.021 A 
ATOM      8  C   UNL     1       2.973  -1.078  -1.443  0.00  0.00    +0.042 A 
ATOM      9  C   UNL     1       4.231  -0.724  -1.977  0.00  0.00    +0.254 A 
ATOM     10  O   UNL     1       4.994  -0.053  -1.303  0.00  0.00    -0.268 OA
ATOM     11  N   UNL     1       4.611  -1.113  -3.206  0.00  0.00    -0.322 N 
ATOM     12  H   UNL     1       5.601  -0.829  -3.592  0.00  0.00    +0.169 HD
ATOM     13  C   UNL     1       3.774  -1.868  -4.001  0.00  0.00    +0.052 A 
ATOM     14  C   UNL     1       4.165  -2.266  -5.276  0.00  0.00    -0.024 A 
ATOM     15  C   UNL     1       5.519  -1.875  -5.809  0.00  0.00    +0.046 C 
ENDBRANCH   1   8
BRANCH   1  16
ATOM     16  N   UNL     1       3.614  -1.065   0.900  0.00  0.00    -0.292 NA
ATOM     17  C   UNL     1       3.805  -2.520   0.837  0.00  0.00    +0.067 C 
ATOM     18  C   UNL     1       4.932  -2.926   1.790  0.00  0.00    -0.063 C 
ATOM     19  N   UNL     1       4.592  -2.502   3.155  0.00  0.00    +0.383 N 
ATOM     20  C   UNL     1       4.400  -1.046   3.219  0.00  0.00    -0.063 C 
ATOM     21  C   UNL     1       3.274  -0.640   2.266  0.00  0.00    +0.067 C 
ATOM     22  H   UNL     1       3.642  -2.982   3.433  0.00  0.00    -0.081 HD
BRANCH  19  23
ATOM     23  C   UNL     1       5.615  -2.941   4.113  0.00  0.00    -0.068 C 
ATOM     24  C   UNL     1       6.971  -2.355   3.715  0.00  0.00    -0.015 C 
ATOM     25  C   UNL     1       8.037  -2.812   4.713  0.00  0.00    -0.002 C 
ATOM     26  C   UNL     1       8.120  -4.340   4.707  0.00  0.00    -0.000 C 
ATOM     27  C   UNL     1       6.764  -4.926   5.105  0.00  0.00    -0.002 C 
ATOM     28  C   UNL     1       5.698  -4.468   4.107  0.00  0.00    -0.015 C 
ENDBRANCH  19  23
ENDBRANCH   1  16
BRANCH   1  29
ATOM     29  C   UNL     1       2.488   0.878  -0.030  0.00  0.00    +0.173 A 
ATOM     30  N   UNL     1       3.484   1.730  -0.030  0.00  0.00    -0.111 NA
ATOM     31  N   UNL     1       2.990   2.919  -0.003  0.00  0.00    -0.023 NA
ATOM     32  N   UNL     1       1.705   2.848   0.008  0.00  0.00    -0.044 NA
ATOM     33  N   UNL     1       1.357   1.606  -0.002  0.00  0.00    -0.224 N 
BRANCH  33  34
ATOM     34  C   UNL     1      -0.013   1.086   0.008  0.00  0.00    +0.111 C 
ATOM     35  C   UNL     1      -0.763   1.597   1.255  0.00  0.00    +0.027 C 
ATOM     36  C   UNL     1      -1.531   2.845   0.750  0.00  0.00    +0.002 C 
ATOM     37  C   UNL     1      -1.978   2.421  -0.670  0.00  0.00    +0.002 C 
ATOM     38  C   UNL     1      -0.784   1.609  -1.216  0.00  0.00    +0.027 C 
ENDBRANCH  33  34
ENDBRANCH   1  29
TORSDOF 5
