REMARK  Name = ZINC39211660
REMARK  9 active torsions:
REMARK  status: ('A' for Active; 'I' for Inactive)
REMARK    1  A    between atoms: C_1  and  C_2
REMARK    2  A    between atoms: C_4  and  C_14
REMARK    3  A    between atoms: C_7  and  O_12
REMARK    4  A    between atoms: O_12  and  C_13
REMARK    5  A    between atoms: C_14  and  C_15
REMARK    6  A    between atoms: C_15  and  N_16
REMARK    7  A    between atoms: C_17  and  C_19
REMARK    8  A    between atoms: C_19  and  N_20
REMARK    9  A    between atoms: C_27  and  C_30
REMARK                            x       y       z     vdW  Elec       q    Type
REMARK                         _______ _______ _______ _____ _____    ______ ____
ROOT
ATOM      1  N   UNL     1      -4.145   2.771   1.716  0.00  0.00    -0.314 N 
ATOM      2  C   UNL     1      -4.410   3.792   2.555  0.00  0.00    +0.232 C 
ATOM      3  O   UNL     1      -3.844   4.855   2.414  0.00  0.00    -0.274 OA
ATOM      4  H   UNL     1      -4.598   1.921   1.828  0.00  0.00    +0.149 HD
ENDROOT
BRANCH   1   5
ATOM      5  C   UNL     1      -3.174   2.945   0.633  0.00  0.00    +0.109 C 
BRANCH   5   6
ATOM      6  C   UNL     1      -3.061   1.645  -0.165  0.00  0.00    +0.056 C 
BRANCH   6  10
ATOM      7  C   UNL     1      -0.013   1.086   0.008  0.00  0.00    +0.063 C 
ATOM      8  C   UNL     1      -0.742   1.585  -1.213  0.00  0.00    +0.017 A 
ATOM      9  H   UNL     1       0.790   1.775  -2.611  0.00  0.00    +0.166 HD
ATOM     10  C   UNL     1      -2.061   1.824  -1.278  0.00  0.00    -0.018 A 
ATOM     11  C   UNL     1      -2.345   2.293  -2.637  0.00  0.00    +0.007 A 
ATOM     12  C   UNL     1      -3.506   2.692  -3.302  0.00  0.00    +0.056 A 
ATOM     13  C   UNL     1      -3.434   3.090  -4.622  0.00  0.00    +0.121 A 
ATOM     14  C   UNL     1      -2.212   3.093  -5.288  0.00  0.00    +0.047 A 
ATOM     15  C   UNL     1      -1.060   2.701  -4.643  0.00  0.00    +0.030 A 
ATOM     16  C   UNL     1      -1.111   2.298  -3.313  0.00  0.00    +0.047 A 
ATOM     17  N   UNL     1      -0.156   1.867  -2.417  0.00  0.00    -0.358 N 
BRANCH  13  18
ATOM     18  O   UNL     1      -4.562   3.479  -5.274  0.00  0.00    -0.495 OA
ATOM     19  C   UNL     1      -4.417   3.878  -6.639  0.00  0.00    +0.277 C 
ENDBRANCH  13  18
ENDBRANCH   6  10
ENDBRANCH   5   6
ENDBRANCH   1   5
BRANCH   2  20
ATOM     20  C   UNL     1      -5.410   3.612   3.668  0.00  0.00    +0.219 C 
BRANCH  20  21
ATOM     21  N   UNL     1      -5.518   4.857   4.432  0.00  0.00    -0.261 N 
ATOM     22  C   UNL     1      -6.415   5.871   4.149  0.00  0.00    +0.023 C 
ATOM     23  C   UNL     1      -6.286   6.871   5.005  0.00  0.00    -0.025 C 
ATOM     24  C   UNL     1      -7.099   8.139   4.995  0.00  0.00    +0.034 C 
ATOM     25  C   UNL     1      -7.795   8.261   3.634  0.00  0.00    +0.005 C 
ATOM     26  C   UNL     1      -8.484   6.934   3.303  0.00  0.00    +0.006 C 
ATOM     27  C   UNL     1      -7.423   5.866   3.018  0.00  0.00    +0.052 C 
ATOM     28  C   UNL     1      -5.188   6.500   5.970  0.00  0.00    +0.204 C 
ATOM     29  N   UNL     1      -4.750   5.162   5.519  0.00  0.00    -0.224 NA
ATOM     30  H   UNL     1      -3.770   5.167   5.280  0.00  0.00    +0.145 HD
BRANCH  28  31
ATOM     31  C   UNL     1      -4.038   7.505   5.887  0.00  0.00    +0.410 C 
ATOM     32  F   UNL     1      -4.512   8.783   6.207  0.00  0.00    -0.169 F 
ATOM     33  F   UNL     1      -3.034   7.141   6.790  0.00  0.00    -0.169 F 
ATOM     34  F   UNL     1      -3.518   7.513   4.588  0.00  0.00    -0.169 F 
ENDBRANCH  28  31
ENDBRANCH  20  21
ENDBRANCH   2  20
TORSDOF 7
