REMARK  Name = ZINC06032984
REMARK  6 active torsions:
REMARK  status: ('A' for Active; 'I' for Inactive)
REMARK    1  A    between atoms: C_1  and  C_2
REMARK    2  A    between atoms: C_5  and  C_9
REMARK    3  A    between atoms: N_11  and  N_12
REMARK    4  A    between atoms: C_13  and  C_14
REMARK    5  A    between atoms: C_13  and  C_15
REMARK    6  A    between atoms: C_18  and  N_21
REMARK                            x       y       z     vdW  Elec       q    Type
REMARK                         _______ _______ _______ _____ _____    ______ ____
ROOT
ATOM      1  C   UNL     1      -3.046   3.840   1.826  0.00  0.00    +0.263 C 
ATOM      2  O   UNL     1      -3.184   5.026   2.054  0.00  0.00    -0.268 OA
ATOM      3  N   UNL     1      -3.964   3.183   1.089  0.00  0.00    -0.203 N 
ATOM      4  H   UNL     1      -3.853   2.237   0.907  0.00  0.00    +0.178 HD
ENDROOT
BRANCH   1   9
ATOM      5  C   UNL     1       1.531   1.027   3.890  0.00  0.00    +0.045 C 
ATOM      6  C   UNL     1       0.332   1.764   3.350  0.00  0.00    -0.036 A 
ATOM      7  C   UNL     1      -0.609   1.087   2.594  0.00  0.00    +0.005 A 
ATOM      8  C   UNL     1      -1.706   1.757   2.092  0.00  0.00    +0.013 A 
ATOM      9  C   UNL     1      -1.870   3.118   2.357  0.00  0.00    +0.039 A 
ATOM     10  C   UNL     1      -0.918   3.795   3.120  0.00  0.00    +0.028 A 
ATOM     11  C   UNL     1       0.178   3.114   3.613  0.00  0.00    +0.021 A 
ATOM     12 BR   UNL     1       1.470   4.028   4.647  0.00  0.00    -0.050 Br
ENDBRANCH   1   9
BRANCH   3  13
ATOM     13  N   UNL     1      -5.078   3.868   0.586  0.00  0.00    -0.184 NA
ATOM     14  C   UNL     1      -6.019   3.215  -0.025  0.00  0.00    +0.063 C 
ATOM     15  C   UNL     1      -7.122   3.965  -0.726  0.00  0.00    +0.068 C 
BRANCH  14  16
ATOM     16  C   UNL     1      -6.009   1.741  -0.032  0.00  0.00    -0.002 A 
ATOM     17  C   UNL     1      -6.433   1.042  -1.164  0.00  0.00    +0.012 A 
ATOM     18  C   UNL     1      -6.415  -0.338  -1.166  0.00  0.00    +0.033 A 
ATOM     19  C   UNL     1      -5.989  -1.029  -0.045  0.00  0.00    +0.126 A 
ATOM     20  C   UNL     1      -5.573  -0.343   1.082  0.00  0.00    +0.033 A 
ATOM     21  C   UNL     1      -5.580   1.036   1.096  0.00  0.00    +0.012 A 
BRANCH  19  22
ATOM     22  N   UNL     1      -5.979  -2.509  -0.053  0.00  0.00    +0.056 N 
ATOM     23  O   UNL     1      -5.605  -3.120   0.932  0.00  0.00    -0.126 OA
ATOM     24  O   UNL     1      -6.344  -3.116  -1.044  0.00  0.00    -0.126 OA
ENDBRANCH  19  22
ENDBRANCH  14  16
ENDBRANCH   3  13
TORSDOF 4
