REMARK  Name = ZINC64045000
REMARK  9 active torsions:
REMARK  status: ('A' for Active; 'I' for Inactive)
REMARK    1  A    between atoms: C_1  and  C_2
REMARK    2  A    between atoms: C_6  and  C_7
REMARK    3  A    between atoms: C_7  and  N_8
REMARK    4  A    between atoms: C_10  and  N_19
REMARK    5  A    between atoms: C_13  and  C_15
REMARK    6  A    between atoms: C_15  and  O_17
REMARK    7  A    between atoms: O_17  and  C_18
REMARK    8  A    between atoms: C_20  and  C_22
REMARK    9  A    between atoms: C_24  and  C_33
REMARK                            x       y       z     vdW  Elec       q    Type
REMARK                         _______ _______ _______ _____ _____    ______ ____
ROOT
ATOM      1  N   UNL     1      -3.274  -2.438   5.029  0.00  0.00    -0.309 N 
ATOM      2  C   UNL     1      -4.265  -3.223   4.561  0.00  0.00    +0.240 C 
ATOM      3  O   UNL     1      -4.862  -2.910   3.553  0.00  0.00    -0.273 OA
ATOM      4  H   UNL     1      -2.747  -2.725   5.791  0.00  0.00    +0.149 HD
ENDROOT
BRANCH   2   5
ATOM      5  C   UNL     1      -4.630  -4.490   5.290  0.00  0.00    +0.198 C 
ATOM      6  C   UNL     1      -3.772  -5.638   4.803  0.00  0.00    -0.000 C 
ATOM      7  C   UNL     1      -4.653  -6.566   4.274  0.00  0.00    +0.006 A 
ATOM      8  C   UNL     1      -4.459  -7.833   3.672  0.00  0.00    +0.030 A 
ATOM      9  C   UNL     1      -5.531  -8.539   3.235  0.00  0.00    +0.042 A 
ATOM     10  C   UNL     1      -6.836  -8.049   3.362  0.00  0.00    +0.022 A 
ATOM     11  C   UNL     1      -7.097  -6.847   3.927  0.00  0.00    +0.027 A 
ATOM     12  C   UNL     1      -6.027  -6.046   4.410  0.00  0.00    +0.044 A 
ATOM     13  N   UNL     1      -6.016  -4.864   4.989  0.00  0.00    -0.370 N 
ATOM     14 CL   UNL     1      -5.278 -10.091   2.498  0.00  0.00    -0.084 Cl
ATOM     15  H   UNL     1      -6.799  -4.325   5.186  0.00  0.00    +0.161 HD
BRANCH   6  16
ATOM     16  C   UNL     1      -2.314  -5.744   4.876  0.00  0.00    -0.019 A 
ATOM     17  C   UNL     1      -1.600  -6.370   3.845  0.00  0.00    +0.008 A 
ATOM     18  C   UNL     1      -0.227  -6.465   3.922  0.00  0.00    +0.001 A 
ATOM     19  C   UNL     1       0.447  -5.944   5.014  0.00  0.00    +0.000 A 
ATOM     20  C   UNL     1      -0.250  -5.323   6.037  0.00  0.00    +0.001 A 
ATOM     21  C   UNL     1      -1.622  -5.214   5.975  0.00  0.00    +0.008 A 
ENDBRANCH   6  16
ENDBRANCH   2   5
BRANCH   1  24
ATOM     22  N   UNL     1      -1.363  -0.011   3.046  0.00  0.00    -0.283 NA
ATOM     23  C   UNL     1      -2.019  -1.328   3.195  0.00  0.00    +0.108 C 
ATOM     24  C   UNL     1      -2.993  -1.152   4.386  0.00  0.00    +0.089 C 
ATOM     25  C   UNL     1      -2.175  -0.228   5.326  0.00  0.00    +0.054 C 
ATOM     26  C   UNL     1      -1.423   0.692   4.341  0.00  0.00    +0.168 C 
BRANCH  26  27
ATOM     27  C   UNL     1      -0.029   0.955   4.848  0.00  0.00    +0.324 C 
ATOM     28  O   UNL     1       0.766   0.049   4.926  0.00  0.00    -0.249 OA
BRANCH  27  29
ATOM     29  O   UNL     1       0.330   2.196   5.212  0.00  0.00    -0.467 OA
ATOM     30  C   UNL     1       1.668   2.373   5.683  0.00  0.00    +0.280 C 
ENDBRANCH  27  29
ENDBRANCH  26  27
BRANCH  22  31
ATOM     31  C   UNL     1       0.027  -0.164   2.595  0.00  0.00    +0.128 C 
BRANCH  31  37
ATOM     32  C   UNL     1       0.134   1.834   0.264  0.00  0.00    +0.044 C 
ATOM     33  C   UNL     1       0.091   0.342   0.061  0.00  0.00    -0.039 A 
ATOM     34  C   UNL     1       0.104  -0.193  -1.213  0.00  0.00    +0.011 A 
ATOM     35  C   UNL     1       0.065  -1.540  -1.361  0.00  0.00    +0.046 A 
ATOM     36  S   UNL     1       0.006  -2.096   0.334  0.00  0.00    -0.100 S 
ATOM     37  C   UNL     1       0.044  -0.496   1.125  0.00  0.00    +0.007 A 
ENDBRANCH  31  37
ENDBRANCH  22  31
ENDBRANCH   1  24
TORSDOF 7
