REMARK  Name = ZINC23215669
REMARK  8 active torsions:
REMARK  status: ('A' for Active; 'I' for Inactive)
REMARK    1  A    between atoms: C_10  and  C_15
REMARK    2  A    between atoms: C_15  and  O_17
REMARK    3  A    between atoms: O_17  and  C_18
REMARK    4  A    between atoms: C_18  and  C_19
REMARK    5  A    between atoms: C_19  and  O_20
REMARK    6  A    between atoms: O_20  and  C_21
REMARK    7  A    between atoms: C_24  and  S_27
REMARK    8  A    between atoms: S_27  and  N_30
REMARK                            x       y       z     vdW  Elec       q    Type
REMARK                         _______ _______ _______ _____ _____    ______ ____
ROOT
ATOM      1  C   UNL     1      -1.265  -0.760   0.010  0.00  0.00    +0.339 C 
ATOM      2  O   UNL     1      -1.248  -1.975   0.003  0.00  0.00    -0.245 OA
ENDROOT
BRANCH   1  12
ATOM      3  C   UNL     1       5.683   3.410  -0.036  0.00  0.00    +0.001 A 
ATOM      4  C   UNL     1       6.538   2.325  -0.051  0.00  0.00    +0.001 A 
ATOM      5  C   UNL     1       6.031   1.036  -0.052  0.00  0.00    +0.012 A 
ATOM      6  C   UNL     1       4.656   0.833  -0.039  0.00  0.00    +0.030 A 
ATOM      7  C   UNL     1       3.785   1.936  -0.024  0.00  0.00    -0.006 A 
ATOM      8  C   UNL     1       4.310   3.221  -0.023  0.00  0.00    +0.009 A 
ATOM      9  C   UNL     1       2.386   1.437  -0.013  0.00  0.00    -0.006 A 
ATOM     10  C   UNL     1       1.167   2.105   0.002  0.00  0.00    +0.010 A 
ATOM     11  C   UNL     1      -0.017   1.392   0.010  0.00  0.00    +0.015 A 
ATOM     12  C   UNL     1       0.002  -0.004   0.002  0.00  0.00    +0.060 A 
ATOM     13  C   UNL     1       1.224  -0.685  -0.013  0.00  0.00    +0.027 A 
ATOM     14  C   UNL     1       2.411   0.030  -0.021  0.00  0.00    +0.031 A 
ATOM     15  C   UNL     1       3.830  -0.398  -0.037  0.00  0.00    +0.194 C 
ATOM     16  O   UNL     1       4.239  -1.541  -0.047  0.00  0.00    -0.287 OA
ENDBRANCH   1  12
BRANCH   1  17
ATOM     17  O   UNL     1      -2.442  -0.103   0.024  0.00  0.00    -0.458 OA
BRANCH  17  18
ATOM     18  C   UNL     1      -3.648  -0.911   0.031  0.00  0.00    +0.273 C 
BRANCH  18  19
ATOM     19  C   UNL     1      -4.874   0.004   0.047  0.00  0.00    +0.270 C 
BRANCH  19  20
ATOM     20  O   UNL     1      -4.927   0.751  -1.170  0.00  0.00    -0.489 OA
BRANCH  20  21
ATOM     21  C   UNL     1      -5.963   1.618  -1.317  0.00  0.00    +0.121 A 
ATOM     22  C   UNL     1      -6.913   1.742  -0.314  0.00  0.00    +0.047 A 
ATOM     23  C   UNL     1      -7.963   2.628  -0.463  0.00  0.00    +0.032 A 
ATOM     24  C   UNL     1      -8.073   3.382  -1.617  0.00  0.00    +0.105 A 
ATOM     25  C   UNL     1      -7.131   3.256  -2.620  0.00  0.00    +0.032 A 
ATOM     26  C   UNL     1      -6.076   2.376  -2.473  0.00  0.00    +0.047 A 
BRANCH  24  27
ATOM     27  S   UNL     1      -9.417   4.506  -1.807  0.00  0.00    +0.056 S 
ATOM     28  O   UNL     1      -9.858   4.837  -0.498  0.00  0.00    -0.153 OA
ATOM     29  O   UNL     1      -8.994   5.490  -2.740  0.00  0.00    -0.153 OA
BRANCH  27  30
ATOM     30  N   UNL     1     -10.654   3.672  -2.527  0.00  0.00    -0.204 NA
ATOM     31  H   UNL     1     -11.516   4.342  -2.665  0.00  0.00    +0.144 HD
ATOM     32  H   UNL     1     -10.945   2.825  -1.889  0.00  0.00    +0.144 HD
ENDBRANCH  27  30
ENDBRANCH  24  27
ENDBRANCH  20  21
ENDBRANCH  19  20
ENDBRANCH  18  19
ENDBRANCH  17  18
ENDBRANCH   1  17
TORSDOF 8
