REMARK  Name = ZINC57681287
REMARK  5 active torsions:
REMARK  status: ('A' for Active; 'I' for Inactive)
REMARK    1  A    between atoms: C_3  and  N_21
REMARK    2  A    between atoms: C_4  and  N_18
REMARK    3  A    between atoms: C_6  and  C_7
REMARK    4  A    between atoms: N_9  and  C_10
REMARK    5  A    between atoms: C_15  and  O_16
REMARK                            x       y       z     vdW  Elec       q    Type
REMARK                         _______ _______ _______ _____ _____    ______ ____
ROOT
ATOM      1  C   UNL     1      -0.016   1.392   0.032  0.00  0.00    +0.015 A 
ATOM      2  C   UNL     1       1.168   2.095   0.036  0.00  0.00    +0.026 A 
ATOM      3  C   UNL     1       2.382   1.415   0.027  0.00  0.00    +0.060 A 
ATOM      4  C   UNL     1       2.404   0.022   0.016  0.00  0.00    +0.148 A 
ATOM      5  C   UNL     1       1.224  -0.685   0.012  0.00  0.00    +0.047 A 
ATOM      6  C   UNL     1       0.002  -0.005   0.021  0.00  0.00    +0.039 A 
ENDROOT
BRANCH   3   7
ATOM      7  N   UNL     1       3.576   2.127   0.030  0.00  0.00    -0.328 N 
ATOM      8  C   UNL     1       4.306   2.581  -1.162  0.00  0.00    +0.105 C 
ATOM      9  C   UNL     1       5.580   3.303  -0.673  0.00  0.00    +0.020 C 
ATOM     10  C   UNL     1       5.783   2.721   0.751  0.00  0.00    +0.020 C 
ATOM     11  C   UNL     1       4.317   2.558   1.230  0.00  0.00    +0.105 C 
ENDBRANCH   3   7
BRANCH   6  12
ATOM     12  C   UNL     1      -1.264  -0.761   0.018  0.00  0.00    +0.248 C 
ATOM     13  O   UNL     1      -1.247  -1.977   0.008  0.00  0.00    -0.270 OA
ATOM     14  N   UNL     1      -2.441  -0.104   0.026  0.00  0.00    -0.279 N 
ATOM     15  H   UNL     1      -2.456   0.863   0.099  0.00  0.00    +0.155 HD
BRANCH  14  16
ATOM     16  C   UNL     1      -3.642  -0.818  -0.072  0.00  0.00    +0.077 A 
ATOM     17  C   UNL     1      -3.756  -2.070   0.513  0.00  0.00    +0.047 A 
ATOM     18  C   UNL     1      -4.944  -2.773   0.415  0.00  0.00    +0.043 A 
ATOM     19  C   UNL     1      -6.019  -2.229  -0.265  0.00  0.00    +0.023 A 
ATOM     20  C   UNL     1      -5.911  -0.981  -0.851  0.00  0.00    +0.049 A 
ATOM     21  C   UNL     1      -4.727  -0.269  -0.752  0.00  0.00    +0.138 A 
ATOM     22 CL   UNL     1      -5.085  -4.341   1.147  0.00  0.00    -0.083 Cl
BRANCH  21  23
ATOM     23  O   UNL     1      -4.623   0.962  -1.322  0.00  0.00    -0.505 OA
ATOM     24  H   UNL     1      -4.310   0.946  -2.237  0.00  0.00    +0.292 HD
ENDBRANCH  21  23
ENDBRANCH  14  16
ENDBRANCH   6  12
BRANCH   4  25
ATOM     25  N   UNL     1       3.697  -0.697   0.006  0.00  0.00    +0.058 N 
ATOM     26  O   UNL     1       3.717  -1.906  -0.004  0.00  0.00    -0.126 OA
ATOM     27  O   UNL     1       4.734  -0.076   0.009  0.00  0.00    -0.126 OA
ENDBRANCH   4  25
TORSDOF 5
