REMARK  Name = ZINC16182304
REMARK  7 active torsions:
REMARK  status: ('A' for Active; 'I' for Inactive)
REMARK    1  A    between atoms: C_7  and  C_16
REMARK    2  A    between atoms: C_9  and  C_11
REMARK    3  A    between atoms: N_18  and  N_19
REMARK    4  A    between atoms: N_19  and  C_20
REMARK    5  A    between atoms: C_20  and  N_22
REMARK    6  A    between atoms: N_22  and  C_23
REMARK    7  A    between atoms: C_23  and  C_24
REMARK                            x       y       z     vdW  Elec       q    Type
REMARK                         _______ _______ _______ _____ _____    ______ ____
ROOT
ATOM      1  C   UNL     1       1.147   1.655   0.000  0.00  0.00    +0.261 C 
ATOM      2  O   UNL     1       1.130   2.871   0.019  0.00  0.00    -0.269 OA
ATOM      3  N   UNL     1      -0.011   0.966  -0.007  0.00  0.00    -0.231 N 
ATOM      4  H   UNL     1       0.002  -0.004  -0.022  0.00  0.00    +0.173 HD
ENDROOT
BRANCH   1  11
ATOM      5  C   UNL     1       4.960   3.674  -0.326  0.00  0.00    +0.001 A 
ATOM      6  C   UNL     1       6.147   2.945  -0.336  0.00  0.00    +0.002 A 
ATOM      7  C   UNL     1       6.138   1.587  -0.244  0.00  0.00    +0.028 A 
ATOM      8  C   UNL     1       4.913   0.903  -0.138  0.00  0.00    +0.072 A 
ATOM      9  C   UNL     1       3.709   1.650  -0.127  0.00  0.00    +0.013 A 
ATOM     10  C   UNL     1       3.755   3.045  -0.223  0.00  0.00    +0.011 A 
ATOM     11  C   UNL     1       2.438   0.933  -0.016  0.00  0.00    +0.049 A 
ATOM     12  C   UNL     1       2.491  -0.448   0.079  0.00  0.00    +0.042 A 
ATOM     13  C   UNL     1       3.740  -1.094   0.053  0.00  0.00    +0.079 A 
ATOM     14  N   UNL     1       4.874  -0.428  -0.047  0.00  0.00    -0.246 NA
BRANCH  13  15
ATOM     15  C   UNL     1       3.784  -2.565   0.148  0.00  0.00    +0.038 A 
ATOM     16  C   UNL     1       4.872  -3.399   0.144  0.00  0.00    +0.017 A 
ATOM     17  C   UNL     1       4.667  -4.755   0.250  0.00  0.00    +0.008 A 
ATOM     18  C   UNL     1       3.395  -5.227   0.344  0.00  0.00    +0.046 A 
ATOM     19  S   UNL     1       2.433  -3.724   0.292  0.00  0.00    -0.095 S 
ENDBRANCH  13  15
ENDBRANCH   1  11
BRANCH   3  20
ATOM     20  N   UNL     1      -1.234   1.650   0.003  0.00  0.00    -0.246 N 
ATOM     21  H   UNL     1      -1.247   2.620   0.018  0.00  0.00    +0.172 HD
BRANCH  20  22
ATOM     22  C   UNL     1      -2.392   0.961  -0.009  0.00  0.00    +0.147 C 
ATOM     23  S   UNL     1      -3.886   1.796   0.002  0.00  0.00    -0.017 S 
BRANCH  22  24
ATOM     24  N   UNL     1      -2.374  -0.387  -0.031  0.00  0.00    -0.323 N 
ATOM     25  H   UNL     1      -1.527  -0.861  -0.037  0.00  0.00    +0.148 HD
BRANCH  24  26
ATOM     26  C   UNL     1      -3.632  -1.136  -0.044  0.00  0.00    +0.134 C 
BRANCH  26  27
ATOM     27  C   UNL     1      -3.333  -2.637  -0.068  0.00  0.00    +0.135 C 
ATOM     28  C   UNL     1      -4.642  -3.445  -0.208  0.00  0.00    +0.035 C 
ATOM     29  C   UNL     1      -4.413  -4.688   0.680  0.00  0.00    +0.031 C 
ATOM     30  C   UNL     1      -2.993  -4.484   1.253  0.00  0.00    +0.160 C 
ATOM     31  O   UNL     1      -2.773  -3.057   1.196  0.00  0.00    -0.375 OA
ENDBRANCH  26  27
ENDBRANCH  24  26
ENDBRANCH  22  24
ENDBRANCH  20  22
ENDBRANCH   3  20
TORSDOF 7
