REMARK  Name = ZINC35352871
REMARK  6 active torsions:
REMARK  status: ('A' for Active; 'I' for Inactive)
REMARK    1  A    between atoms: C_1  and  C_2
REMARK    2  A    between atoms: C_3  and  C_20
REMARK    3  A    between atoms: C_4  and  C_10
REMARK    4  A    between atoms: C_14  and  N_17
REMARK    5  A    between atoms: C_15  and  O_16
REMARK    6  A    between atoms: N_22  and  C_23
REMARK                            x       y       z     vdW  Elec       q    Type
REMARK                         _______ _______ _______ _____ _____    ______ ____
ROOT
ATOM      1  C   UNL     1      -0.159   0.908  -2.122  0.00  0.00    +0.061 C 
ATOM      2  C   UNL     1      -0.124  -0.266  -1.178  0.00  0.00    +0.017 C 
ATOM      3  C   UNL     1      -1.276  -0.888  -0.849  0.00  0.00    +0.056 C 
ATOM      4  C   UNL     1      -1.196  -2.064   0.104  0.00  0.00    +0.143 C 
ATOM      5  N   UNL     1       0.142  -2.433   0.596  0.00  0.00    -0.315 N 
ATOM      6  C   UNL     1       1.202  -1.714   0.175  0.00  0.00    +0.135 C 
ATOM      7  S   UNL     1       2.763  -2.133   0.738  0.00  0.00    -0.019 S 
ATOM      8  N   UNL     1       1.073  -0.686  -0.673  0.00  0.00    -0.300 N 
ATOM      9  H   UNL     1       0.258  -3.177   1.208  0.00  0.00    +0.149 HD
ATOM     10  H   UNL     1       1.875  -0.211  -0.941  0.00  0.00    +0.154 HD
ENDROOT
BRANCH   4  11
ATOM     11  C   UNL     1      -2.060  -1.753   1.299  0.00  0.00    +0.021 A 
ATOM     12  C   UNL     1      -2.362  -0.442   1.612  0.00  0.00    +0.009 A 
ATOM     13  C   UNL     1      -3.155  -0.156   2.708  0.00  0.00    +0.003 A 
ATOM     14  C   UNL     1      -3.647  -1.182   3.494  0.00  0.00    +0.036 A 
ATOM     15  C   UNL     1      -3.348  -2.495   3.185  0.00  0.00    +0.168 A 
ATOM     16  C   UNL     1      -2.557  -2.784   2.082  0.00  0.00    +0.152 A 
BRANCH  15  17
ATOM     17  N   UNL     1      -3.875  -3.592   4.027  0.00  0.00    +0.060 N 
ATOM     18  O   UNL     1      -4.567  -3.340   4.985  0.00  0.00    -0.126 OA
ATOM     19  O   UNL     1      -3.612  -4.741   3.757  0.00  0.00    -0.126 OA
ENDBRANCH  15  17
BRANCH  16  20
ATOM     20  O   UNL     1      -2.265  -4.075   1.774  0.00  0.00    -0.504 OA
ATOM     21  H   UNL     1      -1.461  -4.408   2.195  0.00  0.00    +0.292 HD
ENDBRANCH  16  20
ENDBRANCH   4  11
BRANCH   3  22
ATOM     22  C   UNL     1      -2.518  -0.456  -1.376  0.00  0.00    +0.248 C 
ATOM     23  O   UNL     1      -2.575   0.561  -2.043  0.00  0.00    -0.270 OA
ATOM     24  N   UNL     1      -3.635  -1.171  -1.139  0.00  0.00    -0.282 N 
ATOM     25  H   UNL     1      -3.596  -1.960  -0.576  0.00  0.00    +0.155 HD
BRANCH  24  26
ATOM     26  C   UNL     1      -4.853  -0.775  -1.704  0.00  0.00    +0.034 A 
ATOM     27  C   UNL     1      -5.127   0.574  -1.890  0.00  0.00    +0.026 A 
ATOM     28  C   UNL     1      -6.328   0.963  -2.449  0.00  0.00    +0.040 A 
ATOM     29  C   UNL     1      -7.260   0.009  -2.822  0.00  0.00    +0.124 A 
ATOM     30  C   UNL     1      -6.989  -1.336  -2.638  0.00  0.00    +0.040 A 
ATOM     31  C   UNL     1      -5.786  -1.730  -2.086  0.00  0.00    +0.026 A 
ATOM     32  F   UNL     1      -8.436   0.392  -3.368  0.00  0.00    -0.205 F 
ENDBRANCH  24  26
ENDBRANCH   3  22
TORSDOF 5
