REMARK  Name = ZINC58723767
REMARK  6 active torsions:
REMARK  status: ('A' for Active; 'I' for Inactive)
REMARK    1  A    between atoms: C_1  and  C_2
REMARK    2  A    between atoms: N_7  and  S_9
REMARK    3  A    between atoms: S_9  and  N_12
REMARK    4  A    between atoms: N_16  and  S_19
REMARK    5  A    between atoms: S_19  and  N_22
REMARK    6  A    between atoms: C_26  and  C_29
REMARK                            x       y       z     vdW  Elec       q    Type
REMARK                         _______ _______ _______ _____ _____    ______ ____
ROOT
ATOM      1  N   UNL     1       1.571  -3.492   3.344  0.00  0.00    -0.165 NA
ATOM      2  C   UNL     1       2.597  -4.470   3.245  0.00  0.00    +0.112 C 
ATOM      3  C   UNL     1       2.270  -5.831   3.943  0.00  0.00    +0.034 C 
ATOM      4  C   UNL     1       1.496  -5.502   5.261  0.00  0.00    +0.112 C 
ATOM      5  N   UNL     1       1.957  -4.346   5.946  0.00  0.00    -0.165 NA
ATOM      6  C   UNL     1       1.232  -3.075   5.690  0.00  0.00    +0.127 C 
ATOM      7  C   UNL     1       1.697  -2.488   4.432  0.00  0.00    +0.127 C 
ENDROOT
BRANCH   1   8
ATOM      8  S   UNL     1       0.294  -3.468   2.290  0.00  0.00    +0.100 S 
ATOM      9  O   UNL     1      -0.767  -2.794   2.952  0.00  0.00    -0.141 OA
ATOM     10  O   UNL     1       0.160  -4.790   1.785  0.00  0.00    -0.141 OA
BRANCH   8  16
ATOM     11  C   UNL     1      -0.480   0.817  -0.318  0.00  0.00    +0.009 C 
ATOM     12  C   UNL     1      -0.306  -0.702  -0.249  0.00  0.00    +0.002 C 
ATOM     13  C   UNL     1       0.478  -1.182  -1.472  0.00  0.00    +0.006 C 
ATOM     14  C   UNL     1       0.625  -2.704  -1.421  0.00  0.00    +0.017 C 
ATOM     15  C   UNL     1       1.404  -3.096  -0.162  0.00  0.00    +0.110 C 
ATOM     16  N   UNL     1       0.735  -2.514   1.010  0.00  0.00    -0.166 NA
ATOM     17  C   UNL     1       0.463  -1.071   1.024  0.00  0.00    +0.113 C 
ENDBRANCH   8  16
ENDBRANCH   1   8
BRANCH   5  18
ATOM     18  S   UNL     1       3.245  -4.413   6.985  0.00  0.00    +0.100 S 
ATOM     19  O   UNL     1       3.964  -5.596   6.664  0.00  0.00    -0.141 OA
ATOM     20  O   UNL     1       3.848  -3.127   6.968  0.00  0.00    -0.141 OA
BRANCH  18  21
ATOM     21  N   UNL     1       2.634  -4.630   8.509  0.00  0.00    -0.166 NA
ATOM     22  C   UNL     1       2.327  -3.474   9.363  0.00  0.00    +0.110 C 
ATOM     23  C   UNL     1       0.877  -3.589   9.844  0.00  0.00    +0.017 C 
ATOM     24  C   UNL     1       0.674  -4.945  10.523  0.00  0.00    +0.006 C 
ATOM     25  C   UNL     1       0.939  -6.066   9.517  0.00  0.00    +0.002 C 
ATOM     26  C   UNL     1       2.384  -5.980   9.030  0.00  0.00    +0.113 C 
ATOM     27  C   UNL     1       0.703  -7.421  10.188  0.00  0.00    +0.009 C 
ENDBRANCH  18  21
ENDBRANCH   5  18
TORSDOF 4
