REMARK  Name = ZINC53660298
REMARK  8 active torsions:
REMARK  status: ('A' for Active; 'I' for Inactive)
REMARK    1  A    between atoms: C_1  and  C_2
REMARK    2  A    between atoms: C_2  and  C_4
REMARK    3  A    between atoms: C_2  and  N_7
REMARK    4  A    between atoms: C_8  and  N_9
REMARK    5  A    between atoms: C_10  and  C_12
REMARK    6  A    between atoms: C_12  and  N_13
REMARK    7  A    between atoms: C_16  and  C_20
REMARK    8  A    between atoms: C_16  and  C_21
REMARK                            x       y       z     vdW  Elec       q    Type
REMARK                         _______ _______ _______ _____ _____    ______ ____
ROOT
ATOM      1  C   UNL     1      -2.888  -3.130   3.267  0.00  0.00    +0.214 C 
ENDROOT
BRANCH   1   2
ATOM      2  N   UNL     1      -3.052  -3.949   4.471  0.00  0.00    -0.215 N 
ATOM      3  C   UNL     1      -2.799  -5.272   4.527  0.00  0.00    +0.252 C 
ATOM      4  O   UNL     1      -2.407  -5.981   3.625  0.00  0.00    -0.272 OA
ATOM      5  C   UNL     1      -3.105  -5.688   5.952  0.00  0.00    +0.141 C 
ATOM      6  N   UNL     1      -3.535  -4.434   6.594  0.00  0.00    -0.281 N 
ATOM      7  C   UNL     1      -3.466  -3.476   5.652  0.00  0.00    +0.310 C 
ATOM      8  O   UNL     1      -3.751  -2.311   5.850  0.00  0.00    -0.252 OA
ATOM      9  C   UNL     1      -4.233  -6.721   5.980  0.00  0.00    +0.047 C 
ATOM     10  H   UNL     1      -3.812  -4.320   7.516  0.00  0.00    +0.152 HD
BRANCH   5  11
ATOM     11  C   UNL     1      -1.869  -6.230   6.623  0.00  0.00    +0.022 A 
ATOM     12  C   UNL     1      -1.528  -6.202   7.934  0.00  0.00    +0.014 A 
ATOM     13  C   UNL     1      -0.331  -6.769   8.327  0.00  0.00    +0.008 A 
ATOM     14  C   UNL     1       0.467  -7.337   7.390  0.00  0.00    +0.045 A 
ATOM     15  S   UNL     1      -0.479  -7.083   5.897  0.00  0.00    -0.099 S 
ENDBRANCH   5  11
ENDBRANCH   1   2
BRANCH   1  17
ATOM     16  N   UNL     1      -1.103  -1.794   2.196  0.00  0.00    -0.269 N 
ATOM     17  C   UNL     1      -1.485  -2.582   3.221  0.00  0.00    +0.236 C 
ATOM     18  O   UNL     1      -0.699  -2.849   4.105  0.00  0.00    -0.274 OA
ATOM     19  H   UNL     1      -1.731  -1.581   1.488  0.00  0.00    +0.156 HD
BRANCH  16  21
ATOM     20  N   UNL     1       0.711  -0.489   1.189  0.00  0.00    -0.247 N 
ATOM     21  C   UNL     1       0.196  -1.287   2.152  0.00  0.00    +0.123 A 
ATOM     22  C   UNL     1       1.175  -1.505   3.072  0.00  0.00    +0.065 A 
ATOM     23  C   UNL     1       2.317  -0.818   2.652  0.00  0.00    +0.136 A 
ATOM     24  N   UNL     1       2.043  -0.214   1.524  0.00  0.00    -0.178 NA
BRANCH  20  26
ATOM     25  C   UNL     1      -0.019   1.526   0.010  0.00  0.00    +0.033 C 
ATOM     26  C   UNL     1       0.002  -0.004   0.002  0.00  0.00    +0.109 C 
BRANCH  26  27
ATOM     27  C   UNL     1       0.718  -0.497  -1.257  0.00  0.00    +0.013 C 
ATOM     28  C   UNL     1      -0.002  -1.537  -2.118  0.00  0.00    +0.006 C 
ATOM     29  C   UNL     1       0.128  -0.094  -2.609  0.00  0.00    +0.006 C 
ENDBRANCH  26  27
ENDBRANCH  20  26
ENDBRANCH  16  21
ENDBRANCH   1  17
TORSDOF 6
