REMARK  Name = ZINC33695520
REMARK  12 active torsions:
REMARK  status: ('A' for Active; 'I' for Inactive)
REMARK    1  A    between atoms: C_1  and  C_2
REMARK    2  A    between atoms: C_8  and  N_10
REMARK    3  A    between atoms: C_11  and  C_13
REMARK    4  A    between atoms: C_21  and  C_32
REMARK    5  A    between atoms: N_27  and  C_28
REMARK    6  A    between atoms: C_28  and  C_29
REMARK    7  A    between atoms: C_28  and  C_30
REMARK    8  A    between atoms: C_28  and  C_31
REMARK    9  A    between atoms: N_34  and  C_35
REMARK   10  A    between atoms: C_38  and  C_41
REMARK   11  A    between atoms: C_41  and  C_42
REMARK   12  A    between atoms: C_41  and  C_43
REMARK                            x       y       z     vdW  Elec       q    Type
REMARK                         _______ _______ _______ _____ _____    ______ ____
ROOT
ATOM      1  C   UNL     1       0.522   1.075  -4.884  0.00  0.00    +0.199 C 
ATOM      2  C   UNL     1       1.932   1.580  -4.866  0.00  0.00    +0.127 C 
ATOM      3  C   UNL     1       2.037   3.018  -4.391  0.00  0.00    +0.009 C 
ATOM      4  C   UNL     1       3.311   3.300  -4.400  0.00  0.00    +0.004 C 
ATOM      5  C   UNL     1       4.000   2.053  -4.968  0.00  0.00    +0.155 C 
ATOM      6  O   UNL     1       3.126   0.970  -4.438  0.00  0.00    -0.358 OA
ATOM      7  C   UNL     1       3.579   2.103  -6.488  0.00  0.00    +0.123 C 
ATOM      8  C   UNL     1       2.180   1.545  -6.428  0.00  0.00    +0.128 C 
ATOM      9  C   UNL     1       0.944   2.192  -6.905  0.00  0.00    +0.224 C 
ATOM     10  O   UNL     1       0.835   2.913  -7.875  0.00  0.00    -0.275 OA
ATOM     11  N   UNL     1      -0.059   1.823  -6.043  0.00  0.00    -0.281 N 
ENDROOT
BRANCH   1  13
ATOM     12  N   UNL     1      -0.381   0.482  -2.660  0.00  0.00    -0.311 N 
ATOM     13  C   UNL     1      -0.191   1.424  -3.604  0.00  0.00    +0.237 C 
ATOM     14  O   UNL     1      -0.595   2.554  -3.423  0.00  0.00    -0.274 OA
ATOM     15  H   UNL     1      -0.015  -0.543  -2.824  0.00  0.00    +0.149 HD
BRANCH  12  22
ATOM     16  C   UNL     1       0.872  -0.027  -0.098  0.00  0.00    +0.009 C 
ATOM     17  C   UNL     1      -0.639  -0.142  -0.309  0.00  0.00    +0.006 C 
ATOM     18  C   UNL     1      -1.364   0.212   0.991  0.00  0.00    +0.005 C 
ATOM     19  C   UNL     1      -2.875   0.097   0.780  0.00  0.00    +0.000 C 
ATOM     20  C   UNL     1      -3.311   1.060  -0.326  0.00  0.00    +0.002 C 
ATOM     21  C   UNL     1      -2.586   0.706  -1.625  0.00  0.00    +0.022 C 
ATOM     22  C   UNL     1      -1.075   0.821  -1.415  0.00  0.00    +0.076 C 
ENDBRANCH  12  22
ENDBRANCH   1  13
BRANCH  11  23
ATOM     23  C   UNL     1      -1.482   2.118  -6.228  0.00  0.00    +0.030 C 
ATOM     24  C   UNL     1      -1.752   3.581  -5.871  0.00  0.00    +0.031 C 
ATOM     25  C   UNL     1      -1.868   1.869  -7.688  0.00  0.00    +0.031 C 
ATOM     26  C   UNL     1      -2.314   1.210  -5.319  0.00  0.00    +0.031 C 
ENDBRANCH  11  23
BRANCH   7  27
ATOM     27  C   UNL     1       3.575   3.520  -7.001  0.00  0.00    +0.224 C 
ATOM     28  O   UNL     1       2.528   4.054  -7.300  0.00  0.00    -0.275 OA
ATOM     29  N   UNL     1       4.735   4.195  -7.127  0.00  0.00    -0.285 N 
ATOM     30  H   UNL     1       5.691   3.687  -6.929  0.00  0.00    +0.155 HD
BRANCH  29  31
ATOM     31  C   UNL     1       4.723   5.541  -7.509  0.00  0.00    +0.033 A 
ATOM     32  C   UNL     1       3.779   5.998  -8.419  0.00  0.00    +0.023 A 
ATOM     33  C   UNL     1       3.767   7.329  -8.789  0.00  0.00    +0.006 A 
ATOM     34  C   UNL     1       4.701   8.203  -8.264  0.00  0.00    -0.045 A 
ATOM     35  C   UNL     1       5.646   7.750  -7.362  0.00  0.00    +0.006 A 
ATOM     36  C   UNL     1       5.660   6.421  -6.983  0.00  0.00    +0.023 A 
BRANCH  34  37
ATOM     37  C   UNL     1       4.688   9.652  -8.675  0.00  0.00    +0.013 C 
ATOM     38  C   UNL     1       4.894   9.755 -10.188  0.00  0.00    +0.012 C 
ATOM     39  C   UNL     1       3.343  10.277  -8.300  0.00  0.00    +0.012 C 
ENDBRANCH  34  37
ENDBRANCH  29  31
ENDBRANCH   7  27
TORSDOF 6
