REMARK  Name = ZINC14478109
REMARK  6 active torsions:
REMARK  status: ('A' for Active; 'I' for Inactive)
REMARK    1  A    between atoms: C_4  and  C_7
REMARK    2  A    between atoms: C_7  and  N_8
REMARK    3  A    between atoms: N_8  and  S_9
REMARK    4  A    between atoms: S_9  and  C_12
REMARK    5  A    between atoms: C_25  and  C_28
REMARK    6  A    between atoms: C_33  and  N_34
REMARK                            x       y       z     vdW  Elec       q    Type
REMARK                         _______ _______ _______ _____ _____    ______ ____
ROOT
ATOM      1  C   UNL     1       0.070  -2.919   2.128  0.00  0.00    +0.106 A 
ATOM      2  C   UNL     1       0.173  -3.203   0.778  0.00  0.00    +0.030 A 
ATOM      3  C   UNL     1       0.883  -2.354  -0.047  0.00  0.00    +0.025 A 
ATOM      4  C   UNL     1       1.489  -1.220   0.478  0.00  0.00    +0.031 A 
ATOM      5  C   UNL     1       1.388  -0.930   1.830  0.00  0.00    -0.018 A 
ATOM      6  C   UNL     1       0.672  -1.792   2.650  0.00  0.00    +0.034 A 
ATOM      7  C   UNL     1       2.022   0.279   2.440  0.00  0.00    +0.049 C 
ATOM      8  C   UNL     1       0.985   1.336   2.737  0.00  0.00    -0.023 C 
ATOM      9  C   UNL     1       1.477   2.530   2.515  0.00  0.00    -0.030 C 
ATOM     10  C   UNL     1       2.915   2.432   2.044  0.00  0.00    +0.033 C 
ATOM     11  C   UNL     1       3.016   0.979   1.493  0.00  0.00    +0.029 C 
ATOM     12  C   UNL     1       2.459   0.993   0.067  0.00  0.00    +0.107 C 
ATOM     13  N   UNL     1       2.224  -0.389  -0.365  0.00  0.00    -0.336 N 
ATOM     14  H   UNL     1       2.555  -0.705  -1.221  0.00  0.00    +0.147 HD
ENDROOT
BRANCH  12  15
ATOM     15  C   UNL     1       1.160   1.757   0.040  0.00  0.00    +0.003 A 
ATOM     16  C   UNL     1      -0.032   1.104   0.295  0.00  0.00    +0.008 A 
ATOM     17  C   UNL     1      -1.223   1.804   0.265  0.00  0.00    +0.000 A 
ATOM     18  C   UNL     1      -1.222   3.159  -0.011  0.00  0.00    +0.002 A 
ATOM     19  C   UNL     1      -0.031   3.812  -0.264  0.00  0.00    +0.033 A 
ATOM     20  C   UNL     1       1.161   3.111  -0.239  0.00  0.00    +0.131 A 
BRANCH  20  21
ATOM     21  N   UNL     1       2.436   3.810  -0.512  0.00  0.00    +0.057 N 
ATOM     22  O   UNL     1       2.453   5.021  -0.635  0.00  0.00    -0.126 OA
ATOM     23  O   UNL     1       3.470   3.174  -0.613  0.00  0.00    -0.126 OA
ENDBRANCH  20  21
ENDBRANCH  12  15
BRANCH   1  24
ATOM     24  S   UNL     1      -0.835  -4.000   3.185  0.00  0.00    +0.059 S 
ATOM     25  O   UNL     1      -1.243  -3.225   4.305  0.00  0.00    -0.153 OA
ATOM     26  O   UNL     1      -1.762  -4.693   2.360  0.00  0.00    -0.153 OA
BRANCH  24  27
ATOM     27  N   UNL     1       0.230  -5.132   3.755  0.00  0.00    -0.186 NA
ATOM     28  H   UNL     1       0.122  -6.065   3.513  0.00  0.00    +0.148 HD
BRANCH  27  29
ATOM     29  C   UNL     1       1.336  -4.725   4.625  0.00  0.00    +0.141 C 
BRANCH  29  33
ATOM     30  C   UNL     1       3.002  -8.172   6.520  0.00  0.00    +0.000 A 
ATOM     31  C   UNL     1       3.497  -7.745   5.302  0.00  0.00    +0.000 A 
ATOM     32  C   UNL     1       2.958  -6.630   4.689  0.00  0.00    +0.005 A 
ATOM     33  C   UNL     1       1.924  -5.941   5.293  0.00  0.00    -0.032 A 
ATOM     34  C   UNL     1       1.432  -6.364   6.514  0.00  0.00    +0.005 A 
ATOM     35  C   UNL     1       1.968  -7.482   7.125  0.00  0.00    +0.000 A 
ENDBRANCH  29  33
ENDBRANCH  27  29
ENDBRANCH  24  27
ENDBRANCH   1  24
TORSDOF 6
