REMARK  Name = ZINC05099382
REMARK  8 active torsions:
REMARK  status: ('A' for Active; 'I' for Inactive)
REMARK    1  A    between atoms: C_1  and  C_2
REMARK    2  A    between atoms: C_2  and  C_3
REMARK    3  A    between atoms: C_3  and  C_4
REMARK    4  A    between atoms: C_4  and  C_5
REMARK    5  A    between atoms: C_5  and  N_6
REMARK    6  A    between atoms: C_7  and  C_9
REMARK    7  A    between atoms: C_11  and  C_21
REMARK    8  A    between atoms: N_13  and  C_14
REMARK                            x       y       z     vdW  Elec       q    Type
REMARK                         _______ _______ _______ _____ _____    ______ ____
ROOT
ATOM      1  C   UNL     1      -0.009   1.413   0.163  0.00  0.00    +0.130 A 
ATOM      2  C   UNL     1       1.313   1.745   0.363  0.00  0.00    +0.066 A 
ATOM      3  C   UNL     1       2.086   0.612   0.056  0.00  0.00    +0.129 A 
ATOM      4  N   UNL     1       1.274  -0.361  -0.313  0.00  0.00    -0.163 NA
ATOM      5  N   UNL     1      -0.044   0.109  -0.256  0.00  0.00    -0.227 N 
ENDROOT
BRANCH   5   6
ATOM      6  C   UNL     1      -1.194  -0.624  -0.572  0.00  0.00    +0.066 A 
ATOM      7  C   UNL     1      -1.413  -1.862   0.019  0.00  0.00    +0.030 A 
ATOM      8  C   UNL     1      -2.550  -2.581  -0.290  0.00  0.00    +0.040 A 
ATOM      9  C   UNL     1      -3.467  -2.074  -1.196  0.00  0.00    +0.124 A 
ATOM     10  C   UNL     1      -3.248  -0.842  -1.790  0.00  0.00    +0.040 A 
ATOM     11  C   UNL     1      -2.115  -0.117  -1.480  0.00  0.00    +0.030 A 
ATOM     12  F   UNL     1      -4.576  -2.782  -1.502  0.00  0.00    -0.205 F 
ENDBRANCH   5   6
BRANCH   3  13
ATOM     13  C   UNL     1       3.560   0.525   0.132  0.00  0.00    +0.155 A 
ATOM     14  C   UNL     1       4.311  -0.570  -0.159  0.00  0.00    +0.051 A 
ATOM     15  C   UNL     1       5.657  -0.206   0.048  0.00  0.00    +0.042 A 
ATOM     16  C   UNL     1       5.660   1.077   0.459  0.00  0.00    +0.196 A 
ATOM     17  O   UNL     1       4.392   1.516   0.509  0.00  0.00    -0.461 OA
ENDBRANCH   3  13
BRANCH   1  19
ATOM     18  N   UNL     1      -2.418   1.797   0.288  0.00  0.00    -0.310 N 
ATOM     19  C   UNL     1      -1.168   2.298   0.358  0.00  0.00    +0.263 C 
ATOM     20  O   UNL     1      -1.000   3.482   0.582  0.00  0.00    -0.269 OA
ATOM     21  H   UNL     1      -2.552   0.841   0.191  0.00  0.00    +0.149 HD
BRANCH  18  22
ATOM     22  C   UNL     1      -3.572   2.696   0.358  0.00  0.00    +0.104 C 
BRANCH  22  23
ATOM     23  C   UNL     1      -4.862   1.879   0.256  0.00  0.00    +0.019 C 
BRANCH  23  24
ATOM     24  C   UNL     1      -6.068   2.817   0.329  0.00  0.00    +0.001 C 
BRANCH  24  26
ATOM     25  C   UNL     1      -8.563   2.939   0.300  0.00  0.00    +0.004 C 
ATOM     26  C   UNL     1      -7.357   2.000   0.227  0.00  0.00    -0.003 C 
ENDBRANCH  24  26
ENDBRANCH  23  24
ENDBRANCH  22  23
ENDBRANCH  18  22
ENDBRANCH   1  19
TORSDOF 7
