REMARK  Name = ZINC03533990
REMARK  7 active torsions:
REMARK  status: ('A' for Active; 'I' for Inactive)
REMARK    1  A    between atoms: C_1  and  C_2
REMARK    2  A    between atoms: C_2  and  C_3
REMARK    3  A    between atoms: C_6  and  C_9
REMARK    4  A    between atoms: C_15  and  C_17
REMARK    5  A    between atoms: C_17  and  N_18
REMARK    6  A    between atoms: C_21  and  C_25
REMARK    7  A    between atoms: C_21  and  C_26
REMARK                            x       y       z     vdW  Elec       q    Type
REMARK                         _______ _______ _______ _____ _____    ______ ____
ROOT
ATOM      1  C   UNL     1       5.947   0.085  -4.774  0.00  0.00    +0.080 A 
ATOM      2  C   UNL     1       4.976   0.464  -5.658  0.00  0.00    +0.076 A 
ATOM      3  S   UNL     1       3.679   0.961  -4.532  0.00  0.00    -0.060 S 
ATOM      4  C   UNL     1       4.560   0.623  -3.014  0.00  0.00    +0.165 A 
ATOM      5  N   UNL     1       5.713   0.175  -3.473  0.00  0.00    -0.225 NA
ATOM      6  N   UNL     1       4.140   0.784  -1.699  0.00  0.00    -0.263 N 
ATOM      7  C   UNL     1       2.908   1.264  -1.439  0.00  0.00    +0.237 C 
ATOM      8  O   UNL     1       2.165   1.554  -2.353  0.00  0.00    -0.274 OA
ATOM      9  H   UNL     1       4.734   0.552  -0.968  0.00  0.00    +0.157 HD
ENDROOT
BRANCH   1  13
ATOM     10  C   UNL     1       9.686  -1.367  -6.186  0.00  0.00    -0.048 A 
ATOM     11  C   UNL     1       9.451  -1.277  -4.826  0.00  0.00    +0.004 A 
ATOM     12  C   UNL     1       8.239  -0.806  -4.362  0.00  0.00    +0.010 A 
ATOM     13  C   UNL     1       7.252  -0.421  -5.266  0.00  0.00    +0.001 A 
ATOM     14  C   UNL     1       7.492  -0.519  -6.636  0.00  0.00    +0.010 A 
ATOM     15  C   UNL     1       8.709  -0.986  -7.089  0.00  0.00    +0.004 A 
BRANCH  10  17
ATOM     16  C   UNL     1      10.935  -3.401  -6.858  0.00  0.00    +0.009 C 
ATOM     17  C   UNL     1      11.011  -1.882  -6.687  0.00  0.00    +0.032 C 
ENDBRANCH  10  17
ENDBRANCH   1  13
BRANCH   7  18
ATOM     18  C   UNL     1       2.453   1.438  -0.013  0.00  0.00    +0.214 C 
BRANCH  18  19
ATOM     19  N   UNL     1       1.087   1.970   0.002  0.00  0.00    -0.215 N 
ATOM     20  C   UNL     1       0.787   3.284   0.012  0.00  0.00    +0.247 C 
ATOM     21  O   UNL     1       1.565   4.213   0.009  0.00  0.00    -0.273 OA
ATOM     22  C   UNL     1      -0.727   3.357   0.027  0.00  0.00    +0.113 C 
ATOM     23  N   UNL     1      -1.143   1.944   0.018  0.00  0.00    -0.285 N 
ATOM     24  C   UNL     1      -0.014   1.211   0.009  0.00  0.00    +0.310 C 
ATOM     25  O   UNL     1       0.002  -0.004   0.002  0.00  0.00    -0.252 OA
ATOM     26  C   UNL     1      -1.244   4.076  -1.221  0.00  0.00    +0.042 C 
ATOM     27  H   UNL     1      -2.052   1.607   0.019  0.00  0.00    +0.151 HD
BRANCH  22  28
ATOM     28  C   UNL     1      -1.220   4.059   1.294  0.00  0.00    +0.021 C 
ATOM     29  C   UNL     1      -1.963   3.212   2.328  0.00  0.00    +0.006 C 
ATOM     30  C   UNL     1      -2.731   4.220   1.471  0.00  0.00    +0.006 C 
ENDBRANCH  22  28
ENDBRANCH  18  19
ENDBRANCH   7  18
TORSDOF 5
