REMARK  Name = ZINC04891221
REMARK  9 active torsions:
REMARK  status: ('A' for Active; 'I' for Inactive)
REMARK    1  A    between atoms: C_1  and  C_2
REMARK    2  A    between atoms: C_5  and  N_11
REMARK    3  A    between atoms: C_7  and  N_8
REMARK    4  A    between atoms: C_12  and  C_14
REMARK    5  A    between atoms: C_14  and  C_16
REMARK    6  A    between atoms: C_14  and  S_17
REMARK    7  A    between atoms: S_17  and  C_18
REMARK    8  A    between atoms: C_22  and  C_24
REMARK    9  A    between atoms: C_29  and  O_30
REMARK                            x       y       z     vdW  Elec       q    Type
REMARK                         _______ _______ _______ _____ _____    ______ ____
ROOT
ATOM      1  C   UNL     1       0.799  -6.195  -1.802  0.00  0.00    +0.137 C 
ATOM      2  C   UNL     1       2.320  -6.360  -1.773  0.00  0.00    +0.029 C 
ENDROOT
BRANCH   1   4
ATOM      3  N   UNL     1       0.441  -4.254  -0.311  0.00  0.00    -0.285 N 
ATOM      4  C   UNL     1       0.445  -4.750  -1.564  0.00  0.00    +0.230 C 
ATOM      5  O   UNL     1       0.164  -4.032  -2.501  0.00  0.00    -0.274 OA
ATOM      6  H   UNL     1       0.601  -4.842   0.444  0.00  0.00    +0.155 HD
BRANCH   3  11
ATOM      7  C   UNL     1      -0.508   1.272   0.551  0.00  0.00    +0.046 C 
ATOM      8  C   UNL     1      -0.256  -0.196   0.323  0.00  0.00    -0.020 A 
ATOM      9  C   UNL     1      -0.899  -0.854  -0.710  0.00  0.00    +0.007 A 
ATOM     10  C   UNL     1      -0.670  -2.199  -0.922  0.00  0.00    +0.024 A 
ATOM     11  C   UNL     1       0.207  -2.891  -0.098  0.00  0.00    +0.036 A 
ATOM     12  C   UNL     1       0.852  -2.228   0.937  0.00  0.00    +0.056 A 
ATOM     13  C   UNL     1       0.623  -0.881   1.141  0.00  0.00    +0.131 A 
BRANCH  13  14
ATOM     14  N   UNL     1       1.314  -0.172   2.242  0.00  0.00    +0.057 N 
ATOM     15  O   UNL     1       1.693   0.966   2.084  0.00  0.00    -0.126 OA
ATOM     16  O   UNL     1       1.499  -0.730   3.298  0.00  0.00    -0.126 OA
ENDBRANCH  13  14
ENDBRANCH   3  11
ENDBRANCH   1   4
BRANCH   1  17
ATOM     17  S   UNL     1       0.165  -6.715  -3.420  0.00  0.00    -0.074 S 
BRANCH  17  18
ATOM     18  C   UNL     1       0.522  -8.439  -3.484  0.00  0.00    +0.185 A 
ATOM     19  N   UNL     1       0.239  -9.271  -4.511  0.00  0.00    -0.253 N 
ATOM     20  H   UNL     1      -0.195  -9.035  -5.346  0.00  0.00    +0.191 HD
ATOM     21  N   UNL     1       0.698 -10.543  -4.132  0.00  0.00    -0.151 NA
ATOM     22  C   UNL     1       1.219 -10.420  -2.933  0.00  0.00    +0.186 A 
ATOM     23  N   UNL     1       1.116  -9.140  -2.544  0.00  0.00    -0.201 NA
BRANCH  22  24
ATOM     24  C   UNL     1       1.827 -11.516  -2.140  0.00  0.00    +0.062 A 
ATOM     25  C   UNL     1       2.342 -11.260  -0.871  0.00  0.00    +0.015 A 
ATOM     26  C   UNL     1       2.907 -12.283  -0.137  0.00  0.00    +0.001 A 
ATOM     27  C   UNL     1       2.963 -13.564  -0.657  0.00  0.00    +0.004 A 
ATOM     28  C   UNL     1       2.454 -13.830  -1.914  0.00  0.00    +0.046 A 
ATOM     29  C   UNL     1       1.880 -12.813  -2.660  0.00  0.00    +0.128 A 
BRANCH  29  30
ATOM     30  O   UNL     1       1.375 -13.073  -3.893  0.00  0.00    -0.506 OA
ATOM     31  H   UNL     1       2.016 -12.973  -4.610  0.00  0.00    +0.292 HD
ENDBRANCH  29  30
ENDBRANCH  22  24
ENDBRANCH  17  18
ENDBRANCH   1  17
TORSDOF 7
