REMARK  Name = ZINC05343945
REMARK  11 active torsions:
REMARK  status: ('A' for Active; 'I' for Inactive)
REMARK    1  A    between atoms: C_1  and  C_2
REMARK    2  A    between atoms: C_2  and  O_3
REMARK    3  A    between atoms: O_3  and  C_4
REMARK    4  A    between atoms: C_8  and  C_10
REMARK    5  A    between atoms: C_13  and  C_24
REMARK    6  A    between atoms: N_20  and  C_21
REMARK    7  A    between atoms: C_21  and  C_22
REMARK    8  A    between atoms: C_22  and  O_23
REMARK    9  A    between atoms: C_26  and  C_32
REMARK   10  A    between atoms: C_28  and  C_31
REMARK   11  A    between atoms: C_29  and  O_30
REMARK                            x       y       z     vdW  Elec       q    Type
REMARK                         _______ _______ _______ _____ _____    ______ ____
ROOT
ATOM      1  C   UNL     1      -4.316  -4.366   0.008  0.00  0.00    +0.141 C 
ATOM      2  C   UNL     1      -4.691  -4.808  -1.380  0.00  0.00    +0.035 A 
ATOM      3  C   UNL     1      -4.911  -4.461  -2.675  0.00  0.00    +0.075 A 
ATOM      4  N   UNL     1      -5.252  -5.607  -3.334  0.00  0.00    -0.276 N 
ATOM      5  H   UNL     1      -5.465  -5.664  -4.279  0.00  0.00    +0.189 HD
ATOM      6  N   UNL     1      -5.247  -6.601  -2.519  0.00  0.00    -0.168 NA
ATOM      7  C   UNL     1      -4.916  -6.202  -1.307  0.00  0.00    +0.153 A 
ATOM      8  C   UNL     1      -4.688  -6.624   0.087  0.00  0.00    +0.268 C 
ATOM      9  O   UNL     1      -4.797  -7.765   0.492  0.00  0.00    -0.268 OA
ATOM     10  N   UNL     1      -4.343  -5.570   0.848  0.00  0.00    -0.283 N 
ENDROOT
BRANCH   3  11
ATOM     11  C   UNL     1      -4.803  -3.106  -3.257  0.00  0.00    +0.042 A 
ATOM     12  C   UNL     1      -5.937  -2.465  -3.756  0.00  0.00    +0.017 A 
ATOM     13  C   UNL     1      -5.830  -1.200  -4.297  0.00  0.00    -0.049 A 
ATOM     14  C   UNL     1      -4.601  -0.565  -4.347  0.00  0.00    +0.010 A 
ATOM     15  C   UNL     1      -3.471  -1.190  -3.856  0.00  0.00    -0.008 A 
ATOM     16  C   UNL     1      -3.564  -2.457  -3.304  0.00  0.00    +0.129 A 
ATOM     17  C   UNL     1      -2.138  -0.491  -3.916  0.00  0.00    +0.047 C 
ATOM     18  C   UNL     1      -7.055  -0.509  -4.836  0.00  0.00    +0.044 C 
BRANCH  16  19
ATOM     19  O   UNL     1      -2.454  -3.071  -2.815  0.00  0.00    -0.506 OA
ATOM     20  H   UNL     1      -1.979  -3.602  -3.468  0.00  0.00    +0.292 HD
ENDBRANCH  16  19
ENDBRANCH   3  11
BRANCH   1  25
ATOM     21  C   UNL     1      -1.498  -1.848   0.006  0.00  0.00    +0.121 A 
ATOM     22  C   UNL     1      -0.387  -2.679  -0.003  0.00  0.00    +0.045 A 
ATOM     23  C   UNL     1      -0.552  -4.051  -0.008  0.00  0.00    +0.004 A 
ATOM     24  C   UNL     1      -1.823  -4.596  -0.004  0.00  0.00    +0.006 A 
ATOM     25  C   UNL     1      -2.932  -3.769   0.004  0.00  0.00    -0.019 A 
ATOM     26  C   UNL     1      -2.772  -2.397   0.016  0.00  0.00    +0.051 A 
BRANCH  21  27
ATOM     27  O   UNL     1      -1.339  -0.499   0.012  0.00  0.00    -0.492 OA
BRANCH  27  29
ATOM     28  C   UNL     1      -0.019   1.526   0.010  0.00  0.00    +0.048 C 
ATOM     29  C   UNL     1       0.002  -0.004   0.002  0.00  0.00    +0.225 C 
ENDBRANCH  27  29
ENDBRANCH  21  27
ENDBRANCH   1  25
BRANCH  10  30
ATOM     30  C   UNL     1      -4.042  -5.615   2.281  0.00  0.00    +0.137 C 
BRANCH  30  31
ATOM     31  C   UNL     1      -5.328  -5.390   3.079  0.00  0.00    +0.175 C 
BRANCH  31  32
ATOM     32  O   UNL     1      -6.228  -6.475   2.848  0.00  0.00    -0.393 OA
ATOM     33  H   UNL     1      -7.067  -6.399   3.323  0.00  0.00    +0.209 HD
ENDBRANCH  31  32
ENDBRANCH  30  31
ENDBRANCH  10  30
TORSDOF 8
