REMARK  Name = ZINC50007171
REMARK  10 active torsions:
REMARK  status: ('A' for Active; 'I' for Inactive)
REMARK    1  A    between atoms: C_1  and  C_2
REMARK    2  A    between atoms: C_5  and  C_7
REMARK    3  A    between atoms: C_9  and  N_12
REMARK    4  A    between atoms: C_13  and  C_15
REMARK    5  A    between atoms: C_15  and  C_16
REMARK    6  A    between atoms: C_16  and  C_17
REMARK    7  A    between atoms: C_18  and  C_26
REMARK    8  A    between atoms: C_20  and  S_24
REMARK    9  A    between atoms: C_22  and  C_23
REMARK   10  A    between atoms: S_24  and  C_25
REMARK                            x       y       z     vdW  Elec       q    Type
REMARK                         _______ _______ _______ _____ _____    ______ ____
ROOT
ATOM      1  N   UNL     1       3.622  -6.386  -0.051  0.00  0.00    -0.176 NA
ATOM      2  C   UNL     1       4.761  -5.754  -0.053  0.00  0.00    +0.250 C 
ATOM      3  O   UNL     1       4.783  -4.407  -0.046  0.00  0.00    -0.271 OA
ENDROOT
BRANCH   1   6
ATOM      4  C   UNL     1       1.039  -4.034  -0.026  0.00  0.00    +0.190 A 
ATOM      5  N   UNL     1       2.336  -4.371  -0.034  0.00  0.00    -0.189 NA
ATOM      6  C   UNL     1       2.453  -5.685  -0.041  0.00  0.00    +0.249 A 
ATOM      7  N   UNL     1       1.200  -6.216  -0.038  0.00  0.00    -0.243 N 
ATOM      8  N   UNL     1       0.310  -5.130  -0.023  0.00  0.00    -0.150 NA
ATOM      9  H   UNL     1       0.969  -7.158  -0.042  0.00  0.00    +0.192 HD
BRANCH   4  14
ATOM     10  C   UNL     1      -0.018   1.503   0.010  0.00  0.00    +0.051 C 
ATOM     11  C   UNL     1       0.002  -0.004   0.002  0.00  0.00    -0.013 A 
ATOM     12  C   UNL     1      -1.042  -0.872   0.002  0.00  0.00    +0.011 A 
ATOM     13  C   UNL     1      -0.789  -2.226  -0.007  0.00  0.00    +0.019 A 
ATOM     14  C   UNL     1       0.511  -2.653  -0.016  0.00  0.00    +0.058 A 
ATOM     15  S   UNL     1       1.405  -1.107  -0.018  0.00  0.00    -0.090 S 
ENDBRANCH   4  14
ENDBRANCH   1   6
BRANCH   2  16
ATOM     16  C   UNL     1       6.053  -6.529  -0.064  0.00  0.00    +0.105 C 
BRANCH  16  17
ATOM     17  C   UNL     1       5.748  -8.029  -0.071  0.00  0.00    +0.048 C 
BRANCH  17  18
ATOM     18  C   UNL     1       7.040  -8.804  -0.081  0.00  0.00    -0.005 A 
ATOM     19  C   UNL     1       7.644  -9.157  -1.278  0.00  0.00    +0.046 A 
ATOM     20  N   UNL     1       8.778  -9.838  -1.253  0.00  0.00    -0.227 NA
ATOM     21  C   UNL     1       9.336 -10.182  -0.100  0.00  0.00    +0.188 A 
ATOM     22  N   UNL     1       8.784  -9.860   1.061  0.00  0.00    -0.227 NA
ATOM     23  C   UNL     1       7.653  -9.175   1.105  0.00  0.00    +0.046 A 
ATOM     24  C   UNL     1       7.036  -8.807   2.430  0.00  0.00    +0.066 C 
ATOM     25  C   UNL     1       7.016  -8.771  -2.592  0.00  0.00    +0.066 C 
BRANCH  21  26
ATOM     26  S   UNL     1      10.846 -11.089  -0.113  0.00  0.00    -0.089 S 
ATOM     27  C   UNL     1      11.227 -11.331   1.644  0.00  0.00    +0.093 C 
ENDBRANCH  21  26
ENDBRANCH  17  18
ENDBRANCH  16  17
ENDBRANCH   2  16
TORSDOF 6
