REMARK  Name = ZINC03104707
REMARK  5 active torsions:
REMARK  status: ('A' for Active; 'I' for Inactive)
REMARK    1  A    between atoms: C_1  and  N_2
REMARK    2  A    between atoms: N_2  and  N_14
REMARK    3  A    between atoms: C_6  and  C_9
REMARK    4  A    between atoms: N_14  and  C_15
REMARK    5  A    between atoms: N_19  and  C_24
REMARK                            x       y       z     vdW  Elec       q    Type
REMARK                         _______ _______ _______ _____ _____    ______ ____
ROOT
ATOM      1  C   UNL     1       0.968  -0.755  -2.064  0.00  0.00    +0.122 A 
ATOM      2  C   UNL     1       2.144  -0.138  -1.736  0.00  0.00    +0.113 A 
ATOM      3  C   UNL     1       3.224  -0.211  -2.630  0.00  0.00    +0.263 A 
ATOM      4  O   UNL     1       4.282   0.330  -2.358  0.00  0.00    -0.267 OA
ATOM      5  N   UNL     1       3.085  -0.884  -3.789  0.00  0.00    -0.228 N 
ATOM      6  C   UNL     1       1.921  -1.485  -4.096  0.00  0.00    +0.335 A 
ATOM      7  O   UNL     1       1.816  -2.088  -5.146  0.00  0.00    -0.246 OA
ATOM      8  N   UNL     1       0.872  -1.435  -3.254  0.00  0.00    -0.294 N 
ATOM      9  H   UNL     1       0.042  -1.878  -3.490  0.00  0.00    +0.172 HD
ENDROOT
BRANCH   5  10
ATOM     10  C   UNL     1       4.162  -0.959  -4.683  0.00  0.00    +0.073 A 
ATOM     11  C   UNL     1       5.071  -2.004  -4.592  0.00  0.00    +0.029 A 
ATOM     12  C   UNL     1       6.131  -2.075  -5.475  0.00  0.00    +0.022 A 
ATOM     13  C   UNL     1       6.288  -1.106  -6.450  0.00  0.00    +0.042 A 
ATOM     14  C   UNL     1       5.384  -0.062  -6.543  0.00  0.00    +0.042 A 
ATOM     15  C   UNL     1       4.318   0.011  -5.666  0.00  0.00    +0.066 A 
ATOM     16 CL   UNL     1       3.181   1.316  -5.788  0.00  0.00    -0.081 Cl
ATOM     17 CL   UNL     1       7.622  -1.198  -7.557  0.00  0.00    -0.083 Cl
ENDBRANCH   5  10
BRANCH   1  18
ATOM     18  N   UNL     1      -0.103  -0.699  -1.210  0.00  0.00    -0.248 N 
ATOM     19  H   UNL     1      -0.934  -1.142  -1.444  0.00  0.00    +0.172 HD
BRANCH  18  21
ATOM     20  C   UNL     1      -0.020   1.461   0.010  0.00  0.00    +0.155 C 
ATOM     21  N   UNL     1       0.002  -0.004   0.002  0.00  0.00    -0.237 N 
ATOM     22  C   UNL     1       0.128  -0.704   1.197  0.00  0.00    +0.156 A 
ATOM     23  C   UNL     1       0.257  -2.091   1.174  0.00  0.00    +0.083 A 
ATOM     24  C   UNL     1       0.381  -2.774   2.371  0.00  0.00    +0.037 A 
ATOM     25  C   UNL     1       0.372  -2.046   3.554  0.00  0.00    +0.074 A 
ATOM     26  C   UNL     1       0.241  -0.673   3.502  0.00  0.00    +0.125 A 
ATOM     27  N   UNL     1       0.130  -0.047   2.346  0.00  0.00    -0.237 NA
ATOM     28 CL   UNL     1       0.261  -2.949  -0.335  0.00  0.00    -0.080 Cl
BRANCH  25  29
ATOM     29  C   UNL     1       0.505  -2.749   4.880  0.00  0.00    +0.419 C 
ATOM     30  F   UNL     1       1.857  -2.843   5.225  0.00  0.00    -0.166 F 
ATOM     31  F   UNL     1      -0.177  -2.022   5.863  0.00  0.00    -0.166 F 
ATOM     32  F   UNL     1      -0.043  -4.032   4.785  0.00  0.00    -0.166 F 
ENDBRANCH  25  29
ENDBRANCH  18  21
ENDBRANCH   1  18
TORSDOF 4
