REMARK  Name = ZINC00931393
REMARK  11 active torsions:
REMARK  status: ('A' for Active; 'I' for Inactive)
REMARK    1  A    between atoms: C_1  and  C_2
REMARK    2  A    between atoms: C_3  and  C_8
REMARK    3  A    between atoms: N_5  and  C_7
REMARK    4  A    between atoms: C_8  and  C_10
REMARK    5  A    between atoms: C_8  and  N_19
REMARK    6  A    between atoms: N_12  and  C_13
REMARK    7  A    between atoms: N_19  and  C_20
REMARK    8  A    between atoms: C_23  and  C_26
REMARK    9  A    between atoms: C_26  and  O_28
REMARK   10  A    between atoms: O_28  and  C_29
REMARK   11  A    between atoms: C_30  and  C_32
REMARK                            x       y       z     vdW  Elec       q    Type
REMARK                         _______ _______ _______ _____ _____    ______ ____
ROOT
ATOM      1  N   UNL     1       0.191  -1.472  -3.573  0.00  0.00    -0.252 N 
ATOM      2  C   UNL     1      -0.372  -2.671  -3.320  0.00  0.00    +0.265 C 
ATOM      3  O   UNL     1       0.128  -3.682  -3.766  0.00  0.00    -0.271 OA
ENDROOT
BRANCH   2   4
ATOM      4  C   UNL     1      -1.623  -2.754  -2.483  0.00  0.00    +0.296 C 
ATOM      5  C   UNL     1      -1.291  -2.425  -1.022  0.00  0.00    +0.283 C 
ATOM      6  O   UNL     1      -2.495  -2.527  -0.254  0.00  0.00    -0.484 OA
ATOM      7  C   UNL     1      -3.266  -3.629  -0.469  0.00  0.00    +0.162 A 
ATOM      8  C   UNL     1      -4.229  -3.978   0.466  0.00  0.00    +0.049 A 
ATOM      9  C   UNL     1      -5.021  -5.092   0.260  0.00  0.00    +0.004 A 
ATOM     10  C   UNL     1      -4.856  -5.860  -0.877  0.00  0.00    +0.004 A 
ATOM     11  C   UNL     1      -3.896  -5.519  -1.811  0.00  0.00    +0.049 A 
ATOM     12  C   UNL     1      -3.097  -4.403  -1.611  0.00  0.00    +0.163 A 
ATOM     13  O   UNL     1      -2.152  -4.084  -2.536  0.00  0.00    -0.472 OA
ENDBRANCH   2   4
BRANCH   1  14
ATOM     14  C   UNL     1       1.266  -1.380  -4.456  0.00  0.00    +0.038 A 
ATOM     15  C   UNL     1       1.961  -0.181  -4.579  0.00  0.00    +0.024 A 
ATOM     16  C   UNL     1       3.023  -0.086  -5.449  0.00  0.00    +0.017 A 
ATOM     17  C   UNL     1       3.403  -1.196  -6.210  0.00  0.00    +0.059 A 
ATOM     18  C   UNL     1       2.702  -2.399  -6.083  0.00  0.00    +0.017 A 
ATOM     19  C   UNL     1       1.644  -2.488  -5.207  0.00  0.00    +0.024 A 
BRANCH  17  20
ATOM     20  C   UNL     1       4.540  -1.098  -7.144  0.00  0.00    +0.339 C 
ATOM     21  O   UNL     1       5.148  -0.052  -7.253  0.00  0.00    -0.245 OA
BRANCH  20  22
ATOM     22  O   UNL     1       4.904  -2.169  -7.877  0.00  0.00    -0.464 OA
ATOM     23  C   UNL     1       6.014  -2.002  -8.761  0.00  0.00    +0.280 C 
ENDBRANCH  20  22
ENDBRANCH  17  20
ENDBRANCH   1  14
BRANCH   1  24
ATOM     24  C   UNL     1      -0.327  -0.268  -2.921  0.00  0.00    +0.200 C 
BRANCH  24  27
ATOM     25  C   UNL     1      -2.047  -0.759  -5.537  0.00  0.00    +0.068 C 
ATOM     26  C   UNL     1      -1.424   0.548  -5.120  0.00  0.00    +0.065 A 
ATOM     27  C   UNL     1      -0.664   0.764  -3.966  0.00  0.00    +0.022 A 
ATOM     28  C   UNL     1      -0.287   2.064  -3.953  0.00  0.00    +0.114 A 
ATOM     29  N   UNL     1      -0.789   2.649  -5.060  0.00  0.00    -0.274 N 
ATOM     30  N   UNL     1      -1.495   1.676  -5.780  0.00  0.00    -0.176 NA
ATOM     31  C   UNL     1      -0.622   4.053  -5.444  0.00  0.00    +0.172 C 
ENDBRANCH  24  27
BRANCH  24  32
ATOM     32  C   UNL     1       0.718   0.286  -1.986  0.00  0.00    +0.239 C 
ATOM     33  O   UNL     1       1.827  -0.203  -1.958  0.00  0.00    -0.273 OA
ATOM     34  N   UNL     1       0.419   1.326  -1.183  0.00  0.00    -0.311 N 
ATOM     35  H   UNL     1      -0.486   1.671  -1.151  0.00  0.00    +0.149 HD
BRANCH  34  36
ATOM     36  C   UNL     1       1.464   1.936  -0.355  0.00  0.00    +0.073 C 
ATOM     37  C   UNL     1       1.600   1.153   0.952  0.00  0.00    +0.022 C 
ATOM     38  C   UNL     1       2.691   1.789   1.816  0.00  0.00    +0.002 C 
ATOM     39  C   UNL     1       2.315   3.239   2.126  0.00  0.00    +0.000 C 
ATOM     40  C   UNL     1       2.179   4.022   0.819  0.00  0.00    +0.002 C 
ATOM     41  C   UNL     1       1.088   3.386  -0.045  0.00  0.00    +0.022 C 
ENDBRANCH  34  36
ENDBRANCH  24  32
ENDBRANCH   1  24
TORSDOF 8
