REMARK  Name = ZINC11902989
REMARK  8 active torsions:
REMARK  status: ('A' for Active; 'I' for Inactive)
REMARK    1  A    between atoms: C_1  and  C_2
REMARK    2  A    between atoms: C_2  and  O_3
REMARK    3  A    between atoms: O_3  and  C_4
REMARK    4  A    between atoms: C_4  and  C_6
REMARK    5  A    between atoms: C_10  and  N_11
REMARK    6  A    between atoms: C_12  and  C_14
REMARK    7  A    between atoms: C_14  and  S_15
REMARK    8  A    between atoms: S_15  and  C_16
REMARK                            x       y       z     vdW  Elec       q    Type
REMARK                         _______ _______ _______ _____ _____    ______ ____
ROOT
ATOM      1  N   UNL     1      -0.288   1.272  -2.443  0.00  0.00    -0.279 N 
ATOM      2  C   UNL     1      -0.742   1.585  -1.213  0.00  0.00    +0.228 C 
ATOM      3  O   UNL     1      -1.736   2.268  -1.088  0.00  0.00    -0.275 OA
ATOM      4  H   UNL     1       0.507   0.726  -2.543  0.00  0.00    +0.155 HD
ENDROOT
BRANCH   1   9
ATOM      5  C   UNL     1      -0.647   1.522  -4.903  0.00  0.00    +0.091 A 
ATOM      6  C   UNL     1      -1.524   2.116  -5.898  0.00  0.00    -0.021 A 
ATOM      7  C   UNL     1      -2.558   2.829  -5.401  0.00  0.00    -0.004 A 
ATOM      8  S   UNL     1      -2.385   2.712  -3.643  0.00  0.00    -0.077 S 
ATOM      9  C   UNL     1      -0.959   1.732  -3.566  0.00  0.00    +0.086 A 
ATOM     10  C   UNL     1      -3.613   3.554  -6.179  0.00  0.00    +0.043 C 
ATOM     11  C   UNL     1      -3.137   3.684  -7.633  0.00  0.00    +0.005 C 
ATOM     12  C   UNL     1      -2.631   2.320  -8.110  0.00  0.00    +0.005 C 
ATOM     13  C   UNL     1      -1.321   1.974  -7.401  0.00  0.00    +0.037 C 
BRANCH   5  14
ATOM     14  C   UNL     1       0.520   0.730  -5.296  0.00  0.00    +0.342 C 
ATOM     15  O   UNL     1       0.412  -0.470  -5.461  0.00  0.00    -0.245 OA
BRANCH  14  16
ATOM     16  O   UNL     1       1.715   1.330  -5.474  0.00  0.00    -0.461 OA
BRANCH  16  18
ATOM     17  C   UNL     1       4.088   1.335  -6.017  0.00  0.00    +0.048 C 
ATOM     18  C   UNL     1       2.827   0.483  -5.863  0.00  0.00    +0.229 C 
ENDBRANCH  16  18
ENDBRANCH  14  16
ENDBRANCH   5  14
ENDBRANCH   1   9
BRANCH   2  19
ATOM     19  C   UNL     1      -0.013   1.086   0.008  0.00  0.00    +0.173 C 
BRANCH  19  20
ATOM     20  S   UNL     1      -0.860   1.669   1.497  0.00  0.00    -0.078 S 
BRANCH  20  21
ATOM     21  C   UNL     1       0.174   0.961   2.735  0.00  0.00    +0.170 A 
ATOM     22  N   UNL     1      -0.119   1.164   4.049  0.00  0.00    -0.302 N 
ATOM     23  H   UNL     1      -0.891   1.695   4.300  0.00  0.00    +0.171 HD
ATOM     24  C   UNL     1       0.670   0.623   5.001  0.00  0.00    +0.255 A 
ATOM     25  O   UNL     1       0.423   0.794   6.183  0.00  0.00    -0.267 OA
ATOM     26  C   UNL     1       1.782  -0.142   4.605  0.00  0.00    +0.038 A 
ATOM     27  C   UNL     1       2.030  -0.313   3.275  0.00  0.00    +0.052 A 
ATOM     28  N   UNL     1       1.216   0.238   2.374  0.00  0.00    -0.228 NA
ATOM     29  C   UNL     1       3.268  -1.164   3.085  0.00  0.00    +0.056 C 
ATOM     30  C   UNL     1       3.497  -1.851   4.449  0.00  0.00    +0.011 C 
ATOM     31  C   UNL     1       2.828  -0.861   5.427  0.00  0.00    +0.043 C 
ENDBRANCH  20  21
ENDBRANCH  19  20
ENDBRANCH   2  19
TORSDOF 7
