REMARK  Name = ZINC06743344
REMARK  11 active torsions:
REMARK  status: ('A' for Active; 'I' for Inactive)
REMARK    1  A    between atoms: C_1  and  C_2
REMARK    2  A    between atoms: C_2  and  O_3
REMARK    3  A    between atoms: O_3  and  C_4
REMARK    4  A    between atoms: C_6  and  C_11
REMARK    5  A    between atoms: C_9  and  O_10
REMARK    6  A    between atoms: C_17  and  C_32
REMARK    7  A    between atoms: C_19  and  C_31
REMARK    8  A    between atoms: N_26  and  C_27
REMARK    9  A    between atoms: C_27  and  C_28
REMARK   10  A    between atoms: C_28  and  C_29
REMARK   11  A    between atoms: C_29  and  O_30
REMARK                            x       y       z     vdW  Elec       q    Type
REMARK                         _______ _______ _______ _____ _____    ______ ____
ROOT
ATOM      1  C   UNL     1      -5.094   3.358  -0.968  0.00  0.00    +0.145 C 
ATOM      2  C   UNL     1      -3.650   3.031  -0.689  0.00  0.00    +0.072 A 
ATOM      3  C   UNL     1      -2.469   3.868  -0.455  0.00  0.00    +0.199 A 
ATOM      4  O   UNL     1      -2.536   5.085  -0.462  0.00  0.00    -0.287 OA
ATOM      5  C   UNL     1      -1.195   3.163  -0.211  0.00  0.00    +0.067 A 
ATOM      6  C   UNL     1      -0.011   3.860   0.022  0.00  0.00    -0.036 A 
ATOM      7  C   UNL     1       1.148   3.169   0.243  0.00  0.00    +0.007 A 
ATOM      8  C   UNL     1       1.149   1.781   0.237  0.00  0.00    -0.047 A 
ATOM      9  C   UNL     1      -0.013   1.076   0.009  0.00  0.00    +0.050 A 
ATOM     10  C   UNL     1      -1.204   1.758  -0.224  0.00  0.00    +0.140 A 
ATOM     11  O   UNL     1      -2.347   1.084  -0.444  0.00  0.00    -0.450 OA
ATOM     12  C   UNL     1      -3.534   1.681  -0.672  0.00  0.00    +0.199 A 
ATOM     13  C   UNL     1      -4.871   1.094  -0.935  0.00  0.00    +0.283 C 
ATOM     14  O   UNL     1      -5.110  -0.097  -0.987  0.00  0.00    -0.267 OA
ATOM     15  N   UNL     1      -5.781   2.068  -1.107  0.00  0.00    -0.284 N 
ATOM     16  C   UNL     1       2.436   1.037   0.484  0.00  0.00    +0.044 C 
ATOM     17  C   UNL     1      -0.008   5.367   0.029  0.00  0.00    +0.044 C 
ENDROOT
BRANCH   1  20
ATOM     18  C   UNL     1      -6.371   6.226   1.134  0.00  0.00    +0.162 A 
ATOM     19  C   UNL     1      -5.832   5.508   0.079  0.00  0.00    +0.055 A 
ATOM     20  C   UNL     1      -5.681   4.138   0.181  0.00  0.00    -0.019 A 
ATOM     21  C   UNL     1      -6.072   3.480   1.332  0.00  0.00    +0.009 A 
ATOM     22  C   UNL     1      -6.606   4.191   2.391  0.00  0.00    +0.049 A 
ATOM     23  C   UNL     1      -6.760   5.565   2.295  0.00  0.00    +0.158 A 
BRANCH  23  24
ATOM     24  O   UNL     1      -7.290   6.265   3.333  0.00  0.00    -0.503 OA
ATOM     25  H   UNL     1      -8.253   6.353   3.297  0.00  0.00    +0.292 HD
ENDBRANCH  23  24
BRANCH  18  26
ATOM     26  O   UNL     1      -6.520   7.574   1.035  0.00  0.00    -0.489 OA
BRANCH  26  28
ATOM     27  C   UNL     1      -6.342   9.694  -0.112  0.00  0.00    +0.048 C 
ATOM     28  C   UNL     1      -6.099   8.186  -0.186  0.00  0.00    +0.226 C 
ENDBRANCH  26  28
ENDBRANCH  18  26
ENDBRANCH   1  20
BRANCH  15  29
ATOM     29  C   UNL     1      -7.206   1.877  -1.385  0.00  0.00    +0.111 C 
BRANCH  29  30
ATOM     30  C   UNL     1      -7.427   1.816  -2.898  0.00  0.00    +0.047 C 
BRANCH  30  31
ATOM     31  C   UNL     1      -8.915   1.617  -3.189  0.00  0.00    +0.157 C 
BRANCH  31  32
ATOM     32  O   UNL     1      -9.121   1.560  -4.602  0.00  0.00    -0.395 OA
ATOM     33  H   UNL     1     -10.045   1.435  -4.860  0.00  0.00    +0.209 HD
ENDBRANCH  31  32
ENDBRANCH  30  31
ENDBRANCH  29  30
ENDBRANCH  15  29
TORSDOF 8
