REMARK  Name = ZINC23336445
REMARK  11 active torsions:
REMARK  status: ('A' for Active; 'I' for Inactive)
REMARK    1  A    between atoms: C_4  and  C_7
REMARK    2  A    between atoms: C_7  and  C_9
REMARK    3  A    between atoms: C_7  and  O_19
REMARK    4  A    between atoms: C_13  and  C_15
REMARK    5  A    between atoms: O_19  and  C_20
REMARK    6  A    between atoms: C_20  and  C_21
REMARK    7  A    between atoms: C_21  and  N_22
REMARK    8  A    between atoms: N_25  and  C_28
REMARK    9  A    between atoms: C_28  and  C_29
REMARK   10  A    between atoms: C_31  and  O_36
REMARK   11  A    between atoms: C_33  and  O_35
REMARK                            x       y       z     vdW  Elec       q    Type
REMARK                         _______ _______ _______ _____ _____    ______ ____
ROOT
ATOM      1  C   UNL     1      -0.836   7.056   1.510  0.00  0.00    +0.142 C 
ENDROOT
BRANCH   1   2
ATOM      2  O   UNL     1      -1.181   5.860   0.808  0.00  0.00    -0.369 OA
BRANCH   2   3
ATOM      3  C   UNL     1      -0.168   5.399  -0.087  0.00  0.00    +0.178 C 
BRANCH   3   7
ATOM      4  C   UNL     1      -0.773   7.142  -3.940  0.00  0.00    +0.000 A 
ATOM      5  C   UNL     1       0.510   6.913  -3.478  0.00  0.00    +0.000 A 
ATOM      6  C   UNL     1       0.706   6.349  -2.232  0.00  0.00    +0.006 A 
ATOM      7  C   UNL     1      -0.381   6.014  -1.446  0.00  0.00    -0.015 A 
ATOM      8  C   UNL     1      -1.664   6.238  -1.910  0.00  0.00    +0.006 A 
ATOM      9  C   UNL     1      -1.860   6.806  -3.155  0.00  0.00    +0.000 A 
ENDBRANCH   3   7
BRANCH   3  10
ATOM     10  C   UNL     1      -0.241   3.897  -0.199  0.00  0.00    -0.014 A 
ATOM     11  C   UNL     1      -1.471   3.267  -0.252  0.00  0.00    +0.006 A 
ATOM     12  C   UNL     1      -1.538   1.891  -0.360  0.00  0.00    +0.001 A 
ATOM     13  C   UNL     1      -0.375   1.143  -0.402  0.00  0.00    +0.012 A 
ATOM     14  C   UNL     1       0.854   1.774  -0.348  0.00  0.00    +0.055 A 
ATOM     15  C   UNL     1       0.921   3.151  -0.246  0.00  0.00    +0.019 A 
BRANCH  14  16
ATOM     16  C   UNL     1       2.121   0.959  -0.400  0.00  0.00    +0.417 C 
ATOM     17  F   UNL     1       1.799  -0.398  -0.503  0.00  0.00    -0.166 F 
ATOM     18  F   UNL     1       2.877   1.345  -1.513  0.00  0.00    -0.166 F 
ATOM     19  F   UNL     1       2.863   1.176   0.766  0.00  0.00    -0.166 F 
ENDBRANCH  14  16
ENDBRANCH   3  10
ENDBRANCH   2   3
ENDBRANCH   1   2
BRANCH   1  20
ATOM     20  C   UNL     1      -1.988   7.455   2.436  0.00  0.00    -0.050 C 
BRANCH  20  21
ATOM     21  N   UNL     1      -2.158   6.431   3.475  0.00  0.00    +0.383 N 
ATOM     22  C   UNL     1      -3.494   6.514   4.082  0.00  0.00    -0.063 C 
ATOM     23  C   UNL     1      -3.659   5.384   5.101  0.00  0.00    +0.066 C 
ATOM     24  N   UNL     1      -2.611   5.493   6.125  0.00  0.00    -0.302 NA
ATOM     25  C   UNL     1      -1.275   5.409   5.517  0.00  0.00    +0.066 C 
ATOM     26  C   UNL     1      -1.109   6.539   4.498  0.00  0.00    -0.063 C 
ATOM     27  H   UNL     1      -2.064   5.445   2.995  0.00  0.00    -0.082 HD
BRANCH  24  28
ATOM     28  C   UNL     1      -2.781   4.469   7.164  0.00  0.00    +0.119 C 
BRANCH  28  29
ATOM     29  C   UNL     1      -4.226   4.421   7.590  0.00  0.00    -0.026 A 
ATOM     30  C   UNL     1      -4.664   5.215   8.633  0.00  0.00    +0.050 A 
ATOM     31  C   UNL     1      -5.995   5.176   9.023  0.00  0.00    +0.121 A 
ATOM     32  C   UNL     1      -6.883   4.333   8.373  0.00  0.00    +0.090 A 
ATOM     33  C   UNL     1      -6.440   3.534   7.331  0.00  0.00    +0.121 A 
ATOM     34  C   UNL     1      -5.109   3.579   6.941  0.00  0.00    +0.050 A 
BRANCH  33  35
ATOM     35  O   UNL     1      -7.308   2.706   6.692  0.00  0.00    -0.507 OA
ATOM     36  H   UNL     1      -6.955   2.072   5.865  0.00  0.00    +0.292 HD
ENDBRANCH  33  35
BRANCH  31  37
ATOM     37  O   UNL     1      -6.427   5.961  10.045  0.00  0.00    -0.507 OA
ATOM     38  H   UNL     1      -7.482   5.931  10.354  0.00  0.00    +0.292 HD
ENDBRANCH  31  37
ENDBRANCH  28  29
ENDBRANCH  24  28
ENDBRANCH  20  21
ENDBRANCH   1  20
TORSDOF 11
