REMARK  Name = ZINC10158690
REMARK  8 active torsions:
REMARK  status: ('A' for Active; 'I' for Inactive)
REMARK    1  A    between atoms: C_4  and  N_7
REMARK    2  A    between atoms: C_9  and  O_33
REMARK    3  A    between atoms: C_10  and  C_12
REMARK    4  A    between atoms: N_14  and  N_15
REMARK    5  A    between atoms: C_16  and  C_18
REMARK    6  A    between atoms: C_21  and  C_23
REMARK    7  A    between atoms: C_23  and  S_24
REMARK    8  A    between atoms: S_24  and  C_27
REMARK                            x       y       z     vdW  Elec       q    Type
REMARK                         _______ _______ _______ _____ _____    ______ ____
ROOT
ATOM      1  N   UNL     1      -2.394   1.153   0.020  0.00  0.00    -0.228 N 
ATOM      2  C   UNL     1      -3.571   1.811   0.029  0.00  0.00    +0.295 C 
ATOM      3  O   UNL     1      -3.587   3.028   0.035  0.00  0.00    -0.265 OA
ATOM      4  H   UNL     1      -2.381   0.183   0.014  0.00  0.00    +0.173 HD
ENDROOT
BRANCH   2   5
ATOM      5  C   UNL     1      -4.830   1.060   0.031  0.00  0.00    +0.191 A 
ATOM      6  C   UNL     1      -6.085   1.599   0.040  0.00  0.00    +0.055 A 
ATOM      7  C   UNL     1      -6.986   0.523   0.037  0.00  0.00    +0.047 A 
ATOM      8  C   UNL     1      -6.252  -0.611   0.027  0.00  0.00    +0.127 A 
ATOM      9  O   UNL     1      -4.953  -0.283   0.018  0.00  0.00    -0.453 OA
BRANCH   8  10
ATOM     10  C   UNL     1      -6.803  -2.014   0.020  0.00  0.00    +0.245 C 
BRANCH  10  11
ATOM     11  S   UNL     1      -7.030  -2.566  -1.693  0.00  0.00    +0.004 S 
ATOM     12  O   UNL     1      -8.068  -1.819  -2.314  0.00  0.00    -0.169 OA
ATOM     13  O   UNL     1      -5.769  -2.722  -2.329  0.00  0.00    -0.169 OA
BRANCH  11  14
ATOM     14  C   UNL     1      -7.672  -4.202  -1.560  0.00  0.00    +0.089 A 
ATOM     15  C   UNL     1      -6.809  -5.281  -1.520  0.00  0.00    +0.027 A 
ATOM     16  C   UNL     1      -7.312  -6.564  -1.411  0.00  0.00    +0.002 A 
ATOM     17  C   UNL     1      -8.678  -6.768  -1.352  0.00  0.00    +0.000 A 
ATOM     18  C   UNL     1      -9.541  -5.689  -1.397  0.00  0.00    +0.002 A 
ATOM     19  C   UNL     1      -9.038  -4.406  -1.500  0.00  0.00    +0.027 A 
ENDBRANCH  11  14
ENDBRANCH  10  11
ENDBRANCH   8  10
ENDBRANCH   2   5
BRANCH   1  22
ATOM     20  C   UNL     1      -0.014   1.212   0.009  0.00  0.00    +0.284 C 
ATOM     21  O   UNL     1       0.002  -0.004   0.002  0.00  0.00    -0.267 OA
ATOM     22  N   UNL     1      -1.191   1.870   0.018  0.00  0.00    -0.229 N 
ATOM     23  H   UNL     1      -1.204   2.840   0.023  0.00  0.00    +0.173 HD
BRANCH  20  27
ATOM     24  N   UNL     1       2.626   3.603  -0.003  0.00  0.00    -0.236 N 
ATOM     25  C   UNL     1       3.401   2.483  -0.016  0.00  0.00    +0.160 A 
ATOM     26  C   UNL     1       2.560   1.417  -0.009  0.00  0.00    +0.167 A 
ATOM     27  C   UNL     1       1.253   1.966   0.001  0.00  0.00    +0.190 A 
ATOM     28  N   UNL     1       1.383   3.280   0.007  0.00  0.00    -0.158 NA
BRANCH  24  32
ATOM     29  C   UNL     1       4.078   7.510   0.007  0.00  0.00    +0.000 A 
ATOM     30  C   UNL     1       2.714   7.280   0.018  0.00  0.00    +0.002 A 
ATOM     31  C   UNL     1       2.230   5.987   0.015  0.00  0.00    +0.028 A 
ATOM     32  C   UNL     1       3.114   4.916   0.000  0.00  0.00    +0.065 A 
ATOM     33  C   UNL     1       4.483   5.150  -0.005  0.00  0.00    +0.028 A 
ATOM     34  C   UNL     1       4.961   6.446  -0.007  0.00  0.00    +0.002 A 
ENDBRANCH  24  32
BRANCH  26  35
ATOM     35  O   UNL     1       2.901   0.100  -0.013  0.00  0.00    -0.503 OA
ATOM     36  H   UNL     1       2.993  -0.279  -0.898  0.00  0.00    +0.292 HD
ENDBRANCH  26  35
ENDBRANCH  20  27
ENDBRANCH   1  22
TORSDOF 8
