REMARK  Name = ZINC22786997
REMARK  9 active torsions:
REMARK  status: ('A' for Active; 'I' for Inactive)
REMARK    1  A    between atoms: C_1  and  C_2
REMARK    2  A    between atoms: C_2  and  C_4
REMARK    3  A    between atoms: C_2  and  N_22
REMARK    4  A    between atoms: N_6  and  C_7
REMARK    5  A    between atoms: C_10  and  S_13
REMARK    6  A    between atoms: S_13  and  N_16
REMARK    7  A    between atoms: N_25  and  C_28
REMARK    8  A    between atoms: C_28  and  C_29
REMARK    9  A    between atoms: C_30  and  C_31
REMARK                            x       y       z     vdW  Elec       q    Type
REMARK                         _______ _______ _______ _____ _____    ______ ____
ROOT
ATOM      1  C   UNL     1       0.829  -0.367   1.236  0.00  0.00    +0.234 C 
ATOM      2  O   UNL     1       1.905  -0.917   1.131  0.00  0.00    -0.274 OA
ATOM      3  N   UNL     1       0.278  -0.191   2.453  0.00  0.00    -0.284 N 
ATOM      4  H   UNL     1      -0.544   0.316   2.545  0.00  0.00    +0.155 HD
ENDROOT
BRANCH   3   5
ATOM      5  C   UNL     1       0.891  -0.739   3.585  0.00  0.00    +0.034 A 
ATOM      6  C   UNL     1       0.813  -0.082   4.806  0.00  0.00    +0.025 A 
ATOM      7  C   UNL     1       1.419  -0.625   5.921  0.00  0.00    +0.030 A 
ATOM      8  C   UNL     1       2.104  -1.823   5.823  0.00  0.00    +0.106 A 
ATOM      9  C   UNL     1       2.185  -2.479   4.609  0.00  0.00    +0.030 A 
ATOM     10  C   UNL     1       1.575  -1.944   3.491  0.00  0.00    +0.025 A 
BRANCH   8  11
ATOM     11  S   UNL     1       2.877  -2.513   7.248  0.00  0.00    +0.061 S 
ATOM     12  O   UNL     1       3.915  -3.361   6.777  0.00  0.00    -0.153 OA
ATOM     13  O   UNL     1       3.120  -1.434   8.141  0.00  0.00    -0.153 OA
BRANCH  11  14
ATOM     14  N   UNL     1       1.763  -3.493   7.983  0.00  0.00    -0.172 NA
ATOM     15  C   UNL     1       0.846  -2.964   9.005  0.00  0.00    +0.137 C 
ATOM     16  C   UNL     1      -0.583  -3.377   8.634  0.00  0.00    +0.177 C 
ATOM     17  O   UNL     1      -0.623  -4.790   8.415  0.00  0.00    -0.377 OA
ATOM     18  C   UNL     1       0.191  -5.236   7.328  0.00  0.00    +0.177 C 
ATOM     19  C   UNL     1       1.656  -4.917   7.628  0.00  0.00    +0.137 C 
ENDBRANCH  11  14
ENDBRANCH   8  11
ENDBRANCH   3   5
BRANCH   1  21
ATOM     20  C   UNL     1      -0.100   1.633   0.101  0.00  0.00    +0.034 C 
ATOM     21  C   UNL     1       0.109   0.120   0.005  0.00  0.00    +0.140 C 
BRANCH  21  22
ATOM     22  N   UNL     1       0.911  -0.189  -1.186  0.00  0.00    -0.295 NA
ATOM     23  C   UNL     1       2.214   0.490  -1.135  0.00  0.00    +0.066 C 
ATOM     24  C   UNL     1       3.040   0.095  -2.361  0.00  0.00    -0.063 C 
ATOM     25  N   UNL     1       2.318   0.477  -3.581  0.00  0.00    +0.384 N 
ATOM     26  C   UNL     1       1.030  -0.227  -3.631  0.00  0.00    -0.063 C 
ATOM     27  C   UNL     1       0.187   0.165  -2.415  0.00  0.00    +0.066 C 
ATOM     28  H   UNL     1       2.156   1.473  -3.579  0.00  0.00    -0.081 HD
BRANCH  25  29
ATOM     29  C   UNL     1       3.119   0.115  -4.758  0.00  0.00    -0.051 C 
BRANCH  29  30
ATOM     30  C   UNL     1       2.437   0.616  -6.005  0.00  0.00    -0.045 C 
ATOM     31  C   UNL     1       3.092   1.399  -6.850  0.00  0.00    +0.002 C 
BRANCH  31  32
ATOM     32  C   UNL     1       2.423   1.891  -8.073  0.00  0.00    -0.025 A 
ATOM     33  C   UNL     1       1.099   1.537  -8.337  0.00  0.00    +0.008 A 
ATOM     34  C   UNL     1       0.480   1.999  -9.480  0.00  0.00    +0.001 A 
ATOM     35  C   UNL     1       1.169   2.811 -10.364  0.00  0.00    +0.000 A 
ATOM     36  C   UNL     1       2.481   3.165 -10.108  0.00  0.00    +0.001 A 
ATOM     37  C   UNL     1       3.110   2.715  -8.965  0.00  0.00    +0.008 A 
ENDBRANCH  31  32
ENDBRANCH  29  30
ENDBRANCH  25  29
ENDBRANCH  21  22
ENDBRANCH   1  21
TORSDOF 8
