REMARK  Name = ZINC14982187
REMARK  14 active torsions:
REMARK  status: ('A' for Active; 'I' for Inactive)
REMARK    1  A    between atoms: C_1  and  C_2
REMARK    2  A    between atoms: C_2  and  C_3
REMARK    3  A    between atoms: C_3  and  C_4
REMARK    4  A    between atoms: C_4  and  C_19
REMARK    5  A    between atoms: N_7  and  C_11
REMARK    6  A    between atoms: C_11  and  C_12
REMARK    7  A    between atoms: C_12  and  C_13
REMARK    8  A    between atoms: C_18  and  N_78
REMARK    9  A    between atoms: C_24  and  C_25
REMARK   10  A    between atoms: C_24  and  N_80
REMARK   11  A    between atoms: C_27  and  C_34
REMARK   12  A    between atoms: C_28  and  O_32
REMARK   13  A    between atoms: C_30  and  C_31
REMARK   14  A    between atoms: O_32  and  C_33
REMARK                            x       y       z     vdW  Elec       q    Type
REMARK                         _______ _______ _______ _____ _____    ______ ____
ROOT
ATOM      1  C   UNL     1      -4.416  -2.109  -4.255  0.00  0.00    +0.115 C 
ATOM      2  C   UNL     1      -3.774  -1.064  -3.364  0.00  0.00    +0.247 C 
ATOM      3  O   UNL     1      -3.439   0.059  -3.677  0.00  0.00    -0.273 OA
ATOM      4  N   UNL     1      -3.652  -1.642  -2.153  0.00  0.00    -0.224 N 
ATOM      5  C   UNL     1      -4.130  -2.892  -2.153  0.00  0.00    +0.309 C 
ATOM      6  O   UNL     1      -4.133  -3.613  -1.175  0.00  0.00    -0.252 OA
ATOM      7  N   UNL     1      -4.606  -3.260  -3.356  0.00  0.00    -0.285 N 
ATOM      8  H   UNL     1      -4.997  -4.118  -3.586  0.00  0.00    +0.151 HD
ENDROOT
BRANCH   1   9
ATOM      9  C   UNL     1      -3.492  -2.479  -5.416  0.00  0.00    +0.018 C 
ATOM     10  C   UNL     1      -4.111  -3.627  -6.218  0.00  0.00    -0.013 C 
ATOM     11  C   UNL     1      -3.154  -4.033  -7.341  0.00  0.00    -0.078 C 
ATOM     12  C   UNL     1      -1.234  -3.352  -6.029  0.00  0.00    -0.078 C 
ATOM     13  C   UNL     1      -2.134  -2.925  -4.867  0.00  0.00    -0.013 C 
ATOM     14  N   UNL     1      -1.875  -4.475  -6.745  0.00  0.00    +0.382 N 
ATOM     15  H   UNL     1      -2.063  -5.232  -6.077  0.00  0.00    -0.081 HD
BRANCH  14  16
ATOM     16  C   UNL     1      -0.975  -4.980  -7.801  0.00  0.00    -0.043 C 
BRANCH  16  17
ATOM     17  C   UNL     1      -1.488  -6.314  -8.278  0.00  0.00    -0.061 A 
ATOM     18  C   UNL     1      -2.117  -6.414  -9.505  0.00  0.00    +0.009 A 
ATOM     19  C   UNL     1      -2.583  -7.637  -9.947  0.00  0.00    -0.009 A 
ATOM     20  C   UNL     1      -2.432  -8.764  -9.152  0.00  0.00    +0.123 A 
ATOM     21  C   UNL     1      -1.806  -8.660  -7.918  0.00  0.00    +0.049 A 
ATOM     22  C   UNL     1      -1.336  -7.436  -7.484  0.00  0.00    -0.046 A 
ATOM     23  C   UNL     1      -0.656  -7.323  -6.144  0.00  0.00    +0.044 C 
ATOM     24  C   UNL     1      -3.263  -7.746 -11.287  0.00  0.00    +0.047 C 
BRANCH  20  25
ATOM     25  O   UNL     1      -2.896  -9.967  -9.581  0.00  0.00    -0.495 OA
ATOM     26  C   UNL     1      -2.706 -11.084  -8.710  0.00  0.00    +0.277 C 
ENDBRANCH  20  25
ENDBRANCH  16  17
ENDBRANCH  14  16
ENDBRANCH   1   9
BRANCH   1  27
ATOM     27  C   UNL     1      -5.764  -1.609  -4.780  0.00  0.00    +0.035 C 
BRANCH  27  29
ATOM     28  C   UNL     1      -7.996  -0.696  -4.127  0.00  0.00    +0.004 C 
ATOM     29  C   UNL     1      -6.649  -1.196  -3.602  0.00  0.00    -0.001 C 
ENDBRANCH  27  29
ENDBRANCH   1  27
BRANCH   4  30
ATOM     30  C   UNL     1      -3.074  -0.981  -0.980  0.00  0.00    +0.116 C 
BRANCH  30  31
ATOM     31  C   UNL     1      -1.568  -1.249  -0.935  0.00  0.00    +0.004 C 
BRANCH  31  32
ATOM     32  C   UNL     1      -0.981  -0.648   0.344  0.00  0.00    -0.068 C 
ATOM     33  C   UNL     1      -1.558  -1.374   1.578  0.00  0.00    -0.017 C 
ATOM     34  C   UNL     1      -0.340  -1.457   2.535  0.00  0.00    -0.020 C 
ATOM     35  C   UNL     1       0.827  -1.673   1.538  0.00  0.00    -0.079 C 
ATOM     36  C   UNL     1       0.946  -1.470  -0.879  0.00  0.00    -0.096 C 
ATOM     37  N   UNL     1       0.481  -0.830   0.379  0.00  0.00    +0.380 N 
ATOM     38  H   UNL     1       0.935   0.085   0.478  0.00  0.00    -0.082 HD
ENDBRANCH  31  32
ENDBRANCH  30  31
ENDBRANCH   4  30
TORSDOF 9
