REMARK  Name = ZINC62506347
REMARK  10 active torsions:
REMARK  status: ('A' for Active; 'I' for Inactive)
REMARK    1  A    between atoms: C_1  and  C_2
REMARK    2  A    between atoms: C_5  and  C_8
REMARK    3  A    between atoms: C_10  and  C_14
REMARK    4  A    between atoms: C_11  and  C_13
REMARK    5  A    between atoms: C_14  and  C_15
REMARK    6  A    between atoms: N_17  and  C_18
REMARK    7  A    between atoms: C_18  and  C_19
REMARK    8  A    between atoms: C_19  and  C_20
REMARK    9  A    between atoms: C_19  and  C_21
REMARK   10  A    between atoms: C_19  and  O_28
REMARK                            x       y       z     vdW  Elec       q    Type
REMARK                         _______ _______ _______ _____ _____    ______ ____
ROOT
ATOM      1  C   UNL     1      -1.314  -7.937   1.835  0.00  0.00    +0.219 C 
ATOM      2  O   UNL     1      -2.244  -7.316   1.366  0.00  0.00    -0.275 OA
ATOM      3  N   UNL     1      -1.546  -9.005   2.623  0.00  0.00    -0.312 N 
ATOM      4  H   UNL     1      -0.802  -9.501   2.998  0.00  0.00    +0.149 HD
ENDROOT
BRANCH   1   5
ATOM      5  C   UNL     1       0.101  -7.514   1.536  0.00  0.00    +0.154 C 
BRANCH   5   8
ATOM      6  C   UNL     1       0.058  -4.251  -0.021  0.00  0.00    +0.228 A 
ATOM      7  N   UNL     1       0.068  -5.023   1.040  0.00  0.00    -0.213 NA
ATOM      8  C   UNL     1       0.085  -6.303   0.639  0.00  0.00    +0.091 A 
ATOM      9  C   UNL     1       0.085  -6.314  -0.707  0.00  0.00    +0.126 A 
ATOM     10  O   UNL     1       0.062  -5.030  -1.117  0.00  0.00    -0.440 OA
ATOM     11  C   UNL     1       0.101  -7.534  -1.591  0.00  0.00    +0.088 C 
BRANCH   6  16
ATOM     12  C   UNL     1      -0.018   1.503   0.010  0.00  0.00    +0.044 C 
ATOM     13  C   UNL     1       0.002  -0.004   0.002  0.00  0.00    -0.050 A 
ATOM     14  C   UNL     1       0.006  -0.686  -1.202  0.00  0.00    +0.004 A 
ATOM     15  C   UNL     1       0.024  -2.066  -1.216  0.00  0.00    +0.013 A 
ATOM     16  C   UNL     1       0.039  -2.773  -0.013  0.00  0.00    +0.037 A 
ATOM     17  C   UNL     1       0.036  -2.079   1.198  0.00  0.00    +0.013 A 
ATOM     18  C   UNL     1       0.023  -0.699   1.198  0.00  0.00    +0.004 A 
ENDBRANCH   6  16
ENDBRANCH   5   8
ENDBRANCH   1   5
BRANCH   3  19
ATOM     19  C   UNL     1      -2.922  -9.415   2.914  0.00  0.00    +0.143 C 
BRANCH  19  20
ATOM     20  C   UNL     1      -2.905 -10.645   3.825  0.00  0.00    +0.103 C 
ATOM     21  C   UNL     1      -2.188 -10.302   5.132  0.00  0.00    +0.048 C 
BRANCH  20  22
ATOM     22  C   UNL     1      -4.321 -11.067   4.124  0.00  0.00    -0.015 A 
ATOM     23  C   UNL     1      -5.331 -10.124   4.155  0.00  0.00    +0.008 A 
ATOM     24  C   UNL     1      -6.630 -10.511   4.430  0.00  0.00    +0.020 A 
ATOM     25  C   UNL     1      -6.918 -11.842   4.673  0.00  0.00    +0.041 A 
ATOM     26  C   UNL     1      -5.906 -12.786   4.642  0.00  0.00    +0.020 A 
ATOM     27  C   UNL     1      -4.609 -12.398   4.362  0.00  0.00    +0.008 A 
ATOM     28 CL   UNL     1      -8.548 -12.329   5.019  0.00  0.00    -0.084 Cl
ENDBRANCH  20  22
BRANCH  20  29
ATOM     29  O   UNL     1      -2.218 -11.713   3.171  0.00  0.00    -0.383 OA
ATOM     30  H   UNL     1      -2.618 -11.984   2.333  0.00  0.00    +0.211 HD
ENDBRANCH  20  29
ENDBRANCH  19  20
ENDBRANCH   3  19
TORSDOF 7
