REMARK  Name = ZINC40174348
REMARK  11 active torsions:
REMARK  status: ('A' for Active; 'I' for Inactive)
REMARK    1  A    between atoms: C_1  and  C_2
REMARK    2  A    between atoms: C_2  and  C_3
REMARK    3  A    between atoms: C_3  and  C_5
REMARK    4  A    between atoms: C_3  and  N_16
REMARK    5  A    between atoms: N_7  and  C_8
REMARK    6  A    between atoms: C_20  and  S_21
REMARK    7  A    between atoms: S_21  and  C_22
REMARK    8  A    between atoms: C_22  and  C_23
REMARK    9  A    between atoms: C_23  and  O_25
REMARK   10  A    between atoms: O_25  and  C_26
REMARK   11  A    between atoms: C_26  and  C_27
REMARK                            x       y       z     vdW  Elec       q    Type
REMARK                         _______ _______ _______ _____ _____    ______ ____
ROOT
ATOM      1  C   UNL     1       0.666  -0.532  -0.846  0.00  0.00    +0.178 C 
ENDROOT
BRANCH   1   2
ATOM      2  N   UNL     1       0.468  -1.971  -1.037  0.00  0.00    -0.279 N 
ATOM      3  C   UNL     1       0.812  -2.953  -0.152  0.00  0.00    +0.216 A 
ATOM      4  N   UNL     1       0.478  -4.106  -0.676  0.00  0.00    -0.113 NA
ATOM      5  N   UNL     1      -0.096  -3.862  -1.931  0.00  0.00    -0.121 NA
ATOM      6  C   UNL     1      -0.098  -2.566  -2.129  0.00  0.00    +0.194 A 
ATOM      7  N   UNL     1       1.412  -2.762   1.086  0.00  0.00    -0.328 N 
ATOM      8  H   UNL     1       1.623  -1.865   1.390  0.00  0.00    +0.145 HD
ATOM      9  H   UNL     1       1.620  -3.525   1.647  0.00  0.00    +0.145 HD
BRANCH   6  10
ATOM     10  S   UNL     1      -0.719  -1.738  -3.555  0.00  0.00    -0.075 S 
BRANCH  10  11
ATOM     11  C   UNL     1      -1.325  -3.081  -4.614  0.00  0.00    +0.197 C 
BRANCH  11  12
ATOM     12  C   UNL     1      -1.890  -2.502  -5.885  0.00  0.00    +0.317 C 
ATOM     13  O   UNL     1      -1.885  -1.306  -6.059  0.00  0.00    -0.250 OA
BRANCH  12  14
ATOM     14  O   UNL     1      -2.399  -3.315  -6.824  0.00  0.00    -0.464 OA
BRANCH  14  15
ATOM     15  C   UNL     1      -2.918  -2.698  -8.004  0.00  0.00    +0.229 C 
ATOM     16  C   UNL     1      -3.450  -3.775  -8.951  0.00  0.00    +0.048 C 
ENDBRANCH  14  15
ENDBRANCH  12  14
ENDBRANCH  11  12
ENDBRANCH  10  11
ENDBRANCH   6  10
ENDBRANCH   1   2
BRANCH   1  17
ATOM     17  C   UNL     1       2.135  -0.244  -0.676  0.00  0.00    +0.240 C 
ATOM     18  O   UNL     1       2.882  -1.115  -0.282  0.00  0.00    -0.273 OA
ATOM     19  N   UNL     1       2.620   0.980  -0.963  0.00  0.00    -0.283 N 
ATOM     20  H   UNL     1       2.029   1.667  -1.309  0.00  0.00    +0.155 HD
BRANCH  19  21
ATOM     21  C   UNL     1       3.977   1.261  -0.760  0.00  0.00    +0.052 A 
ATOM     22  C   UNL     1       4.913   0.236  -0.802  0.00  0.00    +0.026 A 
ATOM     23  C   UNL     1       6.250   0.516  -0.602  0.00  0.00    +0.022 A 
ATOM     24  C   UNL     1       6.659   1.815  -0.360  0.00  0.00    +0.042 A 
ATOM     25  C   UNL     1       5.729   2.839  -0.317  0.00  0.00    +0.041 A 
ATOM     26  C   UNL     1       4.390   2.566  -0.523  0.00  0.00    +0.064 A 
ATOM     27 CL   UNL     1       3.224   3.852  -0.477  0.00  0.00    -0.082 Cl
ATOM     28 CL   UNL     1       8.341   2.162  -0.108  0.00  0.00    -0.083 Cl
ENDBRANCH  19  21
ENDBRANCH   1  17
BRANCH   1  30
ATOM     29  C   UNL     1      -1.596  -0.235   0.174  0.00  0.00    +0.006 C 
ATOM     30  C   UNL     1      -0.091  -0.074   0.402  0.00  0.00    +0.031 C 
ENDBRANCH   1  30
TORSDOF 9
