REMARK  Name = ZINC39531577
REMARK  9 active torsions:
REMARK  status: ('A' for Active; 'I' for Inactive)
REMARK    1  A    between atoms: C_1  and  C_2
REMARK    2  A    between atoms: C_5  and  C_8
REMARK    3  A    between atoms: C_8  and  C_10
REMARK    4  A    between atoms: C_8  and  N_21
REMARK    5  A    between atoms: C_10  and  N_11
REMARK    6  A    between atoms: N_11  and  S_12
REMARK    7  A    between atoms: S_12  and  C_15
REMARK    8  A    between atoms: C_25  and  C_28
REMARK    9  A    between atoms: C_33  and  O_34
REMARK                            x       y       z     vdW  Elec       q    Type
REMARK                         _______ _______ _______ _____ _____    ______ ____
ROOT
ATOM      1  C   UNL     1       0.138  -4.159   0.059  0.00  0.00    +0.102 C 
ENDROOT
BRANCH   1   2
ATOM      2  N   UNL     1      -0.637  -4.573   1.236  0.00  0.00    -0.297 NA
ATOM      3  C   UNL     1      -0.556  -6.027   1.435  0.00  0.00    +0.066 C 
ATOM      4  C   UNL     1      -1.325  -6.409   2.702  0.00  0.00    -0.066 C 
ATOM      5  N   UNL     1      -2.727  -5.992   2.568  0.00  0.00    +0.385 N 
ATOM      6  C   UNL     1      -2.793  -4.535   2.394  0.00  0.00    -0.023 C 
ATOM      7  C   UNL     1      -2.036  -4.138   1.125  0.00  0.00    +0.074 C 
ATOM      8  H   UNL     1      -3.137  -6.445   1.764  0.00  0.00    -0.085 HD
ATOM      9  H   UNL     1      -3.237  -6.255   3.398  0.00  0.00    -0.085 HD
BRANCH   6  10
ATOM     10  C   UNL     1      -4.233  -4.108   2.275  0.00  0.00    -0.019 A 
ATOM     11  C   UNL     1      -5.202  -5.030   1.929  0.00  0.00    +0.005 A 
ATOM     12  C   UNL     1      -6.523  -4.639   1.819  0.00  0.00    +0.000 A 
ATOM     13  C   UNL     1      -6.879  -3.324   2.055  0.00  0.00    +0.004 A 
ATOM     14  C   UNL     1      -5.914  -2.397   2.401  0.00  0.00    +0.045 A 
ATOM     15  C   UNL     1      -4.588  -2.789   2.518  0.00  0.00    +0.118 A 
BRANCH  15  16
ATOM     16  O   UNL     1      -3.638  -1.881   2.864  0.00  0.00    -0.507 OA
ATOM     17  H   UNL     1      -3.236  -1.427   2.111  0.00  0.00    +0.292 HD
ENDBRANCH  15  16
ENDBRANCH   6  10
ENDBRANCH   1   2
BRANCH   1  22
ATOM     18  C   UNL     1      -0.029   1.597  -0.429  0.00  0.00    +0.044 C 
ATOM     19  C   UNL     1       0.015   0.096  -0.302  0.00  0.00    -0.050 A 
ATOM     20  C   UNL     1      -0.074  -0.696  -1.431  0.00  0.00    +0.003 A 
ATOM     21  C   UNL     1      -0.034  -2.073  -1.315  0.00  0.00    +0.005 A 
ATOM     22  C   UNL     1       0.096  -2.658  -0.069  0.00  0.00    -0.029 A 
ATOM     23  C   UNL     1       0.185  -1.866   1.061  0.00  0.00    +0.005 A 
ATOM     24  C   UNL     1       0.150  -0.489   0.944  0.00  0.00    +0.003 A 
ENDBRANCH   1  22
BRANCH   1  25
ATOM     25  C   UNL     1       1.590  -4.616   0.217  0.00  0.00    +0.129 C 
BRANCH  25  26
ATOM     26  N   UNL     1       2.344  -4.272  -0.991  0.00  0.00    -0.188 NA
ATOM     27  H   UNL     1       1.874  -4.046  -1.809  0.00  0.00    +0.148 HD
BRANCH  26  28
ATOM     28  S   UNL     1       4.000  -4.269  -0.960  0.00  0.00    +0.058 S 
ATOM     29  O   UNL     1       4.430  -3.927  -2.270  0.00  0.00    -0.153 OA
ATOM     30  O   UNL     1       4.383  -3.523   0.188  0.00  0.00    -0.153 OA
BRANCH  28  31
ATOM     31  C   UNL     1       4.519  -5.929  -0.677  0.00  0.00    +0.105 A 
ATOM     32  C   UNL     1       4.694  -6.388   0.615  0.00  0.00    +0.028 A 
ATOM     33  C   UNL     1       5.101  -7.691   0.837  0.00  0.00    +0.002 A 
ATOM     34  C   UNL     1       5.332  -8.534  -0.234  0.00  0.00    +0.000 A 
ATOM     35  C   UNL     1       5.156  -8.076  -1.526  0.00  0.00    +0.002 A 
ATOM     36  C   UNL     1       4.745  -6.774  -1.747  0.00  0.00    +0.028 A 
ENDBRANCH  28  31
ENDBRANCH  26  28
ENDBRANCH  25  26
ENDBRANCH   1  25
TORSDOF 8
