REMARK  Name = ZINC12475245
REMARK  9 active torsions:
REMARK  status: ('A' for Active; 'I' for Inactive)
REMARK    1  A    between atoms: C_1  and  C_2
REMARK    2  A    between atoms: C_2  and  C_3
REMARK    3  A    between atoms: C_6  and  N_9
REMARK    4  A    between atoms: N_9  and  C_10
REMARK    5  A    between atoms: C_10  and  C_12
REMARK    6  A    between atoms: C_10  and  C_18
REMARK    7  A    between atoms: N_20  and  C_21
REMARK    8  A    between atoms: C_27  and  C_29
REMARK    9  A    between atoms: C_29  and  C_30
REMARK                            x       y       z     vdW  Elec       q    Type
REMARK                         _______ _______ _______ _____ _____    ______ ____
ROOT
ATOM      1  N   UNL     1      -2.884   3.077   4.452  0.00  0.00    -0.255 N 
ATOM      2  C   UNL     1      -3.890   2.408   5.050  0.00  0.00    +0.225 C 
ATOM      3  O   UNL     1      -4.273   2.745   6.150  0.00  0.00    -0.275 OA
ENDROOT
BRANCH   1   7
ATOM      4  C   UNL     1      -1.777   2.123   0.551  0.00  0.00    -0.048 A 
ATOM      5  C   UNL     1      -1.518   1.235   1.578  0.00  0.00    +0.005 A 
ATOM      6  C   UNL     1      -1.879   1.550   2.874  0.00  0.00    +0.024 A 
ATOM      7  C   UNL     1      -2.512   2.757   3.142  0.00  0.00    +0.037 A 
ATOM      8  C   UNL     1      -2.775   3.645   2.107  0.00  0.00    +0.024 A 
ATOM      9  C   UNL     1      -2.407   3.326   0.815  0.00  0.00    +0.005 A 
BRANCH   4  11
ATOM     10  C   UNL     1       0.041   2.287  -1.128  0.00  0.00    +0.009 C 
ATOM     11  C   UNL     1      -1.377   1.778  -0.860  0.00  0.00    +0.032 C 
ENDBRANCH   4  11
ENDBRANCH   1   7
BRANCH   1  12
ATOM     12  C   UNL     1      -2.180   4.140   5.175  0.00  0.00    +0.197 C 
BRANCH  12  13
ATOM     13  C   UNL     1      -1.204   4.816   4.247  0.00  0.00    -0.015 A 
ATOM     14  C   UNL     1      -0.210   4.089   3.610  0.00  0.00    +0.025 A 
ATOM     15  C   UNL     1       0.664   4.743   2.763  0.00  0.00    +0.111 A 
ATOM     16  N   UNL     1       0.568   6.043   2.567  0.00  0.00    -0.263 NA
ATOM     17  C   UNL     1      -0.361   6.767   3.160  0.00  0.00    +0.111 A 
ATOM     18  C   UNL     1      -1.274   6.181   4.016  0.00  0.00    +0.025 A 
ENDBRANCH  12  13
BRANCH  12  19
ATOM     19  C   UNL     1      -1.435   3.545   6.342  0.00  0.00    +0.239 C 
ATOM     20  O   UNL     1      -1.487   2.352   6.550  0.00  0.00    -0.273 OA
ATOM     21  N   UNL     1      -0.711   4.340   7.155  0.00  0.00    -0.311 N 
ATOM     22  H   UNL     1      -0.670   5.295   6.989  0.00  0.00    +0.149 HD
BRANCH  21  23
ATOM     23  C   UNL     1       0.013   3.763   8.290  0.00  0.00    +0.073 C 
ATOM     24  C   UNL     1      -0.930   3.642   9.489  0.00  0.00    +0.022 C 
ATOM     25  C   UNL     1      -0.173   3.039  10.674  0.00  0.00    +0.002 C 
ATOM     26  C   UNL     1       1.005   3.943  11.040  0.00  0.00    +0.000 C 
ATOM     27  C   UNL     1       1.948   4.063   9.841  0.00  0.00    +0.002 C 
ATOM     28  C   UNL     1       1.192   4.667   8.656  0.00  0.00    +0.022 C 
ENDBRANCH  21  23
ENDBRANCH  12  19
ENDBRANCH   1  12
BRANCH   2  29
ATOM     29  C   UNL     1      -4.538   1.241   4.351  0.00  0.00    +0.133 C 
BRANCH  29  30
ATOM     30  C   UNL     1      -5.710   0.756   5.165  0.00  0.00    -0.014 A 
ATOM     31  C   UNL     1      -5.703  -0.248   6.056  0.00  0.00    +0.087 A 
ATOM     32  N   UNL     1      -6.949  -0.398   6.600  0.00  0.00    -0.360 N 
ATOM     33  H   UNL     1      -7.189  -1.058   7.269  0.00  0.00    +0.165 HD
ATOM     34  C   UNL     1      -7.814   0.523   6.051  0.00  0.00    +0.047 A 
ATOM     35  C   UNL     1      -7.075   1.286   5.128  0.00  0.00    +0.003 A 
ATOM     36  C   UNL     1      -7.700   2.308   4.412  0.00  0.00    +0.010 A 
ATOM     37  C   UNL     1      -9.028   2.563   4.612  0.00  0.00    +0.001 A 
ATOM     38  C   UNL     1      -9.761   1.813   5.521  0.00  0.00    +0.002 A 
ATOM     39  C   UNL     1      -9.164   0.799   6.238  0.00  0.00    +0.026 A 
ENDBRANCH  29  30
ENDBRANCH   2  29
TORSDOF 8
