REMARK  Name = ZINC15863453
REMARK  11 active torsions:
REMARK  status: ('A' for Active; 'I' for Inactive)
REMARK    1  A    between atoms: C_1  and  C_2
REMARK    2  A    between atoms: C_2  and  C_3
REMARK    3  A    between atoms: N_5  and  C_6
REMARK    4  A    between atoms: C_9  and  S_12
REMARK    5  A    between atoms: S_12  and  N_15
REMARK    6  A    between atoms: C_24  and  C_26
REMARK    7  A    between atoms: C_26  and  C_27
REMARK    8  A    between atoms: N_29  and  C_30
REMARK    9  A    between atoms: C_31  and  C_38
REMARK   10  A    between atoms: C_33  and  C_37
REMARK   11  A    between atoms: C_35  and  C_36
REMARK                            x       y       z     vdW  Elec       q    Type
REMARK                         _______ _______ _______ _____ _____    ______ ____
ROOT
ATOM      1  N   UNL     1       3.121   2.102   0.163  0.00  0.00    -0.168 NA
ATOM      2  C   UNL     1       2.240   3.272   0.315  0.00  0.00    +0.115 C 
ATOM      3  C   UNL     1       3.122   4.518   0.374  0.00  0.00    +0.052 C 
ATOM      4  C   UNL     1       4.148   4.502  -0.728  0.00  0.00    -0.041 A 
ATOM      5  C   UNL     1       4.731   5.713  -1.083  0.00  0.00    +0.004 A 
ATOM      6  C   UNL     1       5.685   5.767  -2.077  0.00  0.00    +0.000 A 
ATOM      7  C   UNL     1       6.067   4.608  -2.727  0.00  0.00    +0.000 A 
ATOM      8  C   UNL     1       5.488   3.406  -2.380  0.00  0.00    +0.005 A 
ATOM      9  C   UNL     1       4.523   3.351  -1.382  0.00  0.00    -0.025 A 
ATOM     10  C   UNL     1       3.915   2.012  -1.067  0.00  0.00    +0.119 C 
ENDROOT
BRANCH   1  11
ATOM     11  S   UNL     1       3.215   0.937   1.337  0.00  0.00    +0.061 S 
ATOM     12  O   UNL     1       2.641   1.496   2.510  0.00  0.00    -0.153 OA
ATOM     13  O   UNL     1       4.543   0.434   1.303  0.00  0.00    -0.153 OA
BRANCH  11  17
ATOM     14  C   UNL     1       0.508  -2.463   0.063  0.00  0.00    +0.033 A 
ATOM     15  C   UNL     1       1.821  -2.414  -0.386  0.00  0.00    +0.025 A 
ATOM     16  C   UNL     1       2.644  -1.374   0.003  0.00  0.00    +0.030 A 
ATOM     17  C   UNL     1       2.163  -0.387   0.842  0.00  0.00    +0.106 A 
ATOM     18  C   UNL     1       0.857  -0.436   1.295  0.00  0.00    +0.030 A 
ATOM     19  C   UNL     1       0.029  -1.472   0.909  0.00  0.00    +0.025 A 
BRANCH  14  22
ATOM     20  C   UNL     1       0.180  -4.745  -0.527  0.00  0.00    +0.217 C 
ATOM     21  O   UNL     1       1.342  -4.970  -0.260  0.00  0.00    -0.275 OA
ATOM     22  N   UNL     1      -0.329  -3.512  -0.334  0.00  0.00    -0.286 N 
ATOM     23  H   UNL     1      -1.276  -3.351  -0.470  0.00  0.00    +0.155 HD
BRANCH  20  25
ATOM     24  C   UNL     1       0.122  -7.132  -1.194  0.00  0.00    +0.013 C 
ATOM     25  C   UNL     1      -0.694  -5.844  -1.073  0.00  0.00    +0.093 C 
ENDBRANCH  20  25
ENDBRANCH  14  22
ENDBRANCH  11  17
ENDBRANCH   1  11
BRANCH  10  26
ATOM     26  C   UNL     1       5.029   0.980  -0.879  0.00  0.00    +0.121 C 
BRANCH  26  27
ATOM     27  C   UNL     1       6.028   1.496   0.125  0.00  0.00    +0.219 C 
ATOM     28  O   UNL     1       5.897   2.606   0.596  0.00  0.00    -0.275 OA
ATOM     29  N   UNL     1       7.067   0.723   0.500  0.00  0.00    -0.285 N 
ATOM     30  H   UNL     1       7.196  -0.147   0.092  0.00  0.00    +0.155 HD
BRANCH  29  31
ATOM     31  C   UNL     1       7.959   1.177   1.478  0.00  0.00    +0.039 A 
ATOM     32  C   UNL     1       8.626   2.383   1.305  0.00  0.00    -0.029 A 
ATOM     33  C   UNL     1       9.502   2.831   2.275  0.00  0.00    +0.008 A 
ATOM     34  C   UNL     1       9.723   2.075   3.411  0.00  0.00    -0.050 A 
ATOM     35  C   UNL     1       9.065   0.871   3.583  0.00  0.00    +0.008 A 
ATOM     36  C   UNL     1       8.183   0.420   2.620  0.00  0.00    -0.029 A 
ATOM     37  C   UNL     1       7.466  -0.892   2.808  0.00  0.00    +0.045 C 
ATOM     38  C   UNL     1      10.683   2.564   4.465  0.00  0.00    +0.044 C 
ATOM     39  C   UNL     1       8.391   3.204   0.063  0.00  0.00    +0.045 C 
ENDBRANCH  29  31
ENDBRANCH  26  27
ENDBRANCH  10  26
TORSDOF 7
