REMARK  Name = ZINC01942851
REMARK  5 active torsions:
REMARK  status: ('A' for Active; 'I' for Inactive)
REMARK    1  A    between atoms: C_6  and  C_25
REMARK    2  A    between atoms: C_7  and  N_9
REMARK    3  A    between atoms: C_10  and  C_12
REMARK    4  A    between atoms: C_12  and  O_13
REMARK    5  A    between atoms: O_13  and  C_14
REMARK                            x       y       z     vdW  Elec       q    Type
REMARK                         _______ _______ _______ _____ _____    ______ ____
ROOT
ATOM      1  N   UNL     1       2.088   4.348   0.005  0.00  0.00    -0.277 N 
ATOM      2  C   UNL     1       1.030   3.513   0.011  0.00  0.00    +0.255 C 
ATOM      3  O   UNL     1      -0.097   3.961   0.024  0.00  0.00    -0.272 OA
ATOM      4  H   UNL     1       3.110   3.942  -0.006  0.00  0.00    +0.155 HD
ENDROOT
BRANCH   1  11
ATOM      5  C   UNL     1       2.473  10.542  -0.420  0.00  0.00    +0.005 C 
ATOM      6  C   UNL     1       1.204  10.665   0.430  0.00  0.00    +0.005 C 
ATOM      7  C   UNL     1       0.245   9.527   0.054  0.00  0.00    +0.043 C 
ATOM      8  C   UNL     1       1.018   8.244   0.038  0.00  0.00    -0.004 A 
ATOM      9  C   UNL     1       2.361   8.103   0.024  0.00  0.00    -0.023 A 
ATOM     10  C   UNL     1       2.839   6.730   0.017  0.00  0.00    +0.068 A 
ATOM     11  C   UNL     1       1.887   5.720   0.015  0.00  0.00    +0.084 A 
ATOM     12  S   UNL     1       0.389   6.589   0.034  0.00  0.00    -0.077 S 
ATOM     13  C   UNL     1       3.278   9.319   0.022  0.00  0.00    +0.037 C 
BRANCH  10  14
ATOM     14  C   UNL     1       4.273   6.425   0.008  0.00  0.00    +0.244 C 
ATOM     15  O   UNL     1       4.863   6.305  -1.050  0.00  0.00    -0.270 OA
ATOM     16  N   UNL     1       4.937   6.276   1.171  0.00  0.00    -0.325 N 
ATOM     17  H   UNL     1       6.013   6.046   1.164  0.00  0.00    +0.145 HD
ATOM     18  H   UNL     1       4.404   6.384   2.127  0.00  0.00    +0.145 HD
ENDBRANCH  10  14
ENDBRANCH   1  11
BRANCH   2  19
ATOM     19  C   UNL     1       1.248   2.022   0.001  0.00  0.00    +0.325 C 
BRANCH  19  20
ATOM     20  O   UNL     1      -0.016   1.355   0.009  0.00  0.00    -0.480 OA
BRANCH  20  21
ATOM     21  C   UNL     1       0.002  -0.004   0.002  0.00  0.00    +0.161 A 
ATOM     22  C   UNL     1      -0.006  -0.692  -1.203  0.00  0.00    +0.104 A 
ATOM     23  C   UNL     1       0.019  -2.076  -1.209  0.00  0.00    +0.083 A 
ATOM     24  C   UNL     1       0.040  -2.773  -0.013  0.00  0.00    +0.081 A 
ATOM     25  C   UNL     1       0.042  -2.089   1.190  0.00  0.00    +0.083 A 
ATOM     26  C   UNL     1       0.023  -0.705   1.199  0.00  0.00    +0.104 A 
ATOM     27 CL   UNL     1       0.025   0.153   2.708  0.00  0.00    -0.078 Cl
ATOM     28 CL   UNL     1       0.068  -2.966   2.688  0.00  0.00    -0.080 Cl
ATOM     29 CL   UNL     1       0.065  -4.509  -0.023  0.00  0.00    -0.080 Cl
ATOM     30 CL   UNL     1       0.018  -2.937  -2.716  0.00  0.00    -0.080 Cl
ATOM     31 CL   UNL     1      -0.039   0.182  -2.702  0.00  0.00    -0.078 Cl
ENDBRANCH  20  21
ENDBRANCH  19  20
ENDBRANCH   2  19
TORSDOF 5
