REMARK  Name = ZINC63920278
REMARK  11 active torsions:
REMARK  status: ('A' for Active; 'I' for Inactive)
REMARK    1  A    between atoms: C_1  and  C_2
REMARK    2  A    between atoms: C_2  and  C_3
REMARK    3  A    between atoms: C_2  and  C_4
REMARK    4  A    between atoms: C_2  and  N_5
REMARK    5  A    between atoms: C_6  and  C_8
REMARK    6  A    between atoms: C_8  and  N_9
REMARK    7  A    between atoms: C_10  and  C_12
REMARK    8  A    between atoms: C_12  and  C_14
REMARK    9  A    between atoms: C_12  and  N_24
REMARK   10  A    between atoms: C_14  and  C_15
REMARK   11  A    between atoms: C_25  and  C_27
REMARK                            x       y       z     vdW  Elec       q    Type
REMARK                         _______ _______ _______ _____ _____    ______ ____
ROOT
ATOM      1  C   UNL     1       6.418   0.091  -3.778  0.00  0.00    +0.163 C 
ENDROOT
BRANCH   1   3
ATOM      2  N   UNL     1       4.056   0.431  -3.128  0.00  0.00    -0.305 N 
ATOM      3  C   UNL     1       4.941  -0.131  -3.975  0.00  0.00    +0.234 C 
ATOM      4  O   UNL     1       4.548  -0.816  -4.896  0.00  0.00    -0.274 OA
ATOM      5  H   UNL     1       4.370   0.979  -2.392  0.00  0.00    +0.149 HD
BRANCH   2   6
ATOM      6  C   UNL     1       2.619   0.215  -3.320  0.00  0.00    +0.200 C 
BRANCH   6   8
ATOM      7  N   UNL     1       0.508   0.890  -2.223  0.00  0.00    -0.309 N 
ATOM      8  C   UNL     1       1.854   0.946  -2.247  0.00  0.00    +0.231 C 
ATOM      9  O   UNL     1       2.450   1.585  -1.405  0.00  0.00    -0.274 OA
ATOM     10  H   UNL     1       0.031   0.379  -2.896  0.00  0.00    +0.149 HD
BRANCH   7  12
ATOM     11  C   UNL     1       0.070   3.097  -1.265  0.00  0.00    +0.031 C 
ATOM     12  C   UNL     1      -0.236   1.601  -1.180  0.00  0.00    +0.026 C 
ATOM     13  C   UNL     1       0.180   1.072   0.194  0.00  0.00    +0.031 C 
ATOM     14  C   UNL     1      -1.736   1.375  -1.380  0.00  0.00    +0.031 C 
ENDBRANCH   7  12
ENDBRANCH   6   8
ENDBRANCH   2   6
ENDBRANCH   1   3
BRANCH   1  15
ATOM     15  N   UNL     1       7.162  -0.620  -4.821  0.00  0.00    -0.300 N 
ATOM     16  C   UNL     1       8.372  -0.171  -5.210  0.00  0.00    +0.246 C 
ATOM     17  O   UNL     1       8.846   0.823  -4.696  0.00  0.00    -0.270 OA
ATOM     18  H   UNL     1       6.784  -1.413  -5.231  0.00  0.00    +0.150 HD
BRANCH  16  19
ATOM     19  C   UNL     1       9.123  -0.888  -6.262  0.00  0.00    +0.055 A 
ATOM     20  C   UNL     1       8.579  -2.027  -6.859  0.00  0.00    +0.014 A 
ATOM     21  C   UNL     1       9.284  -2.692  -7.840  0.00  0.00    +0.001 A 
ATOM     22  C   UNL     1      10.529  -2.232  -8.234  0.00  0.00    +0.001 A 
ATOM     23  C   UNL     1      11.075  -1.105  -7.648  0.00  0.00    +0.021 A 
ATOM     24  C   UNL     1      10.377  -0.426  -6.668  0.00  0.00    +0.053 A 
ATOM     25 CL   UNL     1      11.059   0.994  -5.938  0.00  0.00    -0.083 Cl
ENDBRANCH  16  19
ENDBRANCH   1  15
BRANCH   1  26
ATOM     26  C   UNL     1       6.835  -0.437  -2.404  0.00  0.00    +0.065 C 
BRANCH  26  27
ATOM     27  C   UNL     1       6.580  -1.921  -2.338  0.00  0.00    -0.039 C 
ATOM     28  C   UNL     1       7.466  -2.910  -2.597  0.00  0.00    -0.001 A 
ATOM     29  C   UNL     1       8.877  -2.901  -3.002  0.00  0.00    +0.010 A 
ATOM     30  C   UNL     1       9.513  -4.079  -3.191  0.00  0.00    +0.001 A 
ATOM     31  C   UNL     1       8.860  -5.306  -3.010  0.00  0.00    +0.002 A 
ATOM     32  C   UNL     1       7.566  -5.396  -2.638  0.00  0.00    +0.026 A 
ATOM     33  C   UNL     1       6.800  -4.219  -2.412  0.00  0.00    +0.043 A 
ATOM     34  N   UNL     1       5.551  -4.046  -2.053  0.00  0.00    -0.380 N 
ATOM     35  C   UNL     1       5.285  -2.606  -1.964  0.00  0.00    +0.144 C 
ATOM     36  H   UNL     1       4.911  -4.752  -1.872  0.00  0.00    +0.160 HD
ENDBRANCH  26  27
ENDBRANCH   1  26
TORSDOF 8
