REMARK  Name = ZINC20834826
REMARK  8 active torsions:
REMARK  status: ('A' for Active; 'I' for Inactive)
REMARK    1  A    between atoms: C_1  and  C_2
REMARK    2  A    between atoms: C_2  and  C_3
REMARK    3  A    between atoms: C_3  and  C_5
REMARK    4  A    between atoms: C_3  and  S_6
REMARK    5  A    between atoms: S_6  and  C_7
REMARK    6  A    between atoms: N_13  and  N_14
REMARK    7  A    between atoms: C_15  and  C_16
REMARK    8  A    between atoms: C_21  and  O_22
REMARK                            x       y       z     vdW  Elec       q    Type
REMARK                         _______ _______ _______ _____ _____    ______ ____
ROOT
ATOM      1  C   UNL     1      -3.926  -0.602  -1.300  0.00  0.00    +0.191 A 
ATOM      2  N   UNL     1      -4.944  -0.470  -2.202  0.00  0.00    -0.303 N 
ATOM      3  H   UNL     1      -4.880  -0.060  -3.079  0.00  0.00    +0.171 HD
ATOM      4  C   UNL     1      -6.069  -1.018  -1.651  0.00  0.00    +0.235 A 
ATOM      5  N   UNL     1      -5.759  -1.468  -0.460  0.00  0.00    -0.111 NA
ATOM      6  N   UNL     1      -4.400  -1.210  -0.239  0.00  0.00    -0.121 NA
ATOM      7  N   UNL     1      -7.320  -1.084  -2.248  0.00  0.00    -0.205 N 
ATOM      8  H   UNL     1      -7.452  -0.721  -3.137  0.00  0.00    +0.177 HD
ENDROOT
BRANCH   7   9
ATOM      9  N   UNL     1      -8.391  -1.676  -1.566  0.00  0.00    -0.187 NA
ATOM     10  C   UNL     1      -9.562  -1.738  -2.124  0.00  0.00    +0.142 C 
BRANCH  10  11
ATOM     11  C   UNL     1     -10.688  -2.361  -1.407  0.00  0.00    +0.038 A 
ATOM     12  C   UNL     1     -11.948  -2.435  -2.007  0.00  0.00    +0.028 A 
ATOM     13  C   UNL     1     -12.999  -3.019  -1.330  0.00  0.00    +0.020 A 
ATOM     14  C   UNL     1     -12.810  -3.533  -0.058  0.00  0.00    +0.034 A 
ATOM     15  C   UNL     1     -11.568  -3.465   0.546  0.00  0.00    +0.061 A 
ATOM     16  C   UNL     1     -10.501  -2.887  -0.122  0.00  0.00    +0.139 A 
ATOM     17 BR   UNL     1     -11.323  -4.170   2.284  0.00  0.00    -0.046 Br
ATOM     18 BR   UNL     1     -14.703  -3.119  -2.142  0.00  0.00    -0.050 Br
BRANCH  16  19
ATOM     19  O   UNL     1      -9.278  -2.825   0.468  0.00  0.00    -0.505 OA
ATOM     20  H   UNL     1      -9.134  -2.024   0.990  0.00  0.00    +0.292 HD
ENDBRANCH  16  19
ENDBRANCH  10  11
ENDBRANCH   7   9
BRANCH   1  21
ATOM     21  S   UNL     1      -2.265  -0.057  -1.527  0.00  0.00    -0.083 S 
BRANCH  21  22
ATOM     22  C   UNL     1      -1.433  -0.534   0.013  0.00  0.00    +0.051 C 
ATOM     23  C   UNL     1      -1.413  -2.059   0.130  0.00  0.00    +0.019 C 
BRANCH  22  25
ATOM     24  C   UNL     1      -0.019   1.526   0.010  0.00  0.00    +0.005 C 
ATOM     25  C   UNL     1       0.002  -0.004   0.002  0.00  0.00    +0.011 C 
ENDBRANCH  22  25
ENDBRANCH  21  22
ENDBRANCH   1  21
TORSDOF 6
