REMARK  Name = ZINC08889666
REMARK  8 active torsions:
REMARK  status: ('A' for Active; 'I' for Inactive)
REMARK    1  A    between atoms: C_1  and  C_2
REMARK    2  A    between atoms: C_2  and  C_4
REMARK    3  A    between atoms: C_2  and  O_13
REMARK    4  A    between atoms: N_6  and  C_7
REMARK    5  A    between atoms: O_13  and  C_14
REMARK    6  A    between atoms: C_14  and  C_16
REMARK    7  A    between atoms: C_16  and  C_17
REMARK    8  A    between atoms: C_17  and  C_18
REMARK                            x       y       z     vdW  Elec       q    Type
REMARK                         _______ _______ _______ _____ _____    ______ ____
ROOT
ATOM      1  C   UNL     1       2.771  -1.135  -2.286  0.00  0.00    +0.128 C 
ENDROOT
BRANCH   1   2
ATOM      2  C   UNL     1       1.998  -0.651  -1.087  0.00  0.00    +0.308 C 
ATOM      3  O   UNL     1       2.572  -0.429  -0.047  0.00  0.00    -0.251 OA
BRANCH   2   4
ATOM      4  O   UNL     1       0.671  -0.465  -1.174  0.00  0.00    -0.452 OA
BRANCH   4   6
ATOM      5  C   UNL     1      -0.019   1.526   0.010  0.00  0.00    +0.062 C 
ATOM      6  C   UNL     1       0.002  -0.004   0.002  0.00  0.00    +0.258 C 
BRANCH   6   7
ATOM      7  C   UNL     1      -1.412  -0.526   0.013  0.00  0.00    +0.254 C 
ATOM      8  O   UNL     1      -1.836  -1.147  -0.939  0.00  0.00    -0.272 OA
ATOM      9  N   UNL     1      -2.204  -0.302   1.079  0.00  0.00    -0.309 N 
ATOM     10  H   UNL     1      -1.865   0.195   1.840  0.00  0.00    +0.149 HD
BRANCH   9  11
ATOM     11  C   UNL     1      -3.579  -0.809   1.090  0.00  0.00    +0.073 C 
ATOM     12  C   UNL     1      -4.497   0.190   0.383  0.00  0.00    +0.022 C 
ATOM     13  C   UNL     1      -5.932  -0.339   0.394  0.00  0.00    +0.002 C 
ATOM     14  C   UNL     1      -6.397  -0.523   1.839  0.00  0.00    +0.000 C 
ATOM     15  C   UNL     1      -5.479  -1.523   2.547  0.00  0.00    +0.002 C 
ATOM     16  C   UNL     1      -4.044  -0.993   2.536  0.00  0.00    +0.022 C 
ENDBRANCH   9  11
ENDBRANCH   6   7
ENDBRANCH   4   6
ENDBRANCH   2   4
ENDBRANCH   1   2
BRANCH   1  17
ATOM     17  C   UNL     1       4.251  -1.262  -1.922  0.00  0.00    +0.085 C 
BRANCH  17  18
ATOM     18  C   UNL     1       5.024  -1.746  -3.121  0.00  0.00    +0.111 A 
ATOM     19  N   UNL     1       6.365  -1.935  -3.018  0.00  0.00    -0.310 N 
ATOM     20  H   UNL     1       6.807  -1.756  -2.174  0.00  0.00    +0.170 HD
ATOM     21  C   UNL     1       7.093  -2.367  -4.065  0.00  0.00    +0.260 A 
ATOM     22  O   UNL     1       8.296  -2.533  -3.956  0.00  0.00    -0.267 OA
ATOM     23  C   UNL     1       6.431  -2.630  -5.309  0.00  0.00    +0.075 A 
ATOM     24  C   UNL     1       7.012  -3.099  -6.566  0.00  0.00    -0.023 A 
ATOM     25  C   UNL     1       6.167  -3.271  -7.604  0.00  0.00    -0.004 A 
ATOM     26  S   UNL     1       4.571  -2.824  -6.976  0.00  0.00    -0.073 S 
ATOM     27  C   UNL     1       5.045  -2.406  -5.318  0.00  0.00    +0.116 A 
ATOM     28  N   UNL     1       4.392  -1.982  -4.239  0.00  0.00    -0.227 NA
ATOM     29  C   UNL     1       6.510  -3.738  -8.986  0.00  0.00    +0.043 C 
ATOM     30  C   UNL     1       8.032  -3.641  -9.166  0.00  0.00    +0.005 C 
ATOM     31  C   UNL     1       8.711  -4.274  -7.947  0.00  0.00    +0.005 C 
ATOM     32  C   UNL     1       8.503  -3.388  -6.718  0.00  0.00    +0.037 C 
ENDBRANCH  17  18
ENDBRANCH   1  17
TORSDOF 7
