REMARK  Name = ZINC02685637
REMARK  8 active torsions:
REMARK  status: ('A' for Active; 'I' for Inactive)
REMARK    1  A    between atoms: C_1  and  C_2
REMARK    2  A    between atoms: C_2  and  C_3
REMARK    3  A    between atoms: C_6  and  N_8
REMARK    4  A    between atoms: N_8  and  S_9
REMARK    5  A    between atoms: S_9  and  C_12
REMARK    6  A    between atoms: C_15  and  N_18
REMARK    7  A    between atoms: N_18  and  S_19
REMARK    8  A    between atoms: S_19  and  C_22
REMARK                            x       y       z     vdW  Elec       q    Type
REMARK                         _______ _______ _______ _____ _____    ______ ____
ROOT
ATOM      1  C   UNL     1      -7.759  -2.797   0.454  0.00  0.00    +0.111 A 
ATOM      2  C   UNL     1      -7.909  -4.142   0.741  0.00  0.00    +0.031 A 
ATOM      3  C   UNL     1      -9.018  -4.582   1.436  0.00  0.00    +0.026 A 
ATOM      4  C   UNL     1      -9.984  -3.672   1.847  0.00  0.00    +0.048 A 
ATOM      5  C   UNL     1      -9.830  -2.322   1.558  0.00  0.00    +0.026 A 
ATOM      6  C   UNL     1      -8.715  -1.888   0.867  0.00  0.00    +0.031 A 
ENDROOT
BRANCH   1   7
ATOM      7  S   UNL     1      -6.342  -2.240  -0.433  0.00  0.00    +0.094 S 
ATOM      8  O   UNL     1      -6.703  -1.009  -1.044  0.00  0.00    -0.148 OA
ATOM      9  O   UNL     1      -5.868  -3.351  -1.181  0.00  0.00    -0.148 OA
BRANCH   7  10
ATOM     10  N   UNL     1      -5.172  -1.888   0.685  0.00  0.00    -0.068 NA
BRANCH  10  14
ATOM     11  C   UNL     1      -1.468  -0.516  -0.170  0.00  0.00    +0.104 A 
ATOM     12  N   UNL     1      -2.308  -0.758  -1.156  0.00  0.00    -0.145 NA
ATOM     13  N   UNL     1      -3.476  -1.187  -0.954  0.00  0.00    -0.123 NA
ATOM     14  C   UNL     1      -3.933  -1.422   0.269  0.00  0.00    +0.224 A 
ATOM     15  S   UNL     1      -2.490  -0.971   1.228  0.00  0.00    -0.032 S 
BRANCH  11  17
ATOM     16  C   UNL     1      -0.053   1.520  -0.133  0.00  0.00    +0.011 C 
ATOM     17  C   UNL     1      -0.050  -0.008  -0.208  0.00  0.00    +0.061 C 
ENDBRANCH  11  17
ENDBRANCH  10  14
ENDBRANCH   7  10
ENDBRANCH   1   7
BRANCH   4  18
ATOM     18  N   UNL     1     -11.107  -4.114   2.550  0.00  0.00    -0.216 N 
ATOM     19  H   UNL     1     -11.597  -4.892   2.241  0.00  0.00    +0.174 HD
BRANCH  18  20
ATOM     20  S   UNL     1     -11.602  -3.309   3.910  0.00  0.00    +0.072 S 
ATOM     21  O   UNL     1     -11.718  -1.939   3.552  0.00  0.00    -0.150 OA
ATOM     22  O   UNL     1     -12.688  -4.051   4.448  0.00  0.00    -0.150 OA
BRANCH  20  23
ATOM     23  C   UNL     1     -10.291  -3.414   5.083  0.00  0.00    +0.108 A 
ATOM     24  C   UNL     1     -10.180  -4.525   5.898  0.00  0.00    +0.029 A 
ATOM     25  C   UNL     1      -9.152  -4.607   6.818  0.00  0.00    +0.002 A 
ATOM     26  C   UNL     1      -8.235  -3.578   6.923  0.00  0.00    +0.000 A 
ATOM     27  C   UNL     1      -8.345  -2.467   6.108  0.00  0.00    +0.002 A 
ATOM     28  C   UNL     1      -9.371  -2.387   5.185  0.00  0.00    +0.029 A 
ENDBRANCH  20  23
ENDBRANCH  18  20
ENDBRANCH   4  18
TORSDOF 7
