REMARK  Name = ZINC36207845
REMARK  14 active torsions:
REMARK  status: ('A' for Active; 'I' for Inactive)
REMARK    1  A    between atoms: C_1  and  O_2
REMARK    2  A    between atoms: O_2  and  C_3
REMARK    3  A    between atoms: C_6  and  C_9
REMARK    4  A    between atoms: C_18  and  C_20
REMARK    5  A    between atoms: C_20  and  N_21
REMARK    6  A    between atoms: N_21  and  C_22
REMARK    7  A    between atoms: N_21  and  C_28
REMARK    8  A    between atoms: C_22  and  C_23
REMARK    9  A    between atoms: C_28  and  C_29
REMARK   10  A    between atoms: C_29  and  C_31
REMARK   11  A    between atoms: C_29  and  O_36
REMARK   12  A    between atoms: C_31  and  O_32
REMARK   13  A    between atoms: O_32  and  C_33
REMARK   14  A    between atoms: C_33  and  C_34
REMARK                            x       y       z     vdW  Elec       q    Type
REMARK                         _______ _______ _______ _____ _____    ______ ____
ROOT
ATOM      1  C   UNL     1       3.680  -2.886   4.584  0.00  0.00    +0.004 A 
ATOM      2  C   UNL     1       4.867  -2.522   5.127  0.00  0.00    +0.056 A 
ATOM      3  S   UNL     1       4.996  -3.559   6.571  0.00  0.00    -0.076 S 
ATOM      4  C   UNL     1       3.469  -4.449   6.413  0.00  0.00    +0.116 A 
ATOM      5  C   UNL     1       2.892  -3.917   5.249  0.00  0.00    +0.080 A 
ATOM      6  C   UNL     1       1.621  -4.463   4.881  0.00  0.00    +0.260 A 
ATOM      7  O   UNL     1       1.043  -4.069   3.882  0.00  0.00    -0.267 OA
ATOM      8  N   UNL     1       1.074  -5.420   5.654  0.00  0.00    -0.312 N 
ATOM      9  H   UNL     1       0.213  -5.794   5.409  0.00  0.00    +0.170 HD
ATOM     10  C   UNL     1       1.704  -5.872   6.768  0.00  0.00    +0.094 A 
ATOM     11  N   UNL     1       2.868  -5.399   7.125  0.00  0.00    -0.229 NA
ENDROOT
BRANCH   1  15
ATOM     12  C   UNL     1       2.275  -1.046   1.017  0.00  0.00    +0.120 A 
ATOM     13  C   UNL     1       2.717  -0.261   2.073  0.00  0.00    +0.046 A 
ATOM     14  C   UNL     1       3.174  -0.855   3.231  0.00  0.00    +0.012 A 
ATOM     15  C   UNL     1       3.190  -2.245   3.341  0.00  0.00    -0.016 A 
ATOM     16  C   UNL     1       2.744  -3.030   2.278  0.00  0.00    +0.012 A 
ATOM     17  C   UNL     1       2.285  -2.429   1.124  0.00  0.00    +0.046 A 
BRANCH  12  19
ATOM     18  C   UNL     1       1.843   0.971  -0.166  0.00  0.00    +0.277 C 
ATOM     19  O   UNL     1       1.825  -0.457  -0.123  0.00  0.00    -0.495 OA
ENDBRANCH  12  19
ENDBRANCH   1  15
BRANCH  10  20
ATOM     20  C   UNL     1       1.053  -6.944   7.603  0.00  0.00    -0.003 C 
BRANCH  20  21
ATOM     21  N   UNL     1       1.916  -7.266   8.747  0.00  0.00    +0.391 N 
ATOM     22  H   UNL     1       2.845  -7.482   8.417  0.00  0.00    -0.080 HD
BRANCH  21  23
ATOM     23  C   UNL     1       1.975  -6.113   9.655  0.00  0.00    -0.002 C 
BRANCH  23  24
ATOM     24  C   UNL     1       2.933  -6.409  10.781  0.00  0.00    +0.089 A 
ATOM     25  C   UNL     1       4.266  -6.235  10.745  0.00  0.00    +0.042 A 
ATOM     26  C   UNL     1       4.766  -6.635  12.006  0.00  0.00    +0.041 A 
ATOM     27  C   UNL     1       3.707  -7.030  12.736  0.00  0.00    +0.195 A 
ATOM     28  O   UNL     1       2.599  -6.885  11.991  0.00  0.00    -0.470 OA
ENDBRANCH  23  24
ENDBRANCH  21  23
BRANCH  21  29
ATOM     29  C   UNL     1       1.368  -8.426   9.463  0.00  0.00    -0.044 C 
BRANCH  29  30
ATOM     30  C   UNL     1       1.495  -9.673   8.587  0.00  0.00    +0.124 C 
BRANCH  30  31
ATOM     31  O   UNL     1       0.582  -9.581   7.492  0.00  0.00    -0.391 OA
ATOM     32  H   UNL     1      -0.345  -9.512   7.757  0.00  0.00    +0.210 HD
ENDBRANCH  30  31
BRANCH  30  33
ATOM     33  C   UNL     1       1.170 -10.916   9.418  0.00  0.00    +0.190 C 
BRANCH  33  34
ATOM     34  O   UNL     1       1.401 -12.088   8.633  0.00  0.00    -0.365 OA
BRANCH  34  35
ATOM     35  C   UNL     1       1.127 -13.310   9.319  0.00  0.00    +0.248 C 
BRANCH  35  36
ATOM     36  C   UNL     1       1.397 -14.447   8.424  0.00  0.00    -0.077 C 
ATOM     37  C   UNL     1       1.612 -15.354   7.710  0.00  0.00    +0.006 C 
ENDBRANCH  35  36
ENDBRANCH  34  35
ENDBRANCH  33  34
ENDBRANCH  30  33
ENDBRANCH  29  30
ENDBRANCH  21  29
ENDBRANCH  20  21
ENDBRANCH  10  20
TORSDOF 13
