REMARK  Name = ZINC21148752
REMARK  14 active torsions:
REMARK  status: ('A' for Active; 'I' for Inactive)
REMARK    1  A    between atoms: C_1  and  C_2
REMARK    2  A    between atoms: C_2  and  N_3
REMARK    3  A    between atoms: N_3  and  C_4
REMARK    4  A    between atoms: N_3  and  C_6
REMARK    5  A    between atoms: C_4  and  C_5
REMARK    6  A    between atoms: C_6  and  C_7
REMARK    7  A    between atoms: C_7  and  N_8
REMARK    8  A    between atoms: N_8  and  C_9
REMARK    9  A    between atoms: C_10  and  S_24
REMARK   10  A    between atoms: C_12  and  S_14
REMARK   11  A    between atoms: S_14  and  C_17
REMARK   12  A    between atoms: C_20  and  C_23
REMARK   13  A    between atoms: S_24  and  C_27
REMARK   14  A    between atoms: C_30  and  C_33
REMARK                            x       y       z     vdW  Elec       q    Type
REMARK                         _______ _______ _______ _____ _____    ______ ____
ROOT
ATOM      1  C   UNL     1      -1.192  -1.945   1.371  0.00  0.00    +0.113 A 
ATOM      2  C   UNL     1      -2.282  -2.671   1.753  0.00  0.00    +0.212 A 
ATOM      3  N   UNL     1      -2.168  -3.971   1.930  0.00  0.00    -0.201 NA
ATOM      4  C   UNL     1      -1.024  -4.592   1.747  0.00  0.00    +0.224 A 
ATOM      5  S   UNL     1       0.039  -3.238   1.264  0.00  0.00    -0.032 S 
ENDROOT
BRANCH   4   6
ATOM      6  S   UNL     1      -0.641  -6.303   1.924  0.00  0.00    +0.049 S 
ATOM      7  O   UNL     1       0.756  -6.384   2.167  0.00  0.00    -0.162 OA
ATOM      8  O   UNL     1      -1.603  -6.844   2.819  0.00  0.00    -0.162 OA
BRANCH   6   9
ATOM      9  C   UNL     1      -0.926  -7.065   0.360  0.00  0.00    +0.096 A 
ATOM     10  C   UNL     1      -2.170  -7.589   0.063  0.00  0.00    +0.028 A 
ATOM     11  C   UNL     1      -2.394  -8.183  -1.165  0.00  0.00    +0.005 A 
ATOM     12  C   UNL     1      -1.372  -8.260  -2.093  0.00  0.00    -0.050 A 
ATOM     13  C   UNL     1      -0.127  -7.740  -1.793  0.00  0.00    +0.005 A 
ATOM     14  C   UNL     1       0.097  -7.143  -0.567  0.00  0.00    +0.028 A 
ATOM     15  C   UNL     1      -1.615  -8.911  -3.430  0.00  0.00    +0.044 C 
ENDBRANCH   6   9
ENDBRANCH   4   6
BRANCH   2  16
ATOM     16  S   UNL     1      -3.833  -1.874   2.008  0.00  0.00    +0.044 S 
ATOM     17  O   UNL     1      -4.574  -2.701   2.894  0.00  0.00    -0.163 OA
ATOM     18  O   UNL     1      -3.548  -0.512   2.296  0.00  0.00    -0.163 OA
BRANCH  16  19
ATOM     19  C   UNL     1      -4.688  -1.894   0.467  0.00  0.00    +0.095 A 
ATOM     20  C   UNL     1      -4.535  -0.847  -0.422  0.00  0.00    +0.028 A 
ATOM     21  C   UNL     1      -5.203  -0.865  -1.632  0.00  0.00    +0.005 A 
ATOM     22  C   UNL     1      -6.030  -1.925  -1.950  0.00  0.00    -0.050 A 
ATOM     23  C   UNL     1      -6.188  -2.970  -1.058  0.00  0.00    +0.005 A 
ATOM     24  C   UNL     1      -5.517  -2.954   0.151  0.00  0.00    +0.028 A 
ATOM     25  C   UNL     1      -6.761  -1.943  -3.267  0.00  0.00    +0.044 C 
ENDBRANCH  16  19
ENDBRANCH   2  16
BRANCH   1  26
ATOM     26  N   UNL     1      -1.072  -0.576   1.124  0.00  0.00    -0.337 N 
ATOM     27  H   UNL     1      -1.947   0.082   1.235  0.00  0.00    +0.147 HD
BRANCH  26  28
ATOM     28  C   UNL     1       0.219  -0.014   0.719  0.00  0.00    +0.083 C 
BRANCH  28  29
ATOM     29  C   UNL     1       0.077   1.495   0.515  0.00  0.00    -0.060 C 
BRANCH  29  30
ATOM     30  N   UNL     1       1.372   2.058   0.108  0.00  0.00    +0.380 N 
ATOM     31  H   UNL     1       2.128   1.725   0.834  0.00  0.00    -0.082 HD
BRANCH  30  33
ATOM     32  C   UNL     1       0.725   1.984  -2.253  0.00  0.00    -0.017 C 
ATOM     33  C   UNL     1       1.768   1.562  -1.217  0.00  0.00    -0.082 C 
ENDBRANCH  30  33
BRANCH  30  34
ATOM     34  C   UNL     1       1.338   3.526   0.132  0.00  0.00    -0.082 C 
ATOM     35  C   UNL     1       2.768   4.070   0.092  0.00  0.00    -0.017 C 
ENDBRANCH  30  34
ENDBRANCH  29  30
ENDBRANCH  28  29
ENDBRANCH  26  28
ENDBRANCH   1  26
TORSDOF 10
