REMARK  Name = ZINC59020326
REMARK  9 active torsions:
REMARK  status: ('A' for Active; 'I' for Inactive)
REMARK    1  A    between atoms: C_1  and  C_2
REMARK    2  A    between atoms: C_2  and  S_3
REMARK    3  A    between atoms: S_3  and  C_4
REMARK    4  A    between atoms: C_10  and  C_12
REMARK    5  A    between atoms: C_12  and  S_13
REMARK    6  A    between atoms: S_13  and  C_14
REMARK    7  A    between atoms: N_19  and  N_20
REMARK    8  A    between atoms: C_21  and  C_22
REMARK    9  A    between atoms: C_21  and  C_23
REMARK                            x       y       z     vdW  Elec       q    Type
REMARK                         _______ _______ _______ _____ _____    ______ ____
ROOT
ATOM      1  C   UNL     1       0.789 -11.963  -2.931  0.00  0.00    +0.211 A 
ATOM      2  N   UNL     1       1.455 -12.848  -2.183  0.00  0.00    -0.186 NA
ATOM      3  C   UNL     1       0.663 -13.854  -1.876  0.00  0.00    +0.232 A 
ATOM      4  N   UNL     1      -0.544 -13.619  -2.433  0.00  0.00    -0.245 N 
ATOM      5  N   UNL     1      -0.439 -12.390  -3.104  0.00  0.00    -0.144 NA
ATOM      6  N   UNL     1       1.007 -14.957  -1.115  0.00  0.00    -0.205 N 
ATOM      7  H   UNL     1       0.351 -15.650  -0.942  0.00  0.00    +0.177 HD
ATOM      8  H   UNL     1      -1.329 -14.186  -2.379  0.00  0.00    +0.192 HD
ENDROOT
BRANCH   6   9
ATOM      9  N   UNL     1       2.302 -15.072  -0.594  0.00  0.00    -0.184 NA
ATOM     10  C   UNL     1       2.660 -16.158   0.021  0.00  0.00    +0.063 C 
ATOM     11  C   UNL     1       3.982 -16.215   0.742  0.00  0.00    +0.068 C 
BRANCH  10  12
ATOM     12  C   UNL     1       1.773 -17.336   0.013  0.00  0.00    -0.003 A 
ATOM     13  C   UNL     1       1.027 -17.646  -1.126  0.00  0.00    +0.010 A 
ATOM     14  C   UNL     1       0.199 -18.749  -1.126  0.00  0.00    +0.001 A 
ATOM     15  C   UNL     1       0.107 -19.549  -0.001  0.00  0.00    +0.000 A 
ATOM     16  C   UNL     1       0.843 -19.248   1.132  0.00  0.00    +0.001 A 
ATOM     17  C   UNL     1       1.679 -18.151   1.144  0.00  0.00    +0.010 A 
ENDBRANCH  10  12
ENDBRANCH   6   9
BRANCH   1  18
ATOM     18  S   UNL     1       1.450 -10.461  -3.572  0.00  0.00    -0.075 S 
BRANCH  18  19
ATOM     19  C   UNL     1       0.062  -9.721  -4.476  0.00  0.00    +0.173 C 
BRANCH  19  26
ATOM     20  C   UNL     1       0.454  -4.135  -7.573  0.00  0.00    +0.160 A 
ATOM     21  N   UNL     1       1.405  -4.754  -6.889  0.00  0.00    -0.133 NA
ATOM     22  N   UNL     1       1.203  -5.861  -6.318  0.00  0.00    -0.125 NA
ATOM     23  C   UNL     1       0.030  -6.471  -6.367  0.00  0.00    +0.189 A 
ATOM     24  S   UNL     1      -0.892  -5.296  -7.353  0.00  0.00    -0.024 S 
ATOM     25  N   UNL     1      -0.373  -7.681  -5.806  0.00  0.00    -0.263 N 
ATOM     26  C   UNL     1       0.499  -8.412  -5.083  0.00  0.00    +0.229 C 
ATOM     27  O   UNL     1       1.634  -8.018  -4.922  0.00  0.00    -0.275 OA
ATOM     28  H   UNL     1      -1.281  -7.996  -5.935  0.00  0.00    +0.157 HD
BRANCH  20  29
ATOM     29  S   UNL     1       0.498  -2.604  -8.444  0.00  0.00    -0.097 S 
BRANCH  29  31
ATOM     30  C   UNL     1       2.377  -0.676  -8.928  0.00  0.00    +0.016 C 
ATOM     31  C   UNL     1       2.199  -2.017  -8.213  0.00  0.00    +0.073 C 
ENDBRANCH  29  31
ENDBRANCH  20  29
ENDBRANCH  19  26
ENDBRANCH  18  19
ENDBRANCH   1  18
TORSDOF 7
