REMARK  Name = ZINC05484273
REMARK  7 active torsions:
REMARK  status: ('A' for Active; 'I' for Inactive)
REMARK    1  A    between atoms: C_4  and  N_7
REMARK    2  A    between atoms: N_7  and  N_8
REMARK    3  A    between atoms: N_8  and  C_9
REMARK    4  A    between atoms: C_10  and  N_22
REMARK    5  A    between atoms: N_13  and  C_16
REMARK    6  A    between atoms: N_22  and  N_23
REMARK    7  A    between atoms: N_23  and  C_24
REMARK                            x       y       z     vdW  Elec       q    Type
REMARK                         _______ _______ _______ _____ _____    ______ ____
ROOT
ATOM      1  C   UNL     1       6.040  -0.598   0.156  0.00  0.00    +0.135 C 
ATOM      2  C   UNL     1       6.229  -1.947   0.158  0.00  0.00    +0.135 C 
ATOM      3  C   UNL     1       7.686  -2.166   0.260  0.00  0.00    +0.275 C 
ATOM      4  O   UNL     1       8.241  -3.246   0.290  0.00  0.00    -0.268 OA
ATOM      5  N   UNL     1       8.295  -0.968   0.314  0.00  0.00    -0.200 N 
ATOM      6  C   UNL     1       7.380   0.015   0.250  0.00  0.00    +0.275 C 
ATOM      7  O   UNL     1       7.616   1.206   0.271  0.00  0.00    -0.268 OA
ENDROOT
BRANCH   5   8
ATOM      8  C   UNL     1       9.679  -0.774   0.414  0.00  0.00    +0.045 A 
ATOM      9  C   UNL     1      10.533  -1.867   0.472  0.00  0.00    +0.024 A 
ATOM     10  C   UNL     1      11.897  -1.672   0.565  0.00  0.00    +0.002 A 
ATOM     11  C   UNL     1      12.412  -0.389   0.613  0.00  0.00    +0.000 A 
ATOM     12  C   UNL     1      11.563   0.702   0.561  0.00  0.00    +0.002 A 
ATOM     13  C   UNL     1      10.199   0.513   0.462  0.00  0.00    +0.024 A 
ENDBRANCH   5   8
BRANCH   1  14
ATOM     14  N   UNL     1       4.822   0.072   0.074  0.00  0.00    -0.260 N 
ATOM     15  H   UNL     1       3.991  -0.429   0.089  0.00  0.00    +0.170 HD
BRANCH  14  16
ATOM     16  N   UNL     1       4.796   1.469  -0.028  0.00  0.00    -0.266 N 
ATOM     17  H   UNL     1       5.626   1.964  -0.119  0.00  0.00    +0.170 HD
BRANCH  16  21
ATOM     18  C   UNL     1       1.160   3.496   0.057  0.00  0.00    +0.000 A 
ATOM     19  C   UNL     1       1.179   2.113   0.050  0.00  0.00    +0.002 A 
ATOM     20  C   UNL     1       2.384   1.438   0.021  0.00  0.00    +0.024 A 
ATOM     21  C   UNL     1       3.577   2.149   0.000  0.00  0.00    +0.044 A 
ATOM     22  C   UNL     1       3.554   3.538   0.007  0.00  0.00    +0.024 A 
ATOM     23  C   UNL     1       2.346   4.207   0.036  0.00  0.00    +0.002 A 
ENDBRANCH  16  21
ENDBRANCH  14  16
ENDBRANCH   1  14
BRANCH   2  24
ATOM     24  N   UNL     1       5.243  -2.926   0.079  0.00  0.00    -0.260 N 
ATOM     25  H   UNL     1       4.307  -2.673   0.090  0.00  0.00    +0.170 HD
BRANCH  24  26
ATOM     26  N   UNL     1       5.604  -4.276  -0.017  0.00  0.00    -0.266 N 
ATOM     27  H   UNL     1       6.536  -4.535   0.048  0.00  0.00    +0.170 HD
BRANCH  26  28
ATOM     28  C   UNL     1       4.620  -5.250  -0.206  0.00  0.00    +0.044 A 
ATOM     29  C   UNL     1       3.297  -4.874  -0.404  0.00  0.00    +0.024 A 
ATOM     30  C   UNL     1       2.328  -5.839  -0.596  0.00  0.00    +0.002 A 
ATOM     31  C   UNL     1       2.671  -7.178  -0.579  0.00  0.00    +0.000 A 
ATOM     32  C   UNL     1       3.986  -7.556  -0.376  0.00  0.00    +0.002 A 
ATOM     33  C   UNL     1       4.961  -6.596  -0.190  0.00  0.00    +0.024 A 
ENDBRANCH  26  28
ENDBRANCH  24  26
ENDBRANCH   2  24
TORSDOF 7
