REMARK  Name = ZINC35190335
REMARK  2 active torsions:
REMARK  status: ('A' for Active; 'I' for Inactive)
REMARK    1  A    between atoms: C_4  and  C_7
REMARK    2  A    between atoms: C_7  and  C_9
REMARK                            x       y       z     vdW  Elec       q    Type
REMARK                         _______ _______ _______ _____ _____    ______ ____
ROOT
ATOM      1  C   UNL     1       3.716  -2.181  -0.046  0.00  0.00    +0.115 C 
ATOM      2  C   UNL     1       4.958  -2.751   0.646  0.00  0.00    +0.102 C 
ATOM      3  C   UNL     1       4.533  -3.759   1.689  0.00  0.00    -0.009 A 
ATOM      4  C   UNL     1       3.952  -5.003   1.613  0.00  0.00    +0.006 A 
ATOM      5  C   UNL     1       3.633  -5.687   2.773  0.00  0.00    +0.000 A 
ATOM      6  C   UNL     1       3.913  -5.120   4.003  0.00  0.00    +0.002 A 
ATOM      7  C   UNL     1       4.525  -3.885   4.080  0.00  0.00    +0.023 A 
ATOM      8  C   UNL     1       4.857  -3.194   2.917  0.00  0.00    +0.038 A 
ATOM      9  N   UNL     1       5.526  -1.985   2.725  0.00  0.00    -0.284 N 
ATOM     10  C   UNL     1       5.725  -1.718   1.415  0.00  0.00    +0.230 C 
ATOM     11  O   UNL     1       6.421  -0.822   0.986  0.00  0.00    -0.274 OA
ATOM     12  C   UNL     1       5.786  -3.424  -0.445  0.00  0.00    +0.078 C 
ATOM     13  C   UNL     1       6.786  -2.423  -1.067  0.00  0.00    +0.021 C 
ATOM     14  C   UNL     1       6.954  -2.981  -2.504  0.00  0.00    +0.017 C 
ATOM     15  C   UNL     1       5.594  -3.642  -2.810  0.00  0.00    +0.086 C 
ATOM     16  N   UNL     1       4.838  -3.710  -1.556  0.00  0.00    -0.280 NA
ATOM     17  C   UNL     1       3.738  -2.754  -1.470  0.00  0.00    +0.138 C 
ATOM     18  C   UNL     1       2.413  -3.427  -1.748  0.00  0.00    +0.005 A 
ATOM     19  C   UNL     1       1.766  -4.500  -1.178  0.00  0.00    +0.027 A 
ATOM     20  C   UNL     1       0.527  -4.894  -1.653  0.00  0.00    +0.041 A 
ATOM     21  C   UNL     1      -0.062  -4.200  -2.696  0.00  0.00    +0.022 A 
ATOM     22  C   UNL     1       0.583  -3.121  -3.267  0.00  0.00    +0.025 A 
ATOM     23  C   UNL     1       1.834  -2.724  -2.798  0.00  0.00    +0.039 A 
ATOM     24  N   UNL     1       2.680  -1.694  -3.210  0.00  0.00    -0.283 N 
ATOM     25  C   UNL     1       3.833  -1.672  -2.510  0.00  0.00    +0.243 C 
ATOM     26  O   UNL     1       4.764  -0.923  -2.721  0.00  0.00    -0.273 OA
ATOM     27 CL   UNL     1      -0.286  -6.254  -0.942  0.00  0.00    -0.084 Cl
ATOM     28  H   UNL     1       5.817  -1.402   3.442  0.00  0.00    +0.155 HD
ATOM     29  H   UNL     1       2.467  -1.065  -3.917  0.00  0.00    +0.155 HD
ENDROOT
BRANCH   1  30
ATOM     30  C   UNL     1       3.691  -0.679  -0.038  0.00  0.00    +0.170 C 
ATOM     31  O   UNL     1       4.731  -0.056  -0.045  0.00  0.00    -0.292 OA
BRANCH  30  35
ATOM     32  C   UNL     1      -0.017   1.380   0.010  0.00  0.00    +0.000 A 
ATOM     33  C   UNL     1       1.168   2.095   0.002  0.00  0.00    +0.001 A 
ATOM     34  C   UNL     1       2.377   1.433  -0.013  0.00  0.00    +0.011 A 
ATOM     35  C   UNL     1       2.405   0.035  -0.021  0.00  0.00    +0.018 A 
ATOM     36  C   UNL     1       1.203  -0.681  -0.013  0.00  0.00    +0.011 A 
ATOM     37  C   UNL     1       0.002  -0.004   0.002  0.00  0.00    +0.001 A 
ENDBRANCH  30  35
ENDBRANCH   1  30
TORSDOF 2
