REMARK  Name = ZINC59818993
REMARK  9 active torsions:
REMARK  status: ('A' for Active; 'I' for Inactive)
REMARK    1  A    between atoms: C_1  and  C_2
REMARK    2  A    between atoms: C_2  and  N_3
REMARK    3  A    between atoms: C_4  and  C_6
REMARK    4  A    between atoms: C_6  and  C_7
REMARK    5  A    between atoms: C_7  and  S_8
REMARK    6  A    between atoms: S_8  and  C_9
REMARK    7  A    between atoms: N_14  and  N_15
REMARK    8  A    between atoms: C_16  and  C_17
REMARK    9  A    between atoms: C_20  and  O_24
REMARK                            x       y       z     vdW  Elec       q    Type
REMARK                         _______ _______ _______ _____ _____    ______ ____
ROOT
ATOM      1  C   UNL     1      -4.504  -6.270   0.011  0.00  0.00    +0.210 A 
ATOM      2  N   UNL     1      -5.501  -7.161   0.011  0.00  0.00    -0.186 NA
ATOM      3  C   UNL     1      -5.005  -8.381   0.001  0.00  0.00    +0.232 A 
ATOM      4  N   UNL     1      -3.659  -8.284  -0.004  0.00  0.00    -0.245 N 
ATOM      5  N   UNL     1      -3.360  -6.912  -0.003  0.00  0.00    -0.144 NA
ATOM      6  N   UNL     1      -5.736  -9.555  -0.002  0.00  0.00    -0.205 N 
ATOM      7  H   UNL     1      -5.279 -10.410  -0.009  0.00  0.00    +0.177 HD
ATOM      8  H   UNL     1      -3.024  -9.017  -0.012  0.00  0.00    +0.192 HD
ENDROOT
BRANCH   6   9
ATOM      9  N   UNL     1      -7.136  -9.509   0.004  0.00  0.00    -0.188 NA
ATOM     10  C   UNL     1      -7.822 -10.611   0.001  0.00  0.00    +0.138 C 
BRANCH  10  11
ATOM     11  C   UNL     1      -9.295 -10.563   0.007  0.00  0.00    -0.003 A 
ATOM     12  C   UNL     1      -9.956  -9.332   0.011  0.00  0.00    +0.028 A 
ATOM     13  C   UNL     1     -11.334  -9.291   0.018  0.00  0.00    +0.061 A 
ATOM     14  C   UNL     1     -12.066 -10.472   0.020  0.00  0.00    +0.145 A 
ATOM     15  C   UNL     1     -11.413 -11.699   0.016  0.00  0.00    +0.061 A 
ATOM     16  C   UNL     1     -10.035 -11.748   0.004  0.00  0.00    +0.028 A 
ATOM     17 BR   UNL     1     -12.416 -13.302   0.020  0.00  0.00    -0.046 Br
ATOM     18 BR   UNL     1     -12.230  -7.626   0.023  0.00  0.00    -0.046 Br
BRANCH  14  19
ATOM     19  O   UNL     1     -13.424 -10.428   0.027  0.00  0.00    -0.505 OA
ATOM     20  H   UNL     1     -13.822 -10.414  -0.854  0.00  0.00    +0.292 HD
ENDBRANCH  14  19
ENDBRANCH  10  11
ENDBRANCH   6   9
BRANCH   1  21
ATOM     21  S   UNL     1      -4.696  -4.519   0.023  0.00  0.00    -0.084 S 
BRANCH  21  22
ATOM     22  C   UNL     1      -2.994  -3.891   0.010  0.00  0.00    +0.086 C 
BRANCH  22  23
ATOM     23  C   UNL     1      -3.014  -2.361   0.018  0.00  0.00    +0.107 C 
BRANCH  23  25
ATOM     24  N   UNL     1      -1.372  -0.511   0.012  0.00  0.00    -0.316 N 
ATOM     25  C   UNL     1      -1.601  -1.839   0.007  0.00  0.00    +0.214 C 
ATOM     26  O   UNL     1      -0.668  -2.615  -0.006  0.00  0.00    -0.276 OA
ATOM     27  H   UNL     1      -2.118   0.109   0.023  0.00  0.00    +0.149 HD
BRANCH  24  29
ATOM     28  C   UNL     1      -0.019   1.526   0.010  0.00  0.00    +0.024 C 
ATOM     29  C   UNL     1       0.002  -0.004   0.002  0.00  0.00    +0.101 C 
ENDBRANCH  24  29
ENDBRANCH  23  25
ENDBRANCH  22  23
ENDBRANCH  21  22
ENDBRANCH   1  21
TORSDOF 8
