REMARK  Name = ZINC66444668
REMARK  7 active torsions:
REMARK  status: ('A' for Active; 'I' for Inactive)
REMARK    1  A    between atoms: C_1  and  N_2
REMARK    2  A    between atoms: N_2  and  C_3
REMARK    3  A    between atoms: C_6  and  N_24
REMARK    4  A    between atoms: C_8  and  C_9
REMARK    5  A    between atoms: N_11  and  C_12
REMARK    6  A    between atoms: C_16  and  S_18
REMARK    7  A    between atoms: S_18  and  C_21
REMARK                            x       y       z     vdW  Elec       q    Type
REMARK                         _______ _______ _______ _____ _____    ______ ____
ROOT
ATOM      1  C   UNL     1      -0.324  -2.829   0.121  0.00  0.00    +0.250 C 
ATOM      2  O   UNL     1      -0.924  -2.239  -0.756  0.00  0.00    -0.270 OA
ATOM      3  N   UNL     1      -0.328  -4.177   0.152  0.00  0.00    -0.281 N 
ATOM      4  H   UNL     1       0.087  -4.646   0.893  0.00  0.00    +0.155 HD
ENDROOT
BRANCH   1  10
ATOM      5  C   UNL     1       0.321  -0.670   1.194  0.00  0.00    +0.039 A 
ATOM      6  C   UNL     1       1.010   0.033   2.174  0.00  0.00    +0.026 A 
ATOM      7  C   UNL     1       1.781  -0.644   3.096  0.00  0.00    +0.034 A 
ATOM      8  C   UNL     1       1.874  -2.026   3.054  0.00  0.00    +0.127 A 
ATOM      9  C   UNL     1       1.198  -2.741   2.090  0.00  0.00    +0.047 A 
ATOM     10  C   UNL     1       0.408  -2.071   1.152  0.00  0.00    +0.060 A 
BRANCH   5  12
ATOM     11  C   UNL     1      -0.656   1.454   0.392  0.00  0.00    +0.125 C 
ATOM     12  N   UNL     1      -0.456   0.009   0.263  0.00  0.00    -0.346 N 
ATOM     13  H   UNL     1      -0.865  -0.474  -0.471  0.00  0.00    +0.146 HD
ENDBRANCH   5  12
BRANCH   8  14
ATOM     14  N   UNL     1       2.705  -2.739   4.051  0.00  0.00    +0.056 N 
ATOM     15  O   UNL     1       3.301  -2.115   4.898  0.00  0.00    -0.126 OA
ATOM     16  O   UNL     1       2.788  -3.945   4.017  0.00  0.00    -0.126 OA
ENDBRANCH   8  14
ENDBRANCH   1  10
BRANCH   3  17
ATOM     17  C   UNL     1      -0.929  -4.898  -0.884  0.00  0.00    +0.035 A 
ATOM     18  C   UNL     1      -0.900  -4.406  -2.183  0.00  0.00    +0.023 A 
ATOM     19  C   UNL     1      -1.495  -5.121  -3.204  0.00  0.00    +0.004 A 
ATOM     20  C   UNL     1      -2.119  -6.325  -2.934  0.00  0.00    +0.027 A 
ATOM     21  C   UNL     1      -2.150  -6.818  -1.643  0.00  0.00    +0.096 A 
ATOM     22  C   UNL     1      -1.552  -6.110  -0.618  0.00  0.00    +0.050 A 
BRANCH  21  23
ATOM     23  S   UNL     1      -2.947  -8.352  -1.305  0.00  0.00    +0.058 S 
ATOM     24  O   UNL     1      -3.339  -8.265   0.058  0.00  0.00    -0.164 OA
ATOM     25  O   UNL     1      -3.920  -8.489  -2.331  0.00  0.00    -0.164 OA
BRANCH  23  26
ATOM     26  C   UNL     1      -1.649  -9.605  -1.502  0.00  0.00    +0.485 C 
ATOM     27  F   UNL     1      -1.150  -9.557  -2.808  0.00  0.00    -0.183 F 
ATOM     28  F   UNL     1      -0.613  -9.349  -0.597  0.00  0.00    -0.183 F 
ENDBRANCH  23  26
ENDBRANCH  21  23
ENDBRANCH   3  17
TORSDOF 6
