REMARK  Name = ZINC36271854
REMARK  6 active torsions:
REMARK  status: ('A' for Active; 'I' for Inactive)
REMARK    1  A    between atoms: C_1  and  C_2
REMARK    2  A    between atoms: C_7  and  C_32
REMARK    3  A    between atoms: N_9  and  C_10
REMARK    4  A    between atoms: C_10  and  C_11
REMARK    5  A    between atoms: C_12  and  C_21
REMARK    6  A    between atoms: C_17  and  N_20
REMARK                            x       y       z     vdW  Elec       q    Type
REMARK                         _______ _______ _______ _____ _____    ______ ____
ROOT
ATOM      1  C   UNL     1       2.332  -0.287   3.027  0.00  0.00    +0.035 A 
ATOM      2  C   UNL     1       1.973   0.134   4.272  0.00  0.00    +0.091 A 
ATOM      3  N   UNL     1       2.680  -0.566   5.173  0.00  0.00    -0.228 NA
ATOM      4  C   UNL     1       3.474  -1.415   4.536  0.00  0.00    +0.138 A 
ATOM      5  N   UNL     1       3.272  -1.266   3.189  0.00  0.00    -0.303 N 
ATOM      6  C   UNL     1       3.967  -2.033   2.295  0.00  0.00    +0.115 A 
ATOM      7  C   UNL     1       4.862  -2.954   2.727  0.00  0.00    +0.041 A 
ATOM      8  C   UNL     1       5.086  -3.130   4.107  0.00  0.00    +0.028 A 
ATOM      9  C   UNL     1       4.406  -2.365   5.002  0.00  0.00    +0.048 A 
ENDROOT
BRANCH   2  10
ATOM     10  C   UNL     1       0.973   1.186   4.579  0.00  0.00    +0.006 A 
ATOM     11  C   UNL     1       0.956   2.369   3.840  0.00  0.00    +0.012 A 
ATOM     12  C   UNL     1       0.027   3.348   4.123  0.00  0.00    +0.030 A 
ATOM     13  C   UNL     1      -0.892   3.156   5.145  0.00  0.00    +0.087 A 
ATOM     14  C   UNL     1      -0.881   1.975   5.888  0.00  0.00    +0.157 A 
ATOM     15  C   UNL     1       0.048   0.989   5.601  0.00  0.00    +0.058 A 
ATOM     16  O   UNL     1      -1.876   2.066   6.804  0.00  0.00    -0.408 OA
ATOM     17  C   UNL     1      -2.500   3.246   6.662  0.00  0.00    +0.419 A 
ATOM     18  O   UNL     1      -3.437   3.631   7.334  0.00  0.00    -0.223 OA
ATOM     19  N   UNL     1      -1.926   3.939   5.658  0.00  0.00    -0.288 N 
ATOM     20  H   UNL     1      -2.186   4.821   5.348  0.00  0.00    +0.172 HD
ENDBRANCH   2  10
BRANCH   7  21
ATOM     21  N   UNL     1       5.566  -3.733   1.799  0.00  0.00    -0.357 N 
ATOM     22  H   UNL     1       5.413  -3.613   0.849  0.00  0.00    +0.142 HD
ATOM     23  H   UNL     1       6.207  -4.393   2.107  0.00  0.00    +0.142 HD
ENDBRANCH   7  21
BRANCH   1  24
ATOM     24  C   UNL     1       1.791   0.225   1.717  0.00  0.00    -0.021 C 
BRANCH  24  31
ATOM     25  C   UNL     1       0.104   2.177   0.608  0.00  0.00    -0.013 C 
ATOM     26  C   UNL     1      -0.223   0.686   0.502  0.00  0.00    -0.071 C 
ATOM     27  C   UNL     1      -1.742   0.499   0.480  0.00  0.00    -0.016 C 
ATOM     28  C   UNL     1      -2.065  -0.995   0.373  0.00  0.00    -0.003 C 
ATOM     29  C   UNL     1      -1.405  -1.734   1.541  0.00  0.00    -0.016 C 
ATOM     30  C   UNL     1       0.101  -1.463   1.524  0.00  0.00    -0.071 C 
ATOM     31  N   UNL     1       0.344  -0.022   1.655  0.00  0.00    +0.387 N 
ATOM     32  C   UNL     1       0.764  -2.200   2.689  0.00  0.00    -0.013 C 
ATOM     33  H   UNL     1      -0.089   0.316   2.502  0.00  0.00    -0.081 HD
ENDBRANCH  24  31
ENDBRANCH   1  24
TORSDOF 4
