REMARK  Name = ZINC06443601
REMARK  9 active torsions:
REMARK  status: ('A' for Active; 'I' for Inactive)
REMARK    1  A    between atoms: C_1  and  C_2
REMARK    2  A    between atoms: C_12  and  C_14
REMARK    3  A    between atoms: C_14  and  C_16
REMARK    4  A    between atoms: C_14  and  N_67
REMARK    5  A    between atoms: N_20  and  C_21
REMARK    6  A    between atoms: C_26  and  C_27
REMARK    7  A    between atoms: C_26  and  N_67
REMARK    8  A    between atoms: C_34  and  C_35
REMARK    9  A    between atoms: C_34  and  N_67
REMARK                            x       y       z     vdW  Elec       q    Type
REMARK                         _______ _______ _______ _____ _____    ______ ____
ROOT
ATOM      1  C   UNL     1      -0.278  -2.261   4.331  0.00  0.00    +0.040 C 
ENDROOT
BRANCH   1  13
ATOM      2  C   UNL     1      -0.832   3.715   1.651  0.00  0.00    +0.046 C 
ATOM      3  C   UNL     1      -1.273   2.360   1.161  0.00  0.00    -0.026 A 
ATOM      4  C   UNL     1      -1.921   2.239  -0.050  0.00  0.00    +0.005 A 
ATOM      5  C   UNL     1      -2.325   0.996  -0.515  0.00  0.00    +0.001 A 
ATOM      6  C   UNL     1      -2.101  -0.131   0.224  0.00  0.00    +0.010 A 
ATOM      7  C   UNL     1      -1.451  -0.032   1.459  0.00  0.00    -0.001 A 
ATOM      8  C   UNL     1      -1.032   1.227   1.931  0.00  0.00    +0.052 A 
ATOM      9  N   UNL     1      -0.391   1.319   3.148  0.00  0.00    -0.322 N 
ATOM     10  H   UNL     1      -0.104   2.187   3.473  0.00  0.00    +0.169 HD
ATOM     11  C   UNL     1      -0.160   0.224   3.893  0.00  0.00    +0.251 A 
ATOM     12  O   UNL     1       0.409   0.343   4.964  0.00  0.00    -0.268 OA
ATOM     13  C   UNL     1      -0.559  -1.061   3.465  0.00  0.00    +0.011 A 
ATOM     14  C   UNL     1      -1.192  -1.218   2.276  0.00  0.00    +0.017 A 
ENDBRANCH   1  13
BRANCH   1  15
ATOM     15  C   UNL     1       1.211  -2.451   4.459  0.00  0.00    +0.143 A 
ATOM     16  N   UNL     1       2.031  -1.738   5.192  0.00  0.00    -0.115 NA
ATOM     17  N   UNL     1       3.219  -2.211   5.035  0.00  0.00    -0.023 NA
ATOM     18  N   UNL     1       3.179  -3.208   4.222  0.00  0.00    -0.044 NA
ATOM     19  N   UNL     1       1.957  -3.391   3.849  0.00  0.00    -0.227 N 
BRANCH  19  20
ATOM     20  C   UNL     1       1.473  -4.425   2.931  0.00  0.00    +0.111 C 
ATOM     21  C   UNL     1       1.838  -5.823   3.470  0.00  0.00    +0.027 C 
ATOM     22  C   UNL     1       2.190  -6.639   2.201  0.00  0.00    +0.002 C 
ATOM     23  C   UNL     1       2.933  -5.602   1.322  0.00  0.00    +0.002 C 
ATOM     24  C   UNL     1       2.169  -4.285   1.565  0.00  0.00    +0.027 C 
ENDBRANCH  19  20
ENDBRANCH   1  15
BRANCH   1  25
ATOM     25  N   UNL     1      -0.846  -2.031   5.676  0.00  0.00    +0.397 N 
ATOM     26  H   UNL     1      -0.289  -1.314   6.155  0.00  0.00    -0.079 HD
BRANCH  25  27
ATOM     27  C   UNL     1      -2.242  -1.558   5.561  0.00  0.00    -0.041 C 
BRANCH  27  28
ATOM     28  C   UNL     1      -2.671  -0.989   6.889  0.00  0.00    -0.064 A 
ATOM     29  C   UNL     1      -3.297  -1.798   7.817  0.00  0.00    +0.003 A 
ATOM     30  C   UNL     1      -3.686  -1.278   9.038  0.00  0.00    +0.020 A 
ATOM     31  C   UNL     1      -3.458   0.056   9.325  0.00  0.00    +0.041 A 
ATOM     32  C   UNL     1      -2.836   0.867   8.393  0.00  0.00    +0.020 A 
ATOM     33  C   UNL     1      -2.443   0.345   7.175  0.00  0.00    +0.003 A 
ATOM     34 CL   UNL     1      -3.952   0.711  10.855  0.00  0.00    -0.084 Cl
ENDBRANCH  27  28
ENDBRANCH  25  27
BRANCH  25  35
ATOM     35  C   UNL     1      -0.800  -3.281   6.464  0.00  0.00    -0.001 C 
BRANCH  35  36
ATOM     36  C   UNL     1       0.596  -3.462   7.000  0.00  0.00    +0.089 A 
ATOM     37  C   UNL     1       1.098  -2.876   8.102  0.00  0.00    +0.042 A 
ATOM     38  C   UNL     1       2.433  -3.322   8.232  0.00  0.00    +0.041 A 
ATOM     39  C   UNL     1       2.667  -4.155   7.201  0.00  0.00    +0.195 A 
ATOM     40  O   UNL     1       1.550  -4.240   6.462  0.00  0.00    -0.470 OA
ENDBRANCH  35  36
ENDBRANCH  25  35
ENDBRANCH   1  25
TORSDOF 8
