REMARK  Name = ZINC23245404
REMARK  8 active torsions:
REMARK  status: ('A' for Active; 'I' for Inactive)
REMARK    1  A    between atoms: C_1  and  C_2
REMARK    2  A    between atoms: C_5  and  N_19
REMARK    3  A    between atoms: C_7  and  S_8
REMARK    4  A    between atoms: S_8  and  N_11
REMARK    5  A    between atoms: N_11  and  C_12
REMARK    6  A    between atoms: N_19  and  S_20
REMARK    7  A    between atoms: S_20  and  C_23
REMARK    8  A    between atoms: C_26  and  C_28
REMARK                            x       y       z     vdW  Elec       q    Type
REMARK                         _______ _______ _______ _____ _____    ______ ____
ROOT
ATOM      1  C   UNL     1      -1.130  -0.747   0.142  0.00  0.00    +0.046 C 
ATOM      2  C   UNL     1       0.083   0.069   0.509  0.00  0.00    -0.024 A 
ATOM      3  C   UNL     1       1.281  -0.562   0.786  0.00  0.00    +0.007 A 
ATOM      4  C   UNL     1       2.394   0.183   1.123  0.00  0.00    +0.027 A 
ATOM      5  C   UNL     1       2.308   1.568   1.183  0.00  0.00    +0.076 A 
ATOM      6  C   UNL     1       1.103   2.199   0.903  0.00  0.00    +0.055 A 
ATOM      7  C   UNL     1      -0.006   1.448   0.567  0.00  0.00    +0.113 A 
ENDROOT
BRANCH   7   8
ATOM      8  S   UNL     1      -1.534   2.248   0.205  0.00  0.00    +0.073 S 
ATOM      9  O   UNL     1      -1.308   3.643   0.356  0.00  0.00    -0.150 OA
ATOM     10  O   UNL     1      -2.013   1.680  -1.006  0.00  0.00    -0.150 OA
BRANCH   8  11
ATOM     11  N   UNL     1      -2.607   1.812   1.389  0.00  0.00    -0.215 N 
ATOM     12  H   UNL     1      -3.534   1.283   1.123  0.00  0.00    +0.174 HD
BRANCH  11  13
ATOM     13  C   UNL     1      -2.335   2.116   2.725  0.00  0.00    +0.066 A 
ATOM     14  C   UNL     1      -1.688   3.301   3.052  0.00  0.00    +0.026 A 
ATOM     15  C   UNL     1      -1.425   3.601   4.374  0.00  0.00    +0.002 A 
ATOM     16  C   UNL     1      -1.795   2.719   5.372  0.00  0.00    +0.002 A 
ATOM     17  C   UNL     1      -2.435   1.535   5.051  0.00  0.00    +0.022 A 
ATOM     18  C   UNL     1      -2.706   1.231   3.731  0.00  0.00    +0.063 A 
ATOM     19 CL   UNL     1      -3.508  -0.255   3.328  0.00  0.00    -0.082 Cl
ENDBRANCH  11  13
ENDBRANCH   8  11
ENDBRANCH   7   8
BRANCH   5  20
ATOM     20  N   UNL     1       3.432   2.325   1.524  0.00  0.00    -0.097 NA
BRANCH  20  21
ATOM     21  S   UNL     1       4.900   1.981   0.840  0.00  0.00    +0.098 S 
ATOM     22  O   UNL     1       5.823   2.929   1.360  0.00  0.00    -0.148 OA
ATOM     23  O   UNL     1       5.092   0.579   0.972  0.00  0.00    -0.148 OA
BRANCH  21  24
ATOM     24  C   UNL     1       4.761   2.309  -0.886  0.00  0.00    +0.148 A 
ATOM     25  C   UNL     1       5.002   3.461  -1.558  0.00  0.00    +0.037 A 
ATOM     26  C   UNL     1       4.824   3.488  -2.928  0.00  0.00    +0.013 A 
ATOM     27  C   UNL     1       4.414   2.361  -3.560  0.00  0.00    -0.011 A 
ATOM     28  S   UNL     1       4.273   1.208  -2.204  0.00  0.00    -0.073 S 
ATOM     29  C   UNL     1       4.152   2.137  -5.027  0.00  0.00    +0.051 C 
ENDBRANCH  21  24
ENDBRANCH  20  21
ENDBRANCH   5  20
TORSDOF 6
