REMARK  Name = ZINC28012786
REMARK  13 active torsions:
REMARK  status: ('A' for Active; 'I' for Inactive)
REMARK    1  A    between atoms: C_1  and  C_2
REMARK    2  A    between atoms: C_2  and  N_3
REMARK    3  A    between atoms: N_3  and  C_4
REMARK    4  A    between atoms: C_4  and  C_5
REMARK    5  A    between atoms: N_7  and  C_8
REMARK    6  A    between atoms: C_8  and  C_9
REMARK    7  A    between atoms: C_8  and  C_10
REMARK    8  A    between atoms: C_8  and  C_11
REMARK    9  A    between atoms: C_12  and  C_14
REMARK   10  A    between atoms: N_19  and  C_21
REMARK   11  A    between atoms: C_26  and  O_27
REMARK   12  A    between atoms: O_27  and  C_28
REMARK   13  A    between atoms: C_28  and  C_29
REMARK                            x       y       z     vdW  Elec       q    Type
REMARK                         _______ _______ _______ _____ _____    ______ ____
ROOT
ATOM      1  C   UNL     1      -3.413   2.757   0.807  0.00  0.00    +0.102 C 
ATOM      2  C   UNL     1      -2.529   3.228  -0.372  0.00  0.00    +0.110 C 
ATOM      3  C   UNL     1      -1.395   2.228  -0.411  0.00  0.00    +0.221 C 
ATOM      4  O   UNL     1      -0.638   2.072  -1.346  0.00  0.00    -0.275 OA
ATOM      5  N   UNL     1      -1.351   1.534   0.740  0.00  0.00    -0.267 N 
ATOM      6  C   UNL     1      -2.396   1.978   1.670  0.00  0.00    +0.127 C 
ENDROOT
BRANCH   5   7
ATOM      7  C   UNL     1      -0.423   0.522   1.018  0.00  0.00    +0.078 A 
ATOM      8  C   UNL     1      -0.715  -0.796   0.699  0.00  0.00    +0.027 A 
ATOM      9  C   UNL     1       0.204  -1.792   0.969  0.00  0.00    +0.002 A 
ATOM     10  C   UNL     1       1.416  -1.478   1.556  0.00  0.00    +0.004 A 
ATOM     11  C   UNL     1       1.714  -0.167   1.877  0.00  0.00    +0.047 A 
ATOM     12  C   UNL     1       0.798   0.837   1.609  0.00  0.00    +0.142 A 
BRANCH  12  13
ATOM     13  O   UNL     1       1.090   2.127   1.924  0.00  0.00    -0.490 OA
BRANCH  13  14
ATOM     14  C   UNL     1       2.360   2.376   2.529  0.00  0.00    +0.226 C 
ATOM     15  C   UNL     1       2.508   3.873   2.808  0.00  0.00    +0.048 C 
ENDBRANCH  13  14
ENDBRANCH  12  13
ENDBRANCH   5   7
BRANCH   1  17
ATOM     16  N   UNL     1      -5.182   4.432   1.236  0.00  0.00    -0.293 N 
ATOM     17  C   UNL     1      -3.974   3.933   1.565  0.00  0.00    +0.221 C 
ATOM     18  O   UNL     1      -3.338   4.430   2.470  0.00  0.00    -0.275 OA
BRANCH  16  20
ATOM     19  C   UNL     1      -6.967   2.799   0.882  0.00  0.00    +0.024 C 
ATOM     20  C   UNL     1      -5.994   3.771   0.212  0.00  0.00    +0.105 C 
ENDBRANCH  16  20
BRANCH  16  21
ATOM     21  C   UNL     1      -5.683   5.636   1.903  0.00  0.00    +0.203 C 
BRANCH  21  22
ATOM     22  C   UNL     1      -5.249   6.856   1.131  0.00  0.00    +0.231 C 
ATOM     23  O   UNL     1      -4.586   6.731   0.123  0.00  0.00    -0.274 OA
ATOM     24  N   UNL     1      -5.597   8.085   1.561  0.00  0.00    -0.309 N 
ATOM     25  H   UNL     1      -6.198   8.198   2.475  0.00  0.00    +0.149 HD
BRANCH  24  26
ATOM     26  C   UNL     1      -5.176   9.270   0.810  0.00  0.00    +0.026 C 
ATOM     27  C   UNL     1      -5.740   9.202  -0.610  0.00  0.00    +0.031 C 
ATOM     28  C   UNL     1      -5.699  10.528   1.507  0.00  0.00    +0.031 C 
ATOM     29  C   UNL     1      -3.647   9.319   0.750  0.00  0.00    +0.031 C 
ENDBRANCH  24  26
ENDBRANCH  21  22
ENDBRANCH  16  21
ENDBRANCH   1  17
TORSDOF 8
