REMARK  Name = ZINC39674263
REMARK  8 active torsions:
REMARK  status: ('A' for Active; 'I' for Inactive)
REMARK    1  A    between atoms: C_1  and  C_2
REMARK    2  A    between atoms: C_4  and  C_9
REMARK    3  A    between atoms: C_5  and  C_8
REMARK    4  A    between atoms: C_9  and  C_11
REMARK    5  A    between atoms: C_9  and  N_12
REMARK    6  A    between atoms: C_13  and  C_15
REMARK    7  A    between atoms: C_26  and  C_28
REMARK    8  A    between atoms: C_31  and  C_35
REMARK                            x       y       z     vdW  Elec       q    Type
REMARK                         _______ _______ _______ _____ _____    ______ ____
ROOT
ATOM      1  C   UNL     1       0.685   3.465  -4.314  0.00  0.00    +0.100 C 
ATOM      2  C   UNL     1      -0.754   3.798  -3.859  0.00  0.00    +0.121 C 
ATOM      3  N   UNL     1      -1.318   4.610  -4.963  0.00  0.00    -0.296 N 
ATOM      4  C   UNL     1      -0.801   3.965  -6.195  0.00  0.00    +0.115 C 
ATOM      5  C   UNL     1       0.649   3.575  -5.848  0.00  0.00    -0.004 C 
ATOM      6  C   UNL     1       1.000   2.232  -6.482  0.00  0.00    -0.010 C 
ATOM      7  C   UNL     1       1.015   2.381  -8.006  0.00  0.00    -0.082 C 
ATOM      8  N   UNL     1       2.000   3.399  -8.390  0.00  0.00    +0.379 N 
ATOM      9  C   UNL     1       1.605   4.707  -7.853  0.00  0.00    -0.082 C 
ATOM     10  C   UNL     1       1.615   4.656  -6.323  0.00  0.00    -0.010 C 
ATOM     11  C   UNL     1      -2.118   5.690  -4.869  0.00  0.00    +0.249 C 
ATOM     12  O   UNL     1      -2.568   6.202  -5.876  0.00  0.00    -0.270 OA
ATOM     13  H   UNL     1       2.905   3.145  -8.023  0.00  0.00    -0.086 HD
ATOM     14  H   UNL     1       2.052   3.452  -9.397  0.00  0.00    -0.086 HD
ENDROOT
BRANCH  11  15
ATOM     15  C   UNL     1      -2.450   6.250  -3.544  0.00  0.00    +0.072 A 
ATOM     16  C   UNL     1      -2.589   5.406  -2.440  0.00  0.00    +0.016 A 
ATOM     17  C   UNL     1      -2.898   5.936  -1.205  0.00  0.00    +0.013 A 
ATOM     18  C   UNL     1      -3.072   7.301  -1.056  0.00  0.00    +0.058 A 
ATOM     19  C   UNL     1      -2.937   8.145  -2.143  0.00  0.00    +0.051 A 
ATOM     20  C   UNL     1      -2.621   7.629  -3.387  0.00  0.00    +0.136 A 
ATOM     21  F   UNL     1      -2.483   8.454  -4.448  0.00  0.00    -0.205 F 
BRANCH  18  22
ATOM     22  C   UNL     1      -3.410   7.871   0.297  0.00  0.00    +0.418 C 
ATOM     23  F   UNL     1      -2.229   8.182   0.981  0.00  0.00    -0.166 F 
ATOM     24  F   UNL     1      -4.175   9.031   0.137  0.00  0.00    -0.166 F 
ATOM     25  F   UNL     1      -4.139   6.929   1.031  0.00  0.00    -0.166 F 
ENDBRANCH  18  22
ENDBRANCH  11  15
BRANCH   1  27
ATOM     26  N   UNL     1       2.342   1.760  -3.633  0.00  0.00    -0.309 N 
ATOM     27  C   UNL     1       1.056   2.066  -3.897  0.00  0.00    +0.219 C 
ATOM     28  O   UNL     1       0.198   1.214  -3.798  0.00  0.00    -0.275 OA
ATOM     29  H   UNL     1       3.029   2.441  -3.712  0.00  0.00    +0.149 HD
BRANCH  26  30
ATOM     30  C   UNL     1       2.704   0.400  -3.227  0.00  0.00    +0.100 C 
ATOM     31  C   UNL     1       2.536   0.257  -1.713  0.00  0.00    +0.033 C 
BRANCH  30  34
ATOM     32  C   UNL     1       5.302   2.347  -3.704  0.00  0.00    +0.039 C 
ATOM     33  C   UNL     1       5.375   0.907  -3.192  0.00  0.00    +0.154 C 
ATOM     34  C   UNL     1       4.138   0.128  -3.601  0.00  0.00    -0.001 C 
ATOM     35  C   UNL     1       4.616  -0.853  -4.370  0.00  0.00    +0.063 C 
ATOM     36  N   UNL     1       5.961  -0.769  -4.475  0.00  0.00    -0.159 NA
ATOM     37  N   UNL     1       6.468   0.174  -3.854  0.00  0.00    -0.180 NA
ATOM     38  C   UNL     1       3.771  -1.912  -5.029  0.00  0.00    +0.067 C 
ENDBRANCH  30  34
ENDBRANCH  26  30
ENDBRANCH   1  27
TORSDOF 5
