REMARK  Name = ZINC14477103
REMARK  6 active torsions:
REMARK  status: ('A' for Active; 'I' for Inactive)
REMARK    1  A    between atoms: C_1  and  C_2
REMARK    2  A    between atoms: C_2  and  O_3
REMARK    3  A    between atoms: O_3  and  C_4
REMARK    4  A    between atoms: C_7  and  N_10
REMARK    5  A    between atoms: C_11  and  C_13
REMARK    6  A    between atoms: C_20  and  C_29
REMARK                            x       y       z     vdW  Elec       q    Type
REMARK                         _______ _______ _______ _____ _____    ______ ____
ROOT
ATOM      1  C   UNL     1       2.309   5.582   0.078  0.00  0.00    +0.058 A 
ATOM      2  C   UNL     1       1.075   6.231   0.075  0.00  0.00    +0.015 A 
ATOM      3  C   UNL     1       1.014   7.597   0.245  0.00  0.00    +0.001 A 
ATOM      4  C   UNL     1       2.181   8.326   0.400  0.00  0.00    +0.006 A 
ATOM      5  C   UNL     1       3.410   7.703   0.392  0.00  0.00    -0.019 A 
ATOM      6  C   UNL     1       3.502   6.316   0.243  0.00  0.00    +0.044 A 
ATOM      7  N   UNL     1       4.692   5.608   0.270  0.00  0.00    -0.336 N 
ATOM      8  C   UNL     1       5.933   6.394   0.340  0.00  0.00    +0.106 C 
ATOM      9  C   UNL     1       5.676   7.552   1.282  0.00  0.00    +0.029 C 
ATOM     10  C   UNL     1       4.670   8.467   0.515  0.00  0.00    +0.049 C 
ATOM     11  C   UNL     1       4.765   9.742   1.266  0.00  0.00    -0.023 C 
ATOM     12  C   UNL     1       5.974   9.852   1.780  0.00  0.00    -0.030 C 
ATOM     13  C   UNL     1       6.786   8.593   1.464  0.00  0.00    +0.033 C 
ATOM     14  H   UNL     1       4.673   4.896   0.985  0.00  0.00    +0.147 HD
ENDROOT
BRANCH   8  15
ATOM     15  C   UNL     1       7.054   5.539   0.872  0.00  0.00    -0.007 A 
ATOM     16  C   UNL     1       7.439   5.649   2.195  0.00  0.00    +0.007 A 
ATOM     17  C   UNL     1       8.463   4.860   2.686  0.00  0.00    +0.002 A 
ATOM     18  C   UNL     1       9.111   3.969   1.851  0.00  0.00    +0.021 A 
ATOM     19  C   UNL     1       8.730   3.862   0.525  0.00  0.00    +0.060 A 
ATOM     20  C   UNL     1       7.701   4.647   0.035  0.00  0.00    +0.064 A 
ATOM     21 CL   UNL     1       7.223   4.514  -1.628  0.00  0.00    -0.082 Cl
ATOM     22 CL   UNL     1       9.543   2.742  -0.523  0.00  0.00    -0.082 Cl
ENDBRANCH   8  15
BRANCH   1  24
ATOM     23  N   UNL     1       1.230   3.414  -0.258  0.00  0.00    -0.281 N 
ATOM     24  C   UNL     1       2.367   4.120  -0.099  0.00  0.00    +0.250 C 
ATOM     25  O   UNL     1       3.442   3.550  -0.102  0.00  0.00    -0.270 OA
ATOM     26  H   UNL     1       0.378   3.875  -0.322  0.00  0.00    +0.155 HD
BRANCH  23  30
ATOM     27  C   UNL     1       1.369  -0.747  -0.471  0.00  0.00    +0.121 A 
ATOM     28  C   UNL     1       0.300  -0.120   0.152  0.00  0.00    +0.047 A 
ATOM     29  C   UNL     1       0.253   1.258   0.223  0.00  0.00    +0.027 A 
ATOM     30  C   UNL     1       1.277   2.017  -0.329  0.00  0.00    +0.034 A 
ATOM     31  C   UNL     1       2.348   1.389  -0.951  0.00  0.00    +0.027 A 
ATOM     32  C   UNL     1       2.393   0.010  -1.022  0.00  0.00    +0.047 A 
BRANCH  27  33
ATOM     33  O   UNL     1       1.415  -2.104  -0.541  0.00  0.00    -0.492 OA
BRANCH  33  35
ATOM     34  C   UNL     1       2.421  -4.207  -1.176  0.00  0.00    +0.048 C 
ATOM     35  C   UNL     1       2.545  -2.683  -1.196  0.00  0.00    +0.225 C 
ENDBRANCH  33  35
ENDBRANCH  27  33
ENDBRANCH  23  30
ENDBRANCH   1  24
TORSDOF 5
