REMARK  Name = ZINC40910602
REMARK  7 active torsions:
REMARK  status: ('A' for Active; 'I' for Inactive)
REMARK    1  A    between atoms: C_4  and  C_7
REMARK    2  A    between atoms: C_10  and  O_14
REMARK    3  A    between atoms: O_14  and  C_15
REMARK    4  A    between atoms: C_15  and  C_16
REMARK    5  A    between atoms: N_18  and  N_19
REMARK    6  A    between atoms: C_20  and  C_21
REMARK    7  A    between atoms: C_24  and  O_27
REMARK                            x       y       z     vdW  Elec       q    Type
REMARK                         _______ _______ _______ _____ _____    ______ ____
ROOT
ATOM      1  C   UNL     1       8.493  -1.898  -0.088  0.00  0.00    +0.326 C 
ENDROOT
BRANCH   1   2
ATOM      2  C   UNL     1       9.703  -2.796  -0.106  0.00  0.00    +0.270 C 
ATOM      3  O   UNL     1       9.563  -4.001  -0.117  0.00  0.00    -0.270 OA
ATOM      4  N   UNL     1      10.940  -2.261  -0.111  0.00  0.00    -0.204 N 
ATOM      5  H   UNL     1      11.051  -1.297  -0.103  0.00  0.00    +0.177 HD
BRANCH   4   6
ATOM      6  N   UNL     1      12.065  -3.096  -0.128  0.00  0.00    -0.188 NA
ATOM      7  C   UNL     1      13.256  -2.581  -0.133  0.00  0.00    +0.138 C 
BRANCH   7   8
ATOM      8  C   UNL     1      14.439  -3.459  -0.150  0.00  0.00    -0.005 A 
ATOM      9  C   UNL     1      14.281  -4.848  -0.168  0.00  0.00    +0.013 A 
ATOM     10  C   UNL     1      15.390  -5.665  -0.185  0.00  0.00    +0.046 A 
ATOM     11  C   UNL     1      16.664  -5.112  -0.185  0.00  0.00    +0.117 A 
ATOM     12  C   UNL     1      16.826  -3.732  -0.167  0.00  0.00    +0.046 A 
ATOM     13  C   UNL     1      15.723  -2.907  -0.155  0.00  0.00    +0.013 A 
BRANCH  11  14
ATOM     14  O   UNL     1      17.754  -5.922  -0.202  0.00  0.00    -0.507 OA
ATOM     15  H   UNL     1      18.065  -6.144  -1.090  0.00  0.00    +0.292 HD
ENDBRANCH  11  14
ENDBRANCH   7   8
ENDBRANCH   4   6
ENDBRANCH   1   2
BRANCH   1  16
ATOM     16  O   UNL     1       7.308  -2.695  -0.086  0.00  0.00    -0.482 OA
BRANCH  16  20
ATOM     17  C   UNL     1       3.699  -0.689  -0.038  0.00  0.00    -0.017 A 
ATOM     18  C   UNL     1       4.895   0.026  -0.041  0.00  0.00    +0.012 A 
ATOM     19  C   UNL     1       6.099  -0.647  -0.057  0.00  0.00    +0.047 A 
ATOM     20  C   UNL     1       6.120  -2.035  -0.070  0.00  0.00    +0.135 A 
ATOM     21  C   UNL     1       4.929  -2.750  -0.068  0.00  0.00    +0.060 A 
ATOM     22  C   UNL     1       3.722  -2.082  -0.046  0.00  0.00    +0.027 A 
ATOM     23 BR   UNL     1       4.963  -4.641  -0.087  0.00  0.00    -0.046 Br
BRANCH  17  27
ATOM     24  C   UNL     1      -0.017   1.379   0.010  0.00  0.00    +0.000 A 
ATOM     25  C   UNL     1       1.169   2.092   0.002  0.00  0.00    +0.001 A 
ATOM     26  C   UNL     1       2.377   1.426  -0.013  0.00  0.00    +0.008 A 
ATOM     27  C   UNL     1       2.402   0.033  -0.021  0.00  0.00    -0.018 A 
ATOM     28  C   UNL     1       1.205  -0.680  -0.013  0.00  0.00    +0.008 A 
ATOM     29  C   UNL     1       0.002  -0.004   0.002  0.00  0.00    +0.001 A 
ENDBRANCH  17  27
ENDBRANCH  16  20
ENDBRANCH   1  16
TORSDOF 7
