REMARK  Name = ZINC17077930
REMARK  7 active torsions:
REMARK  status: ('A' for Active; 'I' for Inactive)
REMARK    1  A    between atoms: C_1  and  C_2
REMARK    2  A    between atoms: C_3  and  C_11
REMARK    3  A    between atoms: C_7  and  N_8
REMARK    4  A    between atoms: N_13  and  C_14
REMARK    5  A    between atoms: C_14  and  N_16
REMARK    6  A    between atoms: N_16  and  C_17
REMARK    7  A    between atoms: C_26  and  O_27
REMARK                            x       y       z     vdW  Elec       q    Type
REMARK                         _______ _______ _______ _____ _____    ______ ____
ROOT
ATOM      1  C   UNL     1      -1.091   0.437  -4.285  0.00  0.00    +0.141 C 
ATOM      2  S   UNL     1      -1.361   2.096  -3.957  0.00  0.00    -0.018 S 
ENDROOT
BRANCH   1   5
ATOM      3  C   UNL     1      -0.858   0.023  -2.000  0.00  0.00    +0.250 C 
ATOM      4  O   UNL     1      -1.049   1.200  -1.767  0.00  0.00    -0.270 OA
ATOM      5  N   UNL     1      -0.869  -0.423  -3.272  0.00  0.00    -0.264 N 
ATOM      6  H   UNL     1      -0.717  -1.363  -3.458  0.00  0.00    +0.157 HD
BRANCH   3   9
ATOM      7  C   UNL     1      -1.111   0.937   0.734  0.00  0.00    +0.047 C 
ATOM      8  C   UNL     1      -0.734  -0.491   0.435  0.00  0.00    -0.008 A 
ATOM      9  C   UNL     1      -0.615  -0.920  -0.889  0.00  0.00    +0.042 A 
ATOM     10  C   UNL     1      -0.264  -2.245  -1.157  0.00  0.00    +0.013 A 
ATOM     11  C   UNL     1      -0.038  -3.120  -0.115  0.00  0.00    +0.003 A 
ATOM     12  C   UNL     1      -0.159  -2.688   1.194  0.00  0.00    +0.033 A 
ATOM     13  C   UNL     1      -0.500  -1.375   1.467  0.00  0.00    +0.130 A 
BRANCH  13  14
ATOM     14  N   UNL     1      -0.620  -0.920   2.870  0.00  0.00    +0.057 N 
ATOM     15  O   UNL     1      -0.364  -1.679   3.776  0.00  0.00    -0.126 OA
ATOM     16  O   UNL     1      -0.975   0.210   3.111  0.00  0.00    -0.126 OA
ENDBRANCH  13  14
ENDBRANCH   3   9
ENDBRANCH   1   5
BRANCH   1  17
ATOM     17  N   UNL     1      -1.102  -0.008  -5.557  0.00  0.00    -0.296 N 
ATOM     18  H   UNL     1      -0.882  -0.933  -5.749  0.00  0.00    +0.154 HD
BRANCH  17  19
ATOM     19  C   UNL     1      -1.429   0.862  -6.599  0.00  0.00    +0.040 A 
ATOM     20  C   UNL     1      -0.855   2.113  -6.666  0.00  0.00    +0.024 A 
ATOM     21  C   UNL     1      -1.175   2.988  -7.700  0.00  0.00    +0.003 A 
ATOM     22  C   UNL     1      -2.061   2.633  -8.672  0.00  0.00    +0.012 A 
ATOM     23  C   UNL     1      -2.668   1.367  -8.639  0.00  0.00    +0.025 A 
ATOM     24  C   UNL     1      -2.347   0.466  -7.595  0.00  0.00    +0.007 A 
ATOM     25  C   UNL     1      -2.950  -0.802  -7.567  0.00  0.00    +0.010 A 
ATOM     26  C   UNL     1      -3.832  -1.153  -8.544  0.00  0.00    +0.004 A 
ATOM     27  C   UNL     1      -4.147  -0.273  -9.576  0.00  0.00    +0.046 A 
ATOM     28  C   UNL     1      -3.590   0.973  -9.631  0.00  0.00    +0.125 A 
BRANCH  28  29
ATOM     29  O   UNL     1      -3.908   1.820 -10.644  0.00  0.00    -0.506 OA
ATOM     30  H   UNL     1      -3.338   1.735 -11.421  0.00  0.00    +0.292 HD
ENDBRANCH  28  29
ENDBRANCH  17  19
ENDBRANCH   1  17
TORSDOF 6
