REMARK  Name = ZINC39195866
REMARK  13 active torsions:
REMARK  status: ('A' for Active; 'I' for Inactive)
REMARK    1  A    between atoms: C_1  and  C_2
REMARK    2  A    between atoms: C_2  and  C_3
REMARK    3  A    between atoms: C_3  and  C_4
REMARK    4  A    between atoms: C_16  and  C_18
REMARK    5  A    between atoms: C_18  and  C_19
REMARK    6  A    between atoms: C_18  and  C_20
REMARK    7  A    between atoms: C_18  and  C_21
REMARK    8  A    between atoms: C_21  and  C_22
REMARK    9  A    between atoms: C_22  and  C_23
REMARK   10  A    between atoms: C_23  and  O_24
REMARK   11  A    between atoms: O_24  and  C_25
REMARK   12  A    between atoms: C_27  and  C_32
REMARK   13  A    between atoms: C_30  and  C_31
REMARK                            x       y       z     vdW  Elec       q    Type
REMARK                         _______ _______ _______ _____ _____    ______ ____
ROOT
ATOM      1  C   UNL     1      -1.875  -1.727  -0.919  0.00  0.00    +0.064 C 
ATOM      2  C   UNL     1      -1.052  -2.507  -1.976  0.00  0.00    +0.134 C 
ATOM      3  N   UNL     1      -1.591  -3.878  -1.946  0.00  0.00    -0.298 N 
ATOM      4  C   UNL     1      -2.965  -3.832  -1.424  0.00  0.00    +0.122 C 
ATOM      5  C   UNL     1      -3.270  -2.367  -1.068  0.00  0.00    +0.117 C 
ATOM      6  C   UNL     1      -4.037  -2.286   0.215  0.00  0.00    +0.227 C 
ATOM      7  O   UNL     1      -5.248  -2.249   0.178  0.00  0.00    -0.275 OA
ATOM      8  N   UNL     1      -3.417  -2.255   1.406  0.00  0.00    -0.240 N 
ATOM      9  C   UNL     1      -2.078  -2.201   1.484  0.00  0.00    +0.306 C 
ATOM     10  O   UNL     1      -1.543  -2.325   2.568  0.00  0.00    -0.252 OA
ATOM     11  N   UNL     1      -1.327  -1.995   0.407  0.00  0.00    -0.291 N 
ATOM     12  C   UNL     1      -0.934  -4.989  -2.333  0.00  0.00    +0.221 C 
ATOM     13  O   UNL     1       0.162  -4.899  -2.844  0.00  0.00    -0.275 OA
ATOM     14  H   UNL     1      -3.944  -2.272   2.221  0.00  0.00    +0.159 HD
ATOM     15  H   UNL     1      -0.363  -2.038   0.511  0.00  0.00    +0.151 HD
ENDROOT
BRANCH  12  16
ATOM     16  C   UNL     1      -1.562  -6.345  -2.130  0.00  0.00    +0.042 C 
ATOM     17  C   UNL     1      -1.685  -6.631  -0.632  0.00  0.00    +0.020 C 
ATOM     18  C   UNL     1      -2.952  -6.364  -2.769  0.00  0.00    +0.020 C 
BRANCH  16  19
ATOM     19  C   UNL     1      -0.685  -7.415  -2.783  0.00  0.00    +0.019 C 
BRANCH  19  20
ATOM     20  C   UNL     1      -1.323  -8.791  -2.578  0.00  0.00    +0.042 C 
BRANCH  20  21
ATOM     21  C   UNL     1      -0.446  -9.862  -3.231  0.00  0.00    +0.229 C 
BRANCH  21  22
ATOM     22  O   UNL     1      -1.041 -11.146  -3.039  0.00  0.00    -0.492 OA
BRANCH  22  23
ATOM     23  C   UNL     1      -0.384 -12.215  -3.562  0.00  0.00    +0.124 A 
ATOM     24  C   UNL     1       0.812 -12.031  -4.241  0.00  0.00    +0.049 A 
ATOM     25  C   UNL     1       1.478 -13.119  -4.771  0.00  0.00    -0.047 A 
ATOM     26  C   UNL     1       0.954 -14.390  -4.626  0.00  0.00    +0.004 A 
ATOM     27  C   UNL     1      -0.238 -14.576  -3.950  0.00  0.00    +0.007 A 
ATOM     28  C   UNL     1      -0.905 -13.492  -3.413  0.00  0.00    -0.009 A 
ATOM     29  C   UNL     1      -2.201 -13.696  -2.671  0.00  0.00    +0.047 C 
ATOM     30  C   UNL     1       2.776 -12.920  -5.509  0.00  0.00    +0.044 C 
ENDBRANCH  22  23
ENDBRANCH  21  22
ENDBRANCH  20  21
ENDBRANCH  19  20
ENDBRANCH  16  19
ENDBRANCH  12  16
BRANCH   1  31
ATOM     31  C   UNL     1      -1.906  -0.227  -1.220  0.00  0.00    +0.028 C 
BRANCH  31  33
ATOM     32  C   UNL     1      -0.532   1.855  -1.358  0.00  0.00    +0.004 C 
ATOM     33  C   UNL     1      -0.501   0.355  -1.057  0.00  0.00    -0.001 C 
ENDBRANCH  31  33
ENDBRANCH   1  31
TORSDOF 8
