REMARK  Name = ZINC63588457
REMARK  10 active torsions:
REMARK  status: ('A' for Active; 'I' for Inactive)
REMARK    1  A    between atoms: C_1  and  N_2
REMARK    2  A    between atoms: C_6  and  C_7
REMARK    3  A    between atoms: C_18  and  C_20
REMARK    4  A    between atoms: C_20  and  C_21
REMARK    5  A    between atoms: C_21  and  C_22
REMARK    6  A    between atoms: N_24  and  C_25
REMARK    7  A    between atoms: C_25  and  C_26
REMARK    8  A    between atoms: C_26  and  C_27
REMARK    9  A    between atoms: C_30  and  O_36
REMARK   10  A    between atoms: O_36  and  C_37
REMARK                            x       y       z     vdW  Elec       q    Type
REMARK                         _______ _______ _______ _____ _____    ______ ____
ROOT
ATOM      1  C   UNL     1       4.542   2.635   3.946  0.00  0.00    +0.105 C 
ENDROOT
BRANCH   1  11
ATOM      2  C   UNL     1      -0.189  -0.311   2.522  0.00  0.00    +0.119 C 
ATOM      3  C   UNL     1       1.221  -0.017   3.105  0.00  0.00    +0.066 C 
ATOM      4  C   UNL     1       0.956   1.258   3.925  0.00  0.00    +0.163 C 
ATOM      5  N   UNL     1       2.127   2.119   4.086  0.00  0.00    -0.284 N 
ATOM      6  C   UNL     1       1.863   3.469   4.626  0.00  0.00    +0.110 C 
ATOM      7  C   UNL     1       0.743   4.145   3.834  0.00  0.00    +0.036 C 
ATOM      8  C   UNL     1      -0.452   3.192   3.658  0.00  0.00    +0.106 C 
ATOM      9  N   UNL     1       0.014   1.977   3.024  0.00  0.00    -0.222 NA
ATOM     10  N   UNL     1      -0.924   0.981   2.567  0.00  0.00    -0.243 NA
ATOM     11  C   UNL     1       3.368   1.708   3.762  0.00  0.00    +0.217 C 
ATOM     12  O   UNL     1       3.541   0.591   3.321  0.00  0.00    -0.276 OA
ATOM     13  H   UNL     1      -1.720   0.923   3.183  0.00  0.00    +0.142 HD
BRANCH   2  19
ATOM     14  C   UNL     1      -0.107  -3.264   1.579  0.00  0.00    +0.148 C 
ATOM     15  N   UNL     1      -0.037  -2.097   0.697  0.00  0.00    -0.352 N 
ATOM     16  C   UNL     1       0.067  -2.133  -0.662  0.00  0.00    +0.085 A 
ATOM     17  C   UNL     1       0.104  -0.864  -1.116  0.00  0.00    +0.019 A 
ATOM     18  C   UNL     1       0.019  -0.013   0.004  0.00  0.00    +0.024 A 
ATOM     19  C   UNL     1      -0.072  -0.794   1.099  0.00  0.00    +0.037 A 
ENDBRANCH   2  19
ENDBRANCH   1  11
BRANCH   1  20
ATOM     20  C   UNL     1       5.825   1.928   3.506  0.00  0.00    +0.105 C 
BRANCH  20  21
ATOM     21  C   UNL     1       6.998   2.855   3.691  0.00  0.00    +0.213 C 
ATOM     22  O   UNL     1       6.825   3.972   4.131  0.00  0.00    -0.276 OA
ATOM     23  N   UNL     1       8.240   2.444   3.367  0.00  0.00    -0.315 N 
ATOM     24  H   UNL     1       8.379   1.550   3.015  0.00  0.00    +0.149 HD
BRANCH  23  25
ATOM     25  C   UNL     1       9.381   3.345   3.547  0.00  0.00    +0.108 C 
BRANCH  25  26
ATOM     26  C   UNL     1      10.664   2.638   3.107  0.00  0.00    +0.052 C 
BRANCH  26  27
ATOM     27  C   UNL     1      11.838   3.565   3.291  0.00  0.00    -0.040 C 
ATOM     28  C   UNL     1      12.669   3.622   4.356  0.00  0.00    +0.002 A 
ATOM     29  C   UNL     1      12.729   2.868   5.613  0.00  0.00    +0.055 A 
ATOM     30  C   UNL     1      13.698   3.153   6.516  0.00  0.00    +0.121 A 
ATOM     31  C   UNL     1      14.660   4.154   6.294  0.00  0.00    +0.047 A 
ATOM     32  C   UNL     1      14.687   4.900   5.169  0.00  0.00    +0.029 A 
ATOM     33  C   UNL     1      13.683   4.676   4.123  0.00  0.00    +0.043 A 
ATOM     34  N   UNL     1      13.487   5.247   2.961  0.00  0.00    -0.380 N 
ATOM     35  C   UNL     1      12.327   4.616   2.320  0.00  0.00    +0.144 C 
ATOM     36  H   UNL     1      14.020   5.965   2.586  0.00  0.00    +0.160 HD
BRANCH  30  37
ATOM     37  O   UNL     1      13.742   2.447   7.677  0.00  0.00    -0.495 OA
ATOM     38  C   UNL     1      14.780   2.780   8.600  0.00  0.00    +0.277 C 
ENDBRANCH  30  37
ENDBRANCH  26  27
ENDBRANCH  25  26
ENDBRANCH  23  25
ENDBRANCH  20  21
ENDBRANCH   1  20
TORSDOF 8
