REMARK  Name = ZINC05035738
REMARK  9 active torsions:
REMARK  status: ('A' for Active; 'I' for Inactive)
REMARK    1  A    between atoms: C_1  and  C_2
REMARK    2  A    between atoms: C_7  and  N_12
REMARK    3  A    between atoms: C_9  and  C_11
REMARK    4  A    between atoms: C_13  and  C_15
REMARK    5  A    between atoms: C_15  and  C_16
REMARK    6  A    between atoms: C_16  and  N_17
REMARK    7  A    between atoms: N_17  and  S_18
REMARK    8  A    between atoms: S_18  and  C_21
REMARK    9  A    between atoms: N_30  and  C_31
REMARK                            x       y       z     vdW  Elec       q    Type
REMARK                         _______ _______ _______ _____ _____    ______ ____
ROOT
ATOM      1  N   UNL     1       3.082   4.321  -1.585  0.00  0.00    -0.189 NA
ATOM      2  H   UNL     1       3.881   3.912  -1.953  0.00  0.00    +0.148 HD
ENDROOT
BRANCH   1   3
ATOM      3  S   UNL     1       2.675   4.063  -0.001  0.00  0.00    +0.059 S 
ATOM      4  O   UNL     1       2.397   5.339   0.559  0.00  0.00    -0.153 OA
ATOM      5  O   UNL     1       3.662   3.194   0.536  0.00  0.00    -0.153 OA
BRANCH   3   6
ATOM      6  C   UNL     1       1.157   3.168   0.008  0.00  0.00    +0.109 A 
ATOM      7  C   UNL     1       1.173   1.784   0.000  0.00  0.00    +0.031 A 
ATOM      8  C   UNL     1      -0.013   1.076   0.008  0.00  0.00    +0.031 A 
ATOM      9  C   UNL     1      -1.221   1.754   0.017  0.00  0.00    +0.090 A 
ATOM     10  C   UNL     1      -1.239   3.149   0.029  0.00  0.00    +0.159 A 
ATOM     11  C   UNL     1      -0.044   3.851   0.022  0.00  0.00    +0.077 A 
ATOM     12  O   UNL     1      -2.538   3.535   0.044  0.00  0.00    -0.407 OA
ATOM     13  C   UNL     1      -3.322   2.445   0.046  0.00  0.00    +0.421 A 
ATOM     14  O   UNL     1      -4.538   2.455   0.058  0.00  0.00    -0.223 OA
ATOM     15  N   UNL     1      -2.553   1.339   0.033  0.00  0.00    -0.277 N 
ATOM     16  C   UNL     1      -3.028  -0.047   0.031  0.00  0.00    +0.156 C 
ENDBRANCH   3   6
ENDBRANCH   1   3
BRANCH   1  17
ATOM     17  C   UNL     1       2.235   5.165  -2.432  0.00  0.00    +0.115 C 
BRANCH  17  18
ATOM     18  C   UNL     1       3.000   5.545  -3.701  0.00  0.00    +0.112 C 
BRANCH  18  20
ATOM     19  N   UNL     1       2.598   6.872  -5.749  0.00  0.00    -0.312 N 
ATOM     20  C   UNL     1       2.130   6.414  -4.571  0.00  0.00    +0.215 C 
ATOM     21  O   UNL     1       1.008   6.702  -4.212  0.00  0.00    -0.276 OA
ATOM     22  H   UNL     1       3.495   6.642  -6.037  0.00  0.00    +0.149 HD
BRANCH  19  28
ATOM     23  C   UNL     1       2.632  10.336  -9.277  0.00  0.00    +0.008 C 
ATOM     24  C   UNL     1       1.750   9.468  -8.378  0.00  0.00    -0.009 C 
ATOM     25  C   UNL     1       0.852   8.584  -9.245  0.00  0.00    +0.003 C 
ATOM     26  C   UNL     1      -0.031   7.715  -8.347  0.00  0.00    +0.002 C 
ATOM     27  C   UNL     1       0.853   6.833  -7.463  0.00  0.00    +0.022 C 
ATOM     28  C   UNL     1       1.751   7.717  -6.595  0.00  0.00    +0.076 C 
ATOM     29  C   UNL     1       2.634   8.585  -7.494  0.00  0.00    +0.009 C 
ATOM     30  C   UNL     1       3.532   9.469  -6.627  0.00  0.00    +0.009 C 
ENDBRANCH  19  28
ENDBRANCH  18  20
ENDBRANCH  17  18
ENDBRANCH   1  17
TORSDOF 6
