REMARK  Name = ZINC21141942
REMARK  7 active torsions:
REMARK  status: ('A' for Active; 'I' for Inactive)
REMARK    1  A    between atoms: N_7  and  C_11
REMARK    2  A    between atoms: C_11  and  C_12
REMARK    3  A    between atoms: C_12  and  C_13
REMARK    4  A    between atoms: C_13  and  C_14
REMARK    5  A    between atoms: N_16  and  C_17
REMARK    6  A    between atoms: C_21  and  N_23
REMARK    7  A    between atoms: C_24  and  C_26
REMARK                            x       y       z     vdW  Elec       q    Type
REMARK                         _______ _______ _______ _____ _____    ______ ____
ROOT
ATOM      1  C   UNL     1       1.397   1.093   0.708  0.00  0.00    +0.217 C 
ATOM      2  O   UNL     1       1.468   2.304   0.735  0.00  0.00    -0.275 OA
ATOM      3  N   UNL     1       0.209   0.492   0.500  0.00  0.00    -0.285 N 
ATOM      4  H   UNL     1       0.155  -0.602   0.404  0.00  0.00    +0.155 HD
ENDROOT
BRANCH   3   5
ATOM      5  C   UNL     1      -0.957   1.260   0.405  0.00  0.00    +0.035 A 
ATOM      6  C   UNL     1      -0.916   2.516  -0.188  0.00  0.00    +0.023 A 
ATOM      7  C   UNL     1      -2.066   3.276  -0.282  0.00  0.00    +0.004 A 
ATOM      8  C   UNL     1      -3.261   2.789   0.213  0.00  0.00    +0.023 A 
ATOM      9  C   UNL     1      -3.309   1.535   0.807  0.00  0.00    +0.035 A 
ATOM     10  C   UNL     1      -2.156   0.767   0.897  0.00  0.00    +0.046 A 
BRANCH   9  11
ATOM     11  N   UNL     1      -4.518   1.043   1.308  0.00  0.00    -0.281 N 
ATOM     12  C   UNL     1      -4.527   0.281   2.420  0.00  0.00    +0.255 C 
ATOM     13  O   UNL     1      -3.477  -0.050   2.939  0.00  0.00    -0.269 OA
ATOM     14  H   UNL     1      -5.462   1.279   0.795  0.00  0.00    +0.155 HD
BRANCH  12  15
ATOM     15  C   UNL     1      -5.801  -0.150   3.003  0.00  0.00    +0.074 A 
ATOM     16  C   UNL     1      -6.028  -0.927   4.128  0.00  0.00    +0.021 A 
ATOM     17  C   UNL     1      -7.336  -1.183   4.456  0.00  0.00    +0.008 A 
ATOM     18  C   UNL     1      -8.327  -0.674   3.679  0.00  0.00    +0.046 A 
ATOM     19  S   UNL     1      -7.463   0.196   2.454  0.00  0.00    -0.092 S 
ENDBRANCH  12  15
ENDBRANCH   9  11
ENDBRANCH   3   5
BRANCH   1  20
ATOM     20  C   UNL     1       2.637   0.261   0.908  0.00  0.00    +0.098 C 
BRANCH  20  21
ATOM     21  C   UNL     1       3.840   1.182   1.123  0.00  0.00    +0.031 C 
BRANCH  21  22
ATOM     22  C   UNL     1       5.099   0.338   1.326  0.00  0.00    +0.129 C 
BRANCH  22  29
ATOM     23  C   UNL     1       6.967   2.161   5.093  0.00  0.00    +0.002 A 
ATOM     24  C   UNL     1       8.069   2.951   4.819  0.00  0.00    +0.004 A 
ATOM     25  C   UNL     1       8.498   3.122   3.517  0.00  0.00    +0.048 A 
ATOM     26  C   UNL     1       7.822   2.499   2.479  0.00  0.00    +0.157 A 
ATOM     27  C   UNL     1       6.711   1.703   2.757  0.00  0.00    +0.090 A 
ATOM     28  C   UNL     1       6.287   1.537   4.066  0.00  0.00    +0.030 A 
ATOM     29  N   UNL     1       6.251   1.220   1.532  0.00  0.00    -0.274 N 
ATOM     30  C   UNL     1       7.062   1.708   0.573  0.00  0.00    +0.421 A 
ATOM     31  O   UNL     1       6.956   1.485  -0.617  0.00  0.00    -0.223 OA
ATOM     32  O   UNL     1       8.005   2.481   1.136  0.00  0.00    -0.407 OA
ENDBRANCH  22  29
ENDBRANCH  21  22
ENDBRANCH  20  21
ENDBRANCH   1  20
TORSDOF 7
