REMARK  Name = ZINC20883747
REMARK  6 active torsions:
REMARK  status: ('A' for Active; 'I' for Inactive)
REMARK    1  A    between atoms: C_1  and  C_2
REMARK    2  A    between atoms: C_2  and  C_3
REMARK    3  A    between atoms: C_3  and  O_4
REMARK    4  A    between atoms: O_4  and  C_5
REMARK    5  A    between atoms: C_8  and  C_11
REMARK    6  A    between atoms: C_16  and  C_26
REMARK                            x       y       z     vdW  Elec       q    Type
REMARK                         _______ _______ _______ _____ _____    ______ ____
ROOT
ATOM      1  C   UNL     1      -3.240   3.322   2.205  0.00  0.00    +0.032 C 
ATOM      2  C   UNL     1      -2.037   2.930   3.059  0.00  0.00    +0.059 C 
ATOM      3  C   UNL     1      -0.867   2.554   2.164  0.00  0.00    +0.017 C 
ATOM      4  C   UNL     1      -1.083   1.962   0.979  0.00  0.00    +0.037 C 
ATOM      5  C   UNL     1      -0.018   1.503   0.010  0.00  0.00    +0.140 C 
ATOM      6  N   UNL     1       1.314   1.978   0.316  0.00  0.00    -0.331 N 
ATOM      7  C   UNL     1       1.968   1.588   1.483  0.00  0.00    +0.049 A 
ATOM      8  C   UNL     1       3.119   0.817   1.445  0.00  0.00    +0.025 A 
ATOM      9  C   UNL     1       3.709   0.415   2.631  0.00  0.00    +0.002 A 
ATOM     10  C   UNL     1       3.155   0.776   3.845  0.00  0.00    +0.002 A 
ATOM     11  C   UNL     1       2.015   1.560   3.888  0.00  0.00    +0.025 A 
ATOM     12  C   UNL     1       1.436   1.980   2.703  0.00  0.00    +0.052 A 
ATOM     13  N   UNL     1       0.355   2.853   2.674  0.00  0.00    -0.316 N 
ATOM     14  C   UNL     1      -2.403   1.720   0.532  0.00  0.00    +0.163 C 
ATOM     15  O   UNL     1      -2.568   1.171  -0.539  0.00  0.00    -0.292 OA
ATOM     16  C   UNL     1      -3.607   2.116   1.333  0.00  0.00    +0.088 C 
ATOM     17  H   UNL     1       1.828   2.660  -0.378  0.00  0.00    +0.147 HD
ATOM     18  H   UNL     1       0.543   3.848   3.105  0.00  0.00    +0.152 HD
ENDROOT
BRANCH   5  19
ATOM     19  C   UNL     1       0.002  -0.004   0.002  0.00  0.00    +0.031 A 
ATOM     20  C   UNL     1      -0.746  -0.712   0.927  0.00  0.00    +0.130 A 
ATOM     21  C   UNL     1      -0.731  -2.096   0.915  0.00  0.00    +0.039 A 
ATOM     22  C   UNL     1       0.039  -2.771  -0.014  0.00  0.00    +0.004 A 
ATOM     23  C   UNL     1       0.791  -2.064  -0.934  0.00  0.00    +0.020 A 
ATOM     24  C   UNL     1       0.772  -0.680  -0.926  0.00  0.00    +0.049 A 
ATOM     25 CL   UNL     1       1.716   0.206  -2.082  0.00  0.00    -0.083 Cl
ATOM     26  F   UNL     1      -1.494  -0.052   1.838  0.00  0.00    -0.205 F 
ENDBRANCH   5  19
BRANCH   1  30
ATOM     27  C   UNL     1      -6.538   4.347   4.723  0.00  0.00    +0.121 A 
ATOM     28  C   UNL     1      -6.044   5.271   3.814  0.00  0.00    +0.046 A 
ATOM     29  C   UNL     1      -4.978   4.938   3.001  0.00  0.00    +0.007 A 
ATOM     30  C   UNL     1      -4.403   3.684   3.093  0.00  0.00    -0.043 A 
ATOM     31  C   UNL     1      -4.897   2.758   3.994  0.00  0.00    +0.007 A 
ATOM     32  C   UNL     1      -5.959   3.089   4.813  0.00  0.00    +0.046 A 
BRANCH  27  33
ATOM     33  O   UNL     1      -7.586   4.673   5.524  0.00  0.00    -0.492 OA
BRANCH  33  34
ATOM     34  C   UNL     1      -8.042   3.671   6.436  0.00  0.00    +0.229 C 
BRANCH  34  36
ATOM     35  C   UNL     1      -9.707   3.144   8.223  0.00  0.00    +0.007 C 
ATOM     36  C   UNL     1      -9.219   4.217   7.246  0.00  0.00    +0.038 C 
ENDBRANCH  34  36
ENDBRANCH  33  34
ENDBRANCH  27  33
ENDBRANCH   1  30
TORSDOF 5
