REMARK  Name = ZINC06446186
REMARK  9 active torsions:
REMARK  status: ('A' for Active; 'I' for Inactive)
REMARK    1  A    between atoms: C_4  and  C_7
REMARK    2  A    between atoms: C_7  and  N_8
REMARK    3  A    between atoms: N_8  and  C_9
REMARK    4  A    between atoms: C_9  and  C_11
REMARK    5  A    between atoms: C_9  and  C_17
REMARK    6  A    between atoms: N_19  and  C_20
REMARK    7  A    between atoms: C_26  and  C_28
REMARK    8  A    between atoms: C_31  and  C_33
REMARK    9  A    between atoms: C_33  and  N_76
REMARK                            x       y       z     vdW  Elec       q    Type
REMARK                         _______ _______ _______ _____ _____    ______ ____
ROOT
ATOM      1  N   UNL     1       4.737  -1.051  -1.629  0.00  0.00    -0.275 N 
ATOM      2  C   UNL     1       4.721  -2.090  -2.488  0.00  0.00    +0.283 C 
ATOM      3  O   UNL     1       4.948  -1.906  -3.670  0.00  0.00    -0.267 OA
ENDROOT
BRANCH   2   4
ATOM      4  C   UNL     1       4.430  -3.441  -1.999  0.00  0.00    +0.190 A 
ATOM      5  C   UNL     1       4.491  -4.591  -2.733  0.00  0.00    +0.055 A 
ATOM      6  C   UNL     1       4.139  -5.640  -1.870  0.00  0.00    +0.043 A 
ATOM      7  C   UNL     1       3.874  -5.091  -0.664  0.00  0.00    +0.090 A 
ATOM      8  O   UNL     1       4.050  -3.766  -0.746  0.00  0.00    -0.457 OA
BRANCH   7   9
ATOM      9  C   UNL     1       3.448  -5.845   0.569  0.00  0.00    -0.003 C 
BRANCH   9  15
ATOM     10  C   UNL     1       5.443  -7.218   0.583  0.00  0.00    -0.078 C 
ATOM     11  C   UNL     1       6.741  -7.500   1.342  0.00  0.00    -0.019 C 
ATOM     12  C   UNL     1       6.406  -8.051   2.731  0.00  0.00    -0.004 C 
ATOM     13  C   UNL     1       5.527  -7.040   3.473  0.00  0.00    -0.019 C 
ATOM     14  C   UNL     1       4.263  -6.771   2.652  0.00  0.00    -0.078 C 
ATOM     15  N   UNL     1       4.654  -6.220   1.337  0.00  0.00    +0.384 N 
ATOM     16  H   UNL     1       5.229  -5.383   1.484  0.00  0.00    -0.081 HD
ENDBRANCH   9  15
ENDBRANCH   7   9
ENDBRANCH   2   4
BRANCH   1  17
ATOM     17  C   UNL     1       4.652  -1.292  -0.187  0.00  0.00    +0.144 C 
BRANCH  17  21
ATOM     18  C   UNL     1       8.363  -2.877   1.214  0.00  0.00    +0.000 A 
ATOM     19  C   UNL     1       7.170  -3.439   1.631  0.00  0.00    +0.000 A 
ATOM     20  C   UNL     1       5.969  -2.926   1.177  0.00  0.00    +0.005 A 
ATOM     21  C   UNL     1       5.961  -1.851   0.307  0.00  0.00    -0.030 A 
ATOM     22  C   UNL     1       7.154  -1.290  -0.108  0.00  0.00    +0.005 A 
ATOM     23  C   UNL     1       8.354  -1.803   0.345  0.00  0.00    +0.000 A 
ENDBRANCH  17  21
ENDBRANCH   1  17
BRANCH   1  24
ATOM     24  C   UNL     1       4.840   0.319  -2.139  0.00  0.00    +0.193 C 
BRANCH  24  25
ATOM     25  C   UNL     1       3.471   0.814  -2.528  0.00  0.00    -0.015 A 
ATOM     26  C   UNL     1       2.384   0.629  -1.688  0.00  0.00    +0.025 A 
ATOM     27  C   UNL     1       1.144   1.100  -2.077  0.00  0.00    +0.111 A 
ATOM     28  N   UNL     1       0.988   1.711  -3.235  0.00  0.00    -0.263 NA
ATOM     29  C   UNL     1       1.998   1.901  -4.061  0.00  0.00    +0.111 A 
ATOM     30  C   UNL     1       3.268   1.461  -3.738  0.00  0.00    +0.025 A 
ENDBRANCH  24  25
BRANCH  24  31
ATOM     31  C   UNL     1       5.411   1.212  -1.067  0.00  0.00    +0.238 C 
ATOM     32  O   UNL     1       5.364   0.869   0.096  0.00  0.00    -0.273 OA
ATOM     33  N   UNL     1       5.973   2.390  -1.400  0.00  0.00    -0.311 N 
ATOM     34  H   UNL     1       6.010   2.664  -2.330  0.00  0.00    +0.149 HD
BRANCH  33  35
ATOM     35  C   UNL     1       6.528   3.258  -0.359  0.00  0.00    +0.073 C 
ATOM     36  C   UNL     1       5.413   4.124   0.231  0.00  0.00    +0.022 C 
ATOM     37  C   UNL     1       5.993   5.030   1.319  0.00  0.00    +0.002 C 
ATOM     38  C   UNL     1       7.071   5.930   0.712  0.00  0.00    +0.000 C 
ATOM     39  C   UNL     1       8.186   5.064   0.122  0.00  0.00    +0.002 C 
ATOM     40  C   UNL     1       7.606   4.158  -0.966  0.00  0.00    +0.022 C 
ENDBRANCH  33  35
ENDBRANCH  24  31
ENDBRANCH   1  24
TORSDOF 9
