REMARK  Name = ZINC39667122
REMARK  9 active torsions:
REMARK  status: ('A' for Active; 'I' for Inactive)
REMARK    1  A    between atoms: C_1  and  C_2
REMARK    2  A    between atoms: C_5  and  C_9
REMARK    3  A    between atoms: C_6  and  C_8
REMARK    4  A    between atoms: C_9  and  C_10
REMARK    5  A    between atoms: C_10  and  N_11
REMARK    6  A    between atoms: C_12  and  C_14
REMARK    7  A    between atoms: C_25  and  C_27
REMARK    8  A    between atoms: C_31  and  O_32
REMARK    9  A    between atoms: O_32  and  C_33
REMARK                            x       y       z     vdW  Elec       q    Type
REMARK                         _______ _______ _______ _____ _____    ______ ____
ROOT
ATOM      1  C   UNL     1      -2.486  -8.454   0.181  0.00  0.00    +0.100 C 
ATOM      2  C   UNL     1      -2.065  -8.985  -1.207  0.00  0.00    +0.121 C 
ATOM      3  N   UNL     1      -2.894 -10.196  -1.411  0.00  0.00    -0.296 N 
ATOM      4  C   UNL     1      -4.221  -9.832  -0.860  0.00  0.00    +0.115 C 
ATOM      5  C   UNL     1      -3.902  -9.011   0.405  0.00  0.00    -0.004 C 
ATOM      6  C   UNL     1      -4.901  -7.868   0.558  0.00  0.00    -0.010 C 
ATOM      7  C   UNL     1      -6.291  -8.446   0.837  0.00  0.00    -0.082 C 
ATOM      8  N   UNL     1      -6.250  -9.254   2.062  0.00  0.00    +0.379 N 
ATOM      9  C   UNL     1      -5.357 -10.404   1.874  0.00  0.00    -0.082 C 
ATOM     10  C   UNL     1      -3.928  -9.909   1.638  0.00  0.00    -0.010 C 
ATOM     11  C   UNL     1      -2.525 -11.365  -1.972  0.00  0.00    +0.251 C 
ATOM     12  O   UNL     1      -1.365 -11.548  -2.290  0.00  0.00    -0.270 OA
ATOM     13  H   UNL     1      -5.911  -8.688   2.826  0.00  0.00    -0.086 HD
ATOM     14  H   UNL     1      -7.179  -9.583   2.277  0.00  0.00    -0.086 HD
ENDROOT
BRANCH  11  15
ATOM     15  C   UNL     1      -3.524 -12.420  -2.198  0.00  0.00    +0.087 A 
ATOM     16  C   UNL     1      -4.825 -12.121  -2.538  0.00  0.00    +0.063 A 
ATOM     17  S   UNL     1      -5.569 -13.617  -2.687  0.00  0.00    -0.081 S 
ATOM     18  C   UNL     1      -4.199 -14.687  -2.308  0.00  0.00    +0.120 A 
ATOM     19  C   UNL     1      -3.187 -13.820  -2.079  0.00  0.00    +0.158 A 
ATOM     20 CL   UNL     1      -4.168 -16.422  -2.252  0.00  0.00    -0.072 Cl
BRANCH  19  21
ATOM     21  O   UNL     1      -1.932 -14.239  -1.755  0.00  0.00    -0.492 OA
ATOM     22  C   UNL     1      -1.645 -14.409  -0.365  0.00  0.00    +0.277 C 
ENDBRANCH  19  21
ENDBRANCH  11  15
BRANCH   1  24
ATOM     23  N   UNL     1      -2.435  -6.272   1.345  0.00  0.00    -0.315 N 
ATOM     24  C   UNL     1      -2.509  -6.947   0.181  0.00  0.00    +0.218 C 
ATOM     25  O   UNL     1      -2.594  -6.341  -0.867  0.00  0.00    -0.275 OA
ATOM     26  H   UNL     1      -2.367  -6.756   2.183  0.00  0.00    +0.149 HD
BRANCH  23  27
ATOM     27  C   UNL     1      -2.457  -4.807   1.345  0.00  0.00    +0.109 C 
BRANCH  27  28
ATOM     28  C   UNL     1      -2.361  -4.295   2.784  0.00  0.00    +0.054 C 
BRANCH  28  33
ATOM     29  C   UNL     1      -2.449   1.483   2.780  0.00  0.00    +0.044 C 
ATOM     30  C   UNL     1      -2.426  -0.024   2.781  0.00  0.00    -0.050 A 
ATOM     31  C   UNL     1      -1.219  -0.697   2.801  0.00  0.00    +0.003 A 
ATOM     32  C   UNL     1      -1.198  -2.079   2.802  0.00  0.00    +0.004 A 
ATOM     33  C   UNL     1      -2.384  -2.788   2.784  0.00  0.00    -0.043 A 
ATOM     34  C   UNL     1      -3.591  -2.116   2.765  0.00  0.00    -0.047 A 
ATOM     35  C   UNL     1      -3.613  -0.733   2.769  0.00  0.00    +0.007 A 
ATOM     36  C   UNL     1      -4.885  -2.889   2.745  0.00  0.00    +0.044 C 
ENDBRANCH  28  33
ENDBRANCH  27  28
ENDBRANCH  23  27
ENDBRANCH   1  24
TORSDOF 6
