REMARK  Name = ZINC13415166
REMARK  7 active torsions:
REMARK  status: ('A' for Active; 'I' for Inactive)
REMARK    1  A    between atoms: C_3  and  C_6
REMARK    2  A    between atoms: C_16  and  C_18
REMARK    3  A    between atoms: C_23  and  C_25
REMARK    4  A    between atoms: C_25  and  S_26
REMARK    5  A    between atoms: S_26  and  C_27
REMARK    6  A    between atoms: C_29  and  C_32
REMARK    7  A    between atoms: C_32  and  C_33
REMARK                            x       y       z     vdW  Elec       q    Type
REMARK                         _______ _______ _______ _____ _____    ______ ____
ROOT
ATOM      1  C   UNL     1       3.559   0.617  -0.029  0.00  0.00    +0.051 C 
ATOM      2  C   UNL     1       4.208  -0.572  -0.041  0.00  0.00    -0.021 C 
ATOM      3  C   UNL     1       3.416  -1.845  -0.039  0.00  0.00    +0.037 C 
ATOM      4  C   UNL     1       4.250  -3.097  -0.214  0.00  0.00    +0.005 C 
ATOM      5  C   UNL     1       5.643  -2.990   0.403  0.00  0.00    +0.012 C 
ATOM      6  C   UNL     1       6.402  -1.877  -0.322  0.00  0.00    +0.069 C 
ATOM      7  C   UNL     1       5.619  -0.594  -0.060  0.00  0.00    +0.068 C 
ATOM      8  N   UNL     1       6.466   0.354   0.158  0.00  0.00    -0.181 NA
ATOM      9  N   UNL     1       7.785  -0.095   0.295  0.00  0.00    -0.181 N 
ATOM     10  C   UNL     1       7.754  -1.575   0.346  0.00  0.00    +0.176 C 
ATOM     11  C   UNL     1       8.885   0.680   0.368  0.00  0.00    +0.246 C 
ATOM     12  O   UNL     1       9.979   0.170   0.487  0.00  0.00    -0.273 OA
ENDROOT
BRANCH   1  15
ATOM     13  C   UNL     1      -0.016   1.345   0.009  0.00  0.00    +0.042 A 
ATOM     14  C   UNL     1       1.321   1.778  -0.001  0.00  0.00    +0.049 A 
ATOM     15  C   UNL     1       2.098   0.652  -0.015  0.00  0.00    +0.128 A 
ATOM     16  O   UNL     1       1.279  -0.419  -0.012  0.00  0.00    -0.464 OA
ATOM     17  C   UNL     1       0.002  -0.004   0.002  0.00  0.00    +0.195 A 
ENDBRANCH   1  15
BRANCH  10  18
ATOM     18  C   UNL     1       7.776  -2.068   1.770  0.00  0.00    +0.128 A 
ATOM     19  C   UNL     1       8.341  -3.211   2.198  0.00  0.00    +0.046 A 
ATOM     20  C   UNL     1       8.127  -3.276   3.594  0.00  0.00    +0.041 A 
ATOM     21  C   UNL     1       7.444  -2.169   3.936  0.00  0.00    +0.195 A 
ATOM     22  O   UNL     1       7.238  -1.438   2.828  0.00  0.00    -0.466 OA
ENDBRANCH  10  18
BRANCH  11  23
ATOM     23  C   UNL     1       8.756   2.180   0.302  0.00  0.00    +0.174 C 
BRANCH  23  24
ATOM     24  S   UNL     1      10.397   2.933   0.424  0.00  0.00    -0.089 S 
BRANCH  24  25
ATOM     25  C   UNL     1       9.960   4.637   0.323  0.00  0.00    +0.135 A 
ATOM     26  N   UNL     1      10.745   5.698   0.356  0.00  0.00    -0.237 NA
ATOM     27  C   UNL     1      10.249   6.918   0.266  0.00  0.00    +0.060 A 
ATOM     28  C   UNL     1       8.908   7.061   0.137  0.00  0.00    +0.071 A 
ATOM     29  S   UNL     1       8.388   5.352   0.145  0.00  0.00    -0.069 S 
BRANCH  27  30
ATOM     30  C   UNL     1      11.153   8.123   0.304  0.00  0.00    +0.181 C 
BRANCH  30  31
ATOM     31  C   UNL     1      11.995   8.079   1.553  0.00  0.00    +0.362 C 
ATOM     32  O   UNL     1      11.874   7.163   2.332  0.00  0.00    -0.246 OA
ATOM     33  O   UNL     1      12.880   9.057   1.800  0.00  0.00    -0.246 OA
ENDBRANCH  30  31
ENDBRANCH  27  30
ENDBRANCH  24  25
ENDBRANCH  23  24
ENDBRANCH  11  23
TORSDOF 7
