REMARK  Name = ZINC14960414
REMARK  10 active torsions:
REMARK  status: ('A' for Active; 'I' for Inactive)
REMARK    1  A    between atoms: C_5  and  C_7
REMARK    2  A    between atoms: C_7  and  N_62
REMARK    3  A    between atoms: C_10  and  C_13
REMARK    4  A    between atoms: C_13  and  N_64
REMARK    5  A    between atoms: C_14  and  C_15
REMARK    6  A    between atoms: C_14  and  N_64
REMARK    7  A    between atoms: C_18  and  C_20
REMARK    8  A    between atoms: C_20  and  O_21
REMARK    9  A    between atoms: C_22  and  C_23
REMARK   10  A    between atoms: C_22  and  N_64
REMARK                            x       y       z     vdW  Elec       q    Type
REMARK                         _______ _______ _______ _____ _____    ______ ____
ROOT
ATOM      1  N   UNL     1       0.062  -0.442  -1.435  0.00  0.00    +0.386 N 
ATOM      2  H   UNL     1      -0.692  -0.285  -2.115  0.00  0.00    -0.081 HD
ENDROOT
BRANCH   1   3
ATOM      3  C   UNL     1       0.496  -1.852  -1.517  0.00  0.00    -0.075 C 
BRANCH   3   6
ATOM      4  C   UNL     1       1.116  -4.110  -4.573  0.00  0.00    -0.078 C 
ATOM      5  C   UNL     1       1.104  -3.688  -3.102  0.00  0.00    -0.017 C 
ATOM      6  C   UNL     1       0.567  -2.258  -2.991  0.00  0.00    -0.031 C 
ATOM      7  C   UNL     1      -0.833  -2.196  -3.607  0.00  0.00    -0.017 C 
ATOM      8  C   UNL     1      -0.765  -2.663  -5.063  0.00  0.00    -0.078 C 
ATOM      9  N   UNL     1      -0.264  -4.054  -5.100  0.00  0.00    +0.382 N 
ATOM     10  H   UNL     1      -0.869  -4.641  -4.513  0.00  0.00    -0.081 HD
BRANCH   9  11
ATOM     11  C   UNL     1      -0.297  -4.566  -6.485  0.00  0.00    -0.040 C 
BRANCH  11  16
ATOM     12  C   UNL     1      -3.595  -3.922  -8.206  0.00  0.00    +0.000 A 
ATOM     13  C   UNL     1      -4.371  -4.955  -7.714  0.00  0.00    +0.003 A 
ATOM     14  C   UNL     1      -3.830  -5.862  -6.823  0.00  0.00    +0.038 A 
ATOM     15  C   UNL     1      -2.509  -5.740  -6.428  0.00  0.00    +0.125 A 
ATOM     16  C   UNL     1      -1.734  -4.703  -6.918  0.00  0.00    -0.029 A 
ATOM     17  C   UNL     1      -2.277  -3.796  -7.809  0.00  0.00    +0.004 A 
ATOM     18  F   UNL     1      -1.977  -6.630  -5.561  0.00  0.00    -0.205 F 
ENDBRANCH  11  16
ENDBRANCH   9  11
ENDBRANCH   3   6
ENDBRANCH   1   3
BRANCH   1  19
ATOM     19  C   UNL     1       1.192   0.454  -1.756  0.00  0.00    -0.003 C 
BRANCH  19  20
ATOM     20  C   UNL     1       0.675   1.864  -1.882  0.00  0.00    +0.089 A 
ATOM     21  C   UNL     1       0.591   2.763  -0.885  0.00  0.00    +0.043 A 
ATOM     22  C   UNL     1       0.056   3.946  -1.444  0.00  0.00    +0.047 A 
ATOM     23  C   UNL     1      -0.164   3.697  -2.747  0.00  0.00    +0.130 A 
ATOM     24  O   UNL     1       0.213   2.434  -3.007  0.00  0.00    -0.464 OA
BRANCH  23  25
ATOM     25  C   UNL     1      -0.735   4.669  -3.747  0.00  0.00    +0.230 C 
BRANCH  25  26
ATOM     26  O   UNL     1       0.326   5.408  -4.354  0.00  0.00    -0.387 OA
ATOM     27  H   UNL     1       0.031   6.054  -5.010  0.00  0.00    +0.210 HD
ENDBRANCH  25  26
ENDBRANCH  23  25
ENDBRANCH  19  20
ENDBRANCH   1  19
BRANCH   1  28
ATOM     28  C   UNL     1      -0.446  -0.148  -0.079  0.00  0.00    -0.046 C 
BRANCH  28  29
ATOM     29  C   UNL     1      -1.817  -0.807   0.086  0.00  0.00    +0.102 C 
ATOM     30  C   UNL     1      -2.358  -0.544   1.505  0.00  0.00    +0.032 C 
ATOM     31  C   UNL     1      -3.703   0.185   1.270  0.00  0.00    +0.030 C 
ATOM     32  C   UNL     1      -4.040  -0.218  -0.189  0.00  0.00    +0.160 C 
ATOM     33  O   UNL     1      -2.752  -0.230  -0.841  0.00  0.00    -0.378 OA
ENDBRANCH  28  29
ENDBRANCH   1  28
TORSDOF 10
