REMARK  Name = ZINC20731225
REMARK  9 active torsions:
REMARK  status: ('A' for Active; 'I' for Inactive)
REMARK    1  A    between atoms: C_1  and  C_2
REMARK    2  A    between atoms: C_2  and  C_3
REMARK    3  A    between atoms: C_3  and  C_5
REMARK    4  A    between atoms: C_3  and  C_6
REMARK    5  A    between atoms: C_6  and  C_8
REMARK    6  A    between atoms: C_6  and  N_12
REMARK    7  A    between atoms: C_8  and  O_10
REMARK    8  A    between atoms: O_10  and  C_11
REMARK    9  A    between atoms: C_24  and  C_26
REMARK                            x       y       z     vdW  Elec       q    Type
REMARK                         _______ _______ _______ _____ _____    ______ ____
ROOT
ATOM      1  N   UNL     1      -2.711  -2.354   1.901  0.00  0.00    -0.286 N 
ATOM      2  C   UNL     1      -3.601  -1.475   1.400  0.00  0.00    +0.304 C 
ATOM      3  O   UNL     1      -3.222  -0.397   0.983  0.00  0.00    -0.253 OA
ATOM      4  N   UNL     1      -4.911  -1.790   1.361  0.00  0.00    -0.273 N 
ATOM      5  C   UNL     1      -5.881  -0.898   0.708  0.00  0.00    +0.116 C 
ATOM      6  C   UNL     1      -6.492  -1.619  -0.500  0.00  0.00    +0.074 C 
ATOM      7  C   UNL     1      -6.855  -3.024  -0.095  0.00  0.00    +0.040 A 
ATOM      8  C   UNL     1      -6.375  -3.660   0.995  0.00  0.00    +0.062 A 
ATOM      9  N   UNL     1      -6.910  -4.883   1.032  0.00  0.00    -0.348 N 
ATOM     10  C   UNL     1      -7.708  -5.031   0.006  0.00  0.00    +0.171 A 
ATOM     11  N   UNL     1      -7.701  -3.889  -0.720  0.00  0.00    -0.349 N 
ATOM     12  H   UNL     1      -8.202  -3.719  -1.532  0.00  0.00    +0.166 HD
ATOM     13  C   UNL     1      -5.404  -3.040   1.966  0.00  0.00    +0.159 C 
ATOM     14  H   UNL     1      -3.002  -3.240   2.167  0.00  0.00    +0.151 HD
ATOM     15  H   UNL     1      -6.735  -5.554   1.710  0.00  0.00    +0.167 HD
ENDROOT
BRANCH  13  16
ATOM     16  C   UNL     1      -6.107  -2.739   3.265  0.00  0.00    +0.014 A 
ATOM     17  C   UNL     1      -7.281  -3.395   3.584  0.00  0.00    +0.010 A 
ATOM     18  C   UNL     1      -7.925  -3.119   4.775  0.00  0.00    +0.016 A 
ATOM     19  C   UNL     1      -7.397  -2.186   5.649  0.00  0.00    +0.021 A 
ATOM     20  C   UNL     1      -6.223  -1.528   5.331  0.00  0.00    +0.054 A 
ATOM     21  C   UNL     1      -5.574  -1.809   4.141  0.00  0.00    +0.130 A 
ATOM     22  F   UNL     1      -4.423  -1.171   3.831  0.00  0.00    -0.205 F 
ATOM     23 BR   UNL     1      -8.280  -1.810   7.278  0.00  0.00    -0.050 Br
ENDBRANCH  13  16
BRANCH   1  24
ATOM     24  C   UNL     1      -1.304  -1.971   2.043  0.00  0.00    +0.186 C 
BRANCH  24  25
ATOM     25  C   UNL     1      -1.106  -1.239   3.371  0.00  0.00    +0.017 C 
ATOM     26  C   UNL     1      -1.651  -2.098   4.514  0.00  0.00    +0.010 C 
BRANCH  25  28
ATOM     27  C   UNL     1      -1.214   1.011   2.290  0.00  0.00    +0.004 C 
ATOM     28  C   UNL     1      -1.855   0.095   3.334  0.00  0.00    +0.002 C 
ENDBRANCH  25  28
ENDBRANCH  24  25
BRANCH  24  29
ATOM     29  C   UNL     1      -0.442  -3.208   2.018  0.00  0.00    +0.328 C 
ATOM     30  O   UNL     1      -0.955  -4.301   2.012  0.00  0.00    -0.249 OA
BRANCH  29  31
ATOM     31  O   UNL     1       0.895  -3.093   2.002  0.00  0.00    -0.467 OA
ATOM     32  C   UNL     1       1.648  -4.300   1.867  0.00  0.00    +0.280 C 
ENDBRANCH  29  31
ENDBRANCH  24  29
ENDBRANCH   1  24
TORSDOF 6
