REMARK  Name = ZINC13499200
REMARK  15 active torsions:
REMARK  status: ('A' for Active; 'I' for Inactive)
REMARK    1  A    between atoms: C_1  and  C_2
REMARK    2  A    between atoms: C_5  and  C_37
REMARK    3  A    between atoms: C_9  and  C_14
REMARK    4  A    between atoms: C_14  and  N_69
REMARK    5  A    between atoms: C_15  and  C_16
REMARK    6  A    between atoms: C_15  and  N_69
REMARK    7  A    between atoms: C_16  and  C_17
REMARK    8  A    between atoms: C_17  and  O_18
REMARK    9  A    between atoms: C_19  and  C_21
REMARK   10  A    between atoms: C_19  and  C_34
REMARK   11  A    between atoms: C_19  and  N_69
REMARK   12  A    between atoms: N_25  and  C_26
REMARK   13  A    between atoms: C_26  and  C_27
REMARK   14  A    between atoms: C_34  and  C_35
REMARK   15  A    between atoms: C_34  and  C_36
REMARK                            x       y       z     vdW  Elec       q    Type
REMARK                         _______ _______ _______ _____ _____    ______ ____
ROOT
ATOM      1  N   UNL     1      -0.250   2.448   1.760  0.00  0.00    +0.389 N 
ATOM      2  H   UNL     1      -1.205   2.209   2.050  0.00  0.00    -0.080 HD
ENDROOT
BRANCH   1   3
ATOM      3  C   UNL     1       0.677   2.158   2.873  0.00  0.00    -0.037 C 
BRANCH   3  12
ATOM      4  C   UNL     1      -2.272   0.066   6.621  0.00  0.00    +0.044 C 
ATOM      5  C   UNL     1      -2.030   1.506   6.993  0.00  0.00    -0.041 A 
ATOM      6  C   UNL     1      -2.561   2.016   8.144  0.00  0.00    +0.004 A 
ATOM      7  C   UNL     1      -2.343   3.341   8.497  0.00  0.00    +0.005 A 
ATOM      8  C   UNL     1      -1.588   4.167   7.693  0.00  0.00    -0.026 A 
ATOM      9  C   UNL     1      -1.037   3.671   6.516  0.00  0.00    +0.052 A 
ATOM     10  C   UNL     1      -1.260   2.326   6.162  0.00  0.00    +0.002 A 
ATOM     11  C   UNL     1      -0.680   1.814   4.919  0.00  0.00    +0.017 A 
ATOM     12  C   UNL     1       0.062   2.655   4.156  0.00  0.00    +0.001 A 
ATOM     13  C   UNL     1       0.256   3.994   4.557  0.00  0.00    +0.251 A 
ATOM     14  O   UNL     1       0.922   4.734   3.853  0.00  0.00    -0.268 OA
ATOM     15  N   UNL     1      -0.277   4.475   5.694  0.00  0.00    -0.322 N 
ATOM     16  H   UNL     1      -0.125   5.401   5.939  0.00  0.00    +0.169 HD
ATOM     17  C   UNL     1      -1.360   5.604   8.087  0.00  0.00    +0.046 C 
ENDBRANCH   3  12
ENDBRANCH   1   3
BRANCH   1  18
ATOM     18  C   UNL     1      -0.197   3.886   1.420  0.00  0.00    -0.075 C 
BRANCH  18  19
ATOM     19  C   UNL     1      -1.491   4.266   0.697  0.00  0.00    +0.009 C 
BRANCH  19  20
ATOM     20  C   UNL     1      -1.411   5.724   0.242  0.00  0.00    +0.154 C 
BRANCH  20  21
ATOM     21  O   UNL     1      -2.655   6.108  -0.347  0.00  0.00    -0.395 OA
ATOM     22  H   UNL     1      -2.677   7.023  -0.659  0.00  0.00    +0.209 HD
ENDBRANCH  20  21
ENDBRANCH  19  20
ENDBRANCH  18  19
ENDBRANCH   1  18
BRANCH   1  23
ATOM     23  C   UNL     1       0.110   1.636   0.578  0.00  0.00    +0.006 C 
BRANCH  23  24
ATOM     24  C   UNL     1       1.524   1.928   0.147  0.00  0.00    +0.139 A 
ATOM     25  N   UNL     1       2.555   2.128   0.931  0.00  0.00    -0.115 NA
ATOM     26  N   UNL     1       3.584   2.344   0.186  0.00  0.00    -0.023 NA
ATOM     27  N   UNL     1       3.236   2.288  -1.052  0.00  0.00    -0.044 NA
ATOM     28  N   UNL     1       1.974   2.027  -1.117  0.00  0.00    -0.226 N 
BRANCH  28  29
ATOM     29  C   UNL     1       1.180   1.873  -2.339  0.00  0.00    +0.182 C 
BRANCH  29  30
ATOM     30  C   UNL     1       0.828   3.232  -2.884  0.00  0.00    -0.026 A 
ATOM     31  C   UNL     1      -0.401   3.796  -2.592  0.00  0.00    +0.008 A 
ATOM     32  C   UNL     1      -0.723   5.045  -3.088  0.00  0.00    +0.038 A 
ATOM     33  C   UNL     1       0.180   5.728  -3.886  0.00  0.00    +0.123 A 
ATOM     34  C   UNL     1       1.408   5.159  -4.181  0.00  0.00    +0.038 A 
ATOM     35  C   UNL     1       1.730   3.912  -3.680  0.00  0.00    +0.008 A 
ATOM     36  F   UNL     1      -0.136   6.947  -4.375  0.00  0.00    -0.205 F 
ENDBRANCH  29  30
ENDBRANCH  28  29
ENDBRANCH  23  24
BRANCH  23  37
ATOM     37  C   UNL     1      -0.019   0.154   0.937  0.00  0.00    -0.024 C 
ATOM     38  C   UNL     1      -1.422  -0.118   1.483  0.00  0.00    +0.006 C 
ATOM     39  C   UNL     1       0.216  -0.696  -0.313  0.00  0.00    +0.006 C 
ENDBRANCH  23  37
ENDBRANCH   1  23
TORSDOF 11
