REMARK  Name = ZINC06135202
REMARK  7 active torsions:
REMARK  status: ('A' for Active; 'I' for Inactive)
REMARK    1  A    between atoms: C_1  and  C_2
REMARK    2  A    between atoms: C_2  and  C_3
REMARK    3  A    between atoms: C_10  and  C_15
REMARK    4  A    between atoms: C_15  and  C_17
REMARK    5  A    between atoms: C_15  and  N_72
REMARK    6  A    between atoms: N_21  and  C_22
REMARK    7  A    between atoms: N_30  and  C_33
REMARK                            x       y       z     vdW  Elec       q    Type
REMARK                         _______ _______ _______ _____ _____    ______ ____
ROOT
ATOM      1  C   UNL     1       3.501   2.017   1.237  0.00  0.00    +0.039 C 
ENDROOT
BRANCH   1   9
ATOM      2  C   UNL     1       4.644   7.837  -0.525  0.00  0.00    -0.047 A 
ATOM      3  C   UNL     1       3.869   8.450   0.451  0.00  0.00    +0.005 A 
ATOM      4  C   UNL     1       3.181   7.697   1.378  0.00  0.00    +0.026 A 
ATOM      5  C   UNL     1       3.263   6.309   1.339  0.00  0.00    +0.049 A 
ATOM      6  C   UNL     1       4.050   5.692   0.349  0.00  0.00    -0.001 A 
ATOM      7  C   UNL     1       4.740   6.475  -0.583  0.00  0.00    +0.013 A 
ATOM      8  C   UNL     1       4.130   4.230   0.315  0.00  0.00    +0.017 A 
ATOM      9  C   UNL     1       3.440   3.522   1.243  0.00  0.00    +0.011 A 
ATOM     10  C   UNL     1       2.660   4.191   2.211  0.00  0.00    +0.251 A 
ATOM     11  O   UNL     1       2.044   3.535   3.033  0.00  0.00    -0.268 OA
ATOM     12  N   UNL     1       2.585   5.532   2.253  0.00  0.00    -0.322 N 
ATOM     13  H   UNL     1       2.030   5.973   2.958  0.00  0.00    +0.169 HD
BRANCH   2  15
ATOM     14  C   UNL     1       4.498   8.924  -2.748  0.00  0.00    +0.009 C 
ATOM     15  C   UNL     1       5.388   8.681  -1.528  0.00  0.00    +0.032 C 
ENDBRANCH   2  15
ENDBRANCH   1   9
BRANCH   1  21
ATOM     16  C   UNL     1       1.419   1.992  -0.001  0.00  0.00    -0.058 C 
ATOM     17  C   UNL     1      -0.018   1.465   0.010  0.00  0.00    +0.086 C 
ATOM     18  N   UNL     1       0.002  -0.004   0.002  0.00  0.00    -0.333 N 
ATOM     19  C   UNL     1       0.721  -0.525   1.173  0.00  0.00    +0.086 C 
ATOM     20  C   UNL     1       2.158   0.003   1.162  0.00  0.00    -0.058 C 
ATOM     21  N   UNL     1       2.123   1.480   1.193  0.00  0.00    +0.391 N 
ATOM     22  H   UNL     1       1.620   1.785   2.034  0.00  0.00    -0.080 HD
BRANCH  18  23
ATOM     23  C   UNL     1      -1.295  -0.522  -0.061  0.00  0.00    +0.030 A 
ATOM     24  C   UNL     1      -2.386   0.336  -0.100  0.00  0.00    +0.026 A 
ATOM     25  C   UNL     1      -3.666  -0.178  -0.167  0.00  0.00    +0.040 A 
ATOM     26  C   UNL     1      -3.863  -1.549  -0.185  0.00  0.00    +0.124 A 
ATOM     27  C   UNL     1      -2.777  -2.406  -0.140  0.00  0.00    +0.040 A 
ATOM     28  C   UNL     1      -1.494  -1.897  -0.079  0.00  0.00    +0.026 A 
ATOM     29  F   UNL     1      -5.116  -2.050  -0.246  0.00  0.00    -0.205 F 
ENDBRANCH  18  23
ENDBRANCH   1  21
BRANCH   1  30
ATOM     30  C   UNL     1       4.173   1.535   2.497  0.00  0.00    +0.143 A 
ATOM     31  N   UNL     1       3.652   1.505   3.699  0.00  0.00    -0.115 NA
ATOM     32  N   UNL     1       4.538   1.029   4.504  0.00  0.00    -0.023 NA
ATOM     33  N   UNL     1       5.611   0.755   3.847  0.00  0.00    -0.044 NA
ATOM     34  N   UNL     1       5.423   1.048   2.604  0.00  0.00    -0.227 N 
BRANCH  34  35
ATOM     35  C   UNL     1       6.391   0.886   1.516  0.00  0.00    +0.111 C 
ATOM     36  C   UNL     1       6.777  -0.589   1.394  0.00  0.00    +0.027 C 
ATOM     37  C   UNL     1       7.788  -0.759   0.258  0.00  0.00    +0.002 C 
ATOM     38  C   UNL     1       9.037   0.072   0.557  0.00  0.00    +0.000 C 
ATOM     39  C   UNL     1       8.650   1.548   0.679  0.00  0.00    +0.002 C 
ATOM     40  C   UNL     1       7.640   1.717   1.816  0.00  0.00    +0.027 C 
ENDBRANCH  34  35
ENDBRANCH   1  30
TORSDOF 6
