REMARK  Name = ZINC06193111
REMARK  16 active torsions:
REMARK  status: ('A' for Active; 'I' for Inactive)
REMARK    1  A    between atoms: C_1  and  C_2
REMARK    2  A    between atoms: C_2  and  N_72
REMARK    3  A    between atoms: C_3  and  C_4
REMARK    4  A    between atoms: C_3  and  N_72
REMARK    5  A    between atoms: C_5  and  C_6
REMARK    6  A    between atoms: C_5  and  N_72
REMARK    7  A    between atoms: C_6  and  C_7
REMARK    8  A    between atoms: C_7  and  N_8
REMARK    9  A    between atoms: N_8  and  C_9
REMARK   10  A    between atoms: C_9  and  N_11
REMARK   11  A    between atoms: N_11  and  C_12
REMARK   12  A    between atoms: N_11  and  C_21
REMARK   13  A    between atoms: C_12  and  C_13
REMARK   14  A    between atoms: C_13  and  C_14
REMARK   15  A    between atoms: C_18  and  C_20
REMARK   16  A    between atoms: C_21  and  C_22
REMARK                            x       y       z     vdW  Elec       q    Type
REMARK                         _______ _______ _______ _____ _____    ______ ____
ROOT
ATOM      1  N   UNL     1       1.201   4.116   1.390  0.00  0.00    -0.308 N 
ENDROOT
BRANCH   1   2
ATOM      2  C   UNL     1       2.373   4.417   1.985  0.00  0.00    +0.133 C 
ATOM      3  S   UNL     1       3.829   4.356   1.087  0.00  0.00    -0.019 S 
BRANCH   2   4
ATOM      4  N   UNL     1       2.397   4.766   3.286  0.00  0.00    -0.326 N 
ATOM      5  H   UNL     1       1.572   4.801   3.795  0.00  0.00    +0.148 HD
BRANCH   4   6
ATOM      6  C   UNL     1       3.670   5.094   3.933  0.00  0.00    +0.101 C 
BRANCH   6   7
ATOM      7  C   UNL     1       3.420   5.454   5.399  0.00  0.00    +0.000 C 
BRANCH   7   8
ATOM      8  C   UNL     1       4.750   5.795   6.074  0.00  0.00    -0.077 C 
BRANCH   8   9
ATOM      9  N   UNL     1       4.475   6.274   7.445  0.00  0.00    +0.379 N 
ATOM     10  H   UNL     1       3.667   6.907   7.422  0.00  0.00    -0.082 HD
BRANCH   9  12
ATOM     11  C   UNL     1       3.667   5.665   9.673  0.00  0.00    -0.017 C 
ATOM     12  C   UNL     1       4.163   5.130   8.327  0.00  0.00    -0.082 C 
ENDBRANCH   9  12
BRANCH   9  13
ATOM     13  C   UNL     1       5.646   7.010   7.967  0.00  0.00    -0.082 C 
ATOM     14  C   UNL     1       5.673   8.402   7.334  0.00  0.00    -0.017 C 
ENDBRANCH   9  13
ENDBRANCH   8   9
ENDBRANCH   7   8
ENDBRANCH   6   7
ENDBRANCH   4   6
ENDBRANCH   2   4
ENDBRANCH   1   2
BRANCH   1  15
ATOM     15  C   UNL     1      -0.056   4.277   2.124  0.00  0.00    +0.112 C 
BRANCH  15  16
ATOM     16  C   UNL     1      -0.388   2.977   2.858  0.00  0.00    +0.054 C 
BRANCH  16  17
ATOM     17  C   UNL     1      -1.682   3.143   3.614  0.00  0.00    -0.046 A 
ATOM     18  C   UNL     1      -1.666   3.599   4.919  0.00  0.00    +0.004 A 
ATOM     19  C   UNL     1      -2.853   3.755   5.610  0.00  0.00    +0.001 A 
ATOM     20  C   UNL     1      -4.054   3.447   5.000  0.00  0.00    +0.003 A 
ATOM     21  C   UNL     1      -4.069   2.987   3.696  0.00  0.00    -0.050 A 
ATOM     22  C   UNL     1      -2.883   2.834   3.004  0.00  0.00    +0.007 A 
ATOM     23  C   UNL     1      -5.379   2.650   3.031  0.00  0.00    +0.044 C 
ENDBRANCH  16  17
ENDBRANCH  15  16
ENDBRANCH   1  15
BRANCH   1  24
ATOM     24  C   UNL     1       1.186   3.627   0.009  0.00  0.00    +0.147 C 
BRANCH  24  25
ATOM     25  C   UNL     1       1.144   2.121   0.009  0.00  0.00    +0.035 A 
ATOM     26  C   UNL     1       2.300   1.413  -0.063  0.00  0.00    +0.020 A 
ATOM     27  C   UNL     1       2.227  -0.048  -0.060  0.00  0.00    +0.003 A 
ATOM     28  C   UNL     1       3.387  -0.829  -0.131  0.00  0.00    +0.059 A 
ATOM     29  C   UNL     1       3.286  -2.203  -0.126  0.00  0.00    +0.167 A 
ATOM     30  C   UNL     1       2.030  -2.818  -0.049  0.00  0.00    +0.168 A 
ATOM     31  C   UNL     1       0.879  -2.054   0.021  0.00  0.00    +0.075 A 
ATOM     32  C   UNL     1       0.964  -0.668   0.017  0.00  0.00    +0.053 A 
ATOM     33  N   UNL     1      -0.173   0.111   0.088  0.00  0.00    -0.322 N 
ATOM     34  H   UNL     1      -1.069  -0.330   0.143  0.00  0.00    +0.169 HD
ATOM     35  C   UNL     1      -0.095   1.453   0.085  0.00  0.00    +0.254 A 
ATOM     36  O   UNL     1      -1.120   2.108   0.150  0.00  0.00    -0.268 OA
ATOM     37  O   UNL     1       2.209  -4.171  -0.061  0.00  0.00    -0.453 OA
ATOM     38  C   UNL     1       3.595  -4.379   0.270  0.00  0.00    +0.466 C 
ATOM     39  O   UNL     1       4.242  -3.176  -0.184  0.00  0.00    -0.453 OA
ENDBRANCH  24  25
ENDBRANCH   1  24
TORSDOF 13
