REMARK  Name = ZINC24865519
REMARK  9 active torsions:
REMARK  status: ('A' for Active; 'I' for Inactive)
REMARK    1  A    between atoms: C_1  and  C_2
REMARK    2  A    between atoms: C_2  and  C_3
REMARK    3  A    between atoms: C_2  and  C_4
REMARK    4  A    between atoms: C_4  and  C_6
REMARK    5  A    between atoms: C_4  and  N_25
REMARK    6  A    between atoms: C_11  and  C_14
REMARK    7  A    between atoms: C_17  and  N_21
REMARK    8  A    between atoms: C_22  and  C_24
REMARK    9  A    between atoms: C_26  and  C_28
REMARK                            x       y       z     vdW  Elec       q    Type
REMARK                         _______ _______ _______ _____ _____    ______ ____
ROOT
ATOM      1  C   UNL     1     -10.223   4.279   0.767  0.00  0.00    +0.239 C 
ATOM      2  O   UNL     1      -9.828   5.388   0.473  0.00  0.00    -0.273 OA
ATOM      3  N   UNL     1      -9.340   3.284   0.979  0.00  0.00    -0.263 N 
ATOM      4  C   UNL     1      -7.977   3.552   0.976  0.00  0.00    +0.165 A 
ATOM      5  N   UNL     1      -6.962   2.727   1.157  0.00  0.00    -0.225 NA
ATOM      6  C   UNL     1      -5.710   3.158   1.125  0.00  0.00    +0.083 A 
ATOM      7  C   UNL     1      -5.463   4.482   0.891  0.00  0.00    +0.077 A 
ATOM      8  S   UNL     1      -7.130   5.105   0.720  0.00  0.00    -0.060 S 
ATOM      9  H   UNL     1      -9.698   2.259   1.155  0.00  0.00    +0.157 HD
ENDROOT
BRANCH   6  10
ATOM     10  C   UNL     1      -4.587   2.212   1.337  0.00  0.00    +0.036 A 
ATOM     11  C   UNL     1      -4.846   0.864   1.575  0.00  0.00    +0.015 A 
ATOM     12  C   UNL     1      -3.800  -0.013   1.772  0.00  0.00    +0.024 A 
ATOM     13  C   UNL     1      -2.489   0.445   1.732  0.00  0.00    +0.036 A 
ATOM     14  C   UNL     1      -2.227   1.789   1.500  0.00  0.00    +0.062 A 
ATOM     15  C   UNL     1      -3.270   2.672   1.297  0.00  0.00    +0.134 A 
ATOM     16  F   UNL     1      -3.015   3.978   1.065  0.00  0.00    -0.205 F 
BRANCH  13  17
ATOM     17  N   UNL     1      -1.430  -0.448   1.931  0.00  0.00    -0.286 N 
ATOM     18  C   UNL     1      -1.517  -1.710   1.466  0.00  0.00    +0.214 C 
ATOM     19  O   UNL     1      -2.539  -2.093   0.938  0.00  0.00    -0.276 OA
ATOM     20  C   UNL     1      -0.344  -2.646   1.603  0.00  0.00    +0.109 C 
ATOM     21  H   UNL     1      -0.527  -0.120   2.467  0.00  0.00    +0.155 HD
ENDBRANCH  13  17
ENDBRANCH   6  10
BRANCH   1  22
ATOM     22  C   UNL     1     -11.701   4.015   0.895  0.00  0.00    +0.162 C 
BRANCH  22  23
ATOM     23  N   UNL     1     -12.428   5.287   0.869  0.00  0.00    -0.300 N 
ATOM     24  C   UNL     1     -13.641   5.382   1.450  0.00  0.00    +0.250 C 
ATOM     25  O   UNL     1     -14.131   4.412   1.995  0.00  0.00    -0.270 OA
ATOM     26  H   UNL     1     -11.985   6.165   0.376  0.00  0.00    +0.150 HD
BRANCH  24  27
ATOM     27  C   UNL     1     -14.373   6.662   1.425  0.00  0.00    +0.107 A 
ATOM     28  C   UNL     1     -15.242   6.955   0.368  0.00  0.00    +0.138 A 
ATOM     29  C   UNL     1     -15.928   8.155   0.354  0.00  0.00    +0.039 A 
ATOM     30  C   UNL     1     -15.749   9.069   1.376  0.00  0.00    +0.006 A 
ATOM     31  C   UNL     1     -14.888   8.791   2.422  0.00  0.00    +0.039 A 
ATOM     32  C   UNL     1     -14.198   7.593   2.454  0.00  0.00    +0.138 A 
ATOM     33  F   UNL     1     -13.358   7.323   3.476  0.00  0.00    -0.205 F 
ATOM     34  F   UNL     1     -15.414   6.065  -0.634  0.00  0.00    -0.205 F 
ENDBRANCH  24  27
ENDBRANCH  22  23
BRANCH  22  36
ATOM     35  C   UNL     1     -13.629   2.744  -0.060  0.00  0.00    +0.009 C 
ATOM     36  C   UNL     1     -12.165   3.139  -0.270  0.00  0.00    +0.012 C 
ATOM     37  C   UNL     1     -12.031   3.918  -1.580  0.00  0.00    +0.009 C 
ENDBRANCH  22  36
ENDBRANCH   1  22
TORSDOF 6
