REMARK  Name = ZINC09995393
REMARK  7 active torsions:
REMARK  status: ('A' for Active; 'I' for Inactive)
REMARK    1  A    between atoms: C_1  and  C_2
REMARK    2  A    between atoms: C_5  and  N_11
REMARK    3  A    between atoms: C_6  and  N_8
REMARK    4  A    between atoms: C_12  and  C_14
REMARK    5  A    between atoms: N_16  and  C_17
REMARK    6  A    between atoms: C_20  and  C_24
REMARK    7  A    between atoms: C_21  and  C_23
REMARK                            x       y       z     vdW  Elec       q    Type
REMARK                         _______ _______ _______ _____ _____    ______ ____
ROOT
ATOM      1  N   UNL     1      -6.066   3.191  -0.233  0.00  0.00    -0.276 N 
ATOM      2  C   UNL     1      -4.907   3.873  -0.143  0.00  0.00    +0.304 C 
ATOM      3  O   UNL     1      -4.915   5.087  -0.148  0.00  0.00    -0.265 OA
ATOM      4  H   UNL     1      -6.067   2.224  -0.162  0.00  0.00    +0.155 HD
ENDROOT
BRANCH   1   9
ATOM      5  C   UNL     1     -10.940   5.979  -1.031  0.00  0.00    +0.044 C 
ATOM      6  C   UNL     1      -9.646   5.238  -0.819  0.00  0.00    -0.048 A 
ATOM      7  C   UNL     1      -8.649   5.799  -0.040  0.00  0.00    +0.005 A 
ATOM      8  C   UNL     1      -7.462   5.123   0.157  0.00  0.00    +0.026 A 
ATOM      9  C   UNL     1      -7.267   3.878  -0.429  0.00  0.00    +0.064 A 
ATOM     10  C   UNL     1      -8.268   3.320  -1.216  0.00  0.00    +0.148 A 
ATOM     11  C   UNL     1      -9.456   4.000  -1.403  0.00  0.00    +0.038 A 
BRANCH  10  12
ATOM     12  N   UNL     1      -8.063   1.997  -1.846  0.00  0.00    +0.058 N 
ATOM     13  O   UNL     1      -8.903   1.549  -2.607  0.00  0.00    -0.126 OA
ATOM     14  O   UNL     1      -7.056   1.357  -1.605  0.00  0.00    -0.126 OA
ENDBRANCH  10  12
ENDBRANCH   1   9
BRANCH   2  15
ATOM     15  C   UNL     1      -3.614   3.136  -0.038  0.00  0.00    +0.303 C 
ATOM     16  O   UNL     1      -3.606   1.922  -0.034  0.00  0.00    -0.265 OA
ATOM     17  N   UNL     1      -2.455   3.817   0.052  0.00  0.00    -0.278 N 
ATOM     18  H   UNL     1      -2.466   4.784   0.134  0.00  0.00    +0.155 HD
BRANCH  17  19
ATOM     19  C   UNL     1      -1.238   3.132   0.028  0.00  0.00    +0.034 A 
ATOM     20  C   UNL     1      -0.117   3.680   0.641  0.00  0.00    +0.023 A 
ATOM     21  C   UNL     1       1.085   3.003   0.609  0.00  0.00    +0.005 A 
ATOM     22  C   UNL     1       1.173   1.775  -0.021  0.00  0.00    -0.047 A 
ATOM     23  C   UNL     1       0.059   1.224  -0.626  0.00  0.00    -0.046 A 
ATOM     24  C   UNL     1      -1.146   1.899  -0.604  0.00  0.00    +0.027 A 
ATOM     25  C   UNL     1       0.160  -0.115  -1.312  0.00  0.00    +0.044 C 
ATOM     26  C   UNL     1       2.487   1.036  -0.048  0.00  0.00    +0.044 C 
ENDBRANCH  17  19
ENDBRANCH   2  15
TORSDOF 4
