REMARK  Name = ZINC03030832
REMARK  5 active torsions:
REMARK  status: ('A' for Active; 'I' for Inactive)
REMARK    1  A    between atoms: C_1  and  C_2
REMARK    2  A    between atoms: C_4  and  N_9
REMARK    3  A    between atoms: C_10  and  C_12
REMARK    4  A    between atoms: C_12  and  S_13
REMARK    5  A    between atoms: S_13  and  C_14
REMARK                            x       y       z     vdW  Elec       q    Type
REMARK                         _______ _______ _______ _____ _____    ______ ____
ROOT
ATOM      1  C   UNL     1      -3.704   1.399   5.014  0.00  0.00    +0.173 C 
ENDROOT
BRANCH   1   3
ATOM      2  N   UNL     1      -3.405   1.996   7.396  0.00  0.00    -0.285 N 
ATOM      3  C   UNL     1      -4.210   1.514   6.429  0.00  0.00    +0.227 C 
ATOM      4  O   UNL     1      -5.343   1.173   6.697  0.00  0.00    -0.275 OA
ATOM      5  H   UNL     1      -2.476   2.197   7.198  0.00  0.00    +0.155 HD
BRANCH   2   9
ATOM      6  C   UNL     1      -2.694   2.040  12.260  0.00  0.00    +0.045 C 
ATOM      7  C   UNL     1      -3.584   2.236  11.061  0.00  0.00    -0.035 A 
ATOM      8  C   UNL     1      -3.086   2.027   9.790  0.00  0.00    +0.027 A 
ATOM      9  C   UNL     1      -3.907   2.207   8.685  0.00  0.00    +0.034 A 
ATOM     10  C   UNL     1      -5.227   2.603   8.861  0.00  0.00    +0.024 A 
ATOM     11  C   UNL     1      -5.721   2.805  10.134  0.00  0.00    +0.017 A 
ATOM     12  C   UNL     1      -4.901   2.624  11.233  0.00  0.00    +0.021 A 
ATOM     13 BR   UNL     1      -5.580   2.909  12.975  0.00  0.00    -0.050 Br
ENDBRANCH   2   9
ENDBRANCH   1   3
BRANCH   1  14
ATOM     14  S   UNL     1      -5.010   0.723   3.959  0.00  0.00    -0.078 S 
BRANCH  14  15
ATOM     15  C   UNL     1      -4.170   0.697   2.410  0.00  0.00    +0.170 A 
ATOM     16  N   UNL     1      -4.818   0.241   1.303  0.00  0.00    -0.302 N 
ATOM     17  H   UNL     1      -5.765  -0.074   1.367  0.00  0.00    +0.171 HD
ATOM     18  C   UNL     1      -4.172   0.216   0.120  0.00  0.00    +0.255 A 
ATOM     19  O   UNL     1      -4.734  -0.193  -0.883  0.00  0.00    -0.267 OA
ATOM     20  C   UNL     1      -2.837   0.669   0.056  0.00  0.00    +0.038 A 
ATOM     21  C   UNL     1      -2.242   1.120   1.190  0.00  0.00    +0.052 A 
ATOM     22  N   UNL     1      -2.925   1.119   2.341  0.00  0.00    -0.228 NA
ATOM     23  C   UNL     1      -0.828   1.640   1.215  0.00  0.00    +0.056 C 
ATOM     24  C   UNL     1      -0.066   1.182  -0.028  0.00  0.00    +0.006 C 
ATOM     25  C   UNL     1      -0.905   1.528  -1.264  0.00  0.00    +0.005 C 
ATOM     26  C   UNL     1      -2.138   0.626  -1.276  0.00  0.00    +0.042 C 
ENDBRANCH  14  15
ENDBRANCH   1  14
TORSDOF 4
