REMARK  Name = ZINC45330332
REMARK  5 active torsions:
REMARK  status: ('A' for Active; 'I' for Inactive)
REMARK    1  A    between atoms: C_2  and  C_13
REMARK    2  A    between atoms: C_3  and  N_10
REMARK    3  A    between atoms: N_14  and  N_15
REMARK    4  A    between atoms: C_16  and  C_18
REMARK    5  A    between atoms: C_20  and  N_26
REMARK                            x       y       z     vdW  Elec       q    Type
REMARK                         _______ _______ _______ _____ _____    ______ ____
ROOT
ATOM      1  N   UNL     1       2.033   5.593   0.880  0.00  0.00    -0.202 N 
ATOM      2  C   UNL     1       3.158   6.327   0.986  0.00  0.00    +0.283 C 
ATOM      3  O   UNL     1       4.245   5.797   0.858  0.00  0.00    -0.267 OA
ATOM      4  H   UNL     1       1.166   6.016   0.982  0.00  0.00    +0.178 HD
ENDROOT
BRANCH   2   5
ATOM      5  C   UNL     1       3.071   7.779   1.257  0.00  0.00    +0.149 A 
ATOM      6  C   UNL     1       4.238   8.533   1.359  0.00  0.00    +0.094 A 
ATOM      7  C   UNL     1       4.138   9.901   1.615  0.00  0.00    +0.067 A 
ATOM      8  C   UNL     1       2.868  10.457   1.758  0.00  0.00    +0.100 A 
ATOM      9  C   UNL     1       1.754   9.641   1.643  0.00  0.00    +0.150 A 
ATOM     10  N   UNL     1       1.880   8.353   1.396  0.00  0.00    -0.228 NA
ATOM     11 CL   UNL     1       0.170  10.327   1.820  0.00  0.00    -0.060 Cl
ATOM     12 CL   UNL     1       2.684  12.153   2.078  0.00  0.00    -0.078 Cl
ATOM     13 CL   UNL     1       5.791   7.782   1.171  0.00  0.00    -0.079 Cl
BRANCH   7  14
ATOM     14  N   UNL     1       5.281  10.691   1.725  0.00  0.00    -0.356 N 
ATOM     15  H   UNL     1       6.159  10.291   1.624  0.00  0.00    +0.142 HD
ATOM     16  H   UNL     1       5.198  11.641   1.903  0.00  0.00    +0.142 HD
ENDBRANCH   7  14
ENDBRANCH   2   5
BRANCH   1  18
ATOM     17  C   UNL     1       1.031   3.511   0.521  0.00  0.00    +0.140 C 
ATOM     18  N   UNL     1       2.115   4.218   0.623  0.00  0.00    -0.187 NA
BRANCH  17  20
ATOM     19  C   UNL     1      -0.045   1.323   0.023  0.00  0.00    +0.061 A 
ATOM     20  C   UNL     1       1.118   2.065   0.251  0.00  0.00    +0.028 A 
ATOM     21  C   UNL     1       2.362   1.431   0.221  0.00  0.00    +0.138 A 
ATOM     22  C   UNL     1       2.441   0.078  -0.033  0.00  0.00    +0.083 A 
ATOM     23  C   UNL     1       1.287  -0.659  -0.259  0.00  0.00    +0.168 A 
ATOM     24  C   UNL     1       0.041  -0.032  -0.230  0.00  0.00    +0.167 A 
ATOM     25  O   UNL     1      -0.923  -0.967  -0.481  0.00  0.00    -0.453 OA
ATOM     26  C   UNL     1      -0.230  -2.085  -1.067  0.00  0.00    +0.466 C 
ATOM     27  O   UNL     1       1.101  -1.984  -0.525  0.00  0.00    -0.453 OA
BRANCH  21  28
ATOM     28  N   UNL     1       3.597   2.212   0.461  0.00  0.00    +0.057 N 
ATOM     29  O   UNL     1       4.506   2.164  -0.334  0.00  0.00    -0.126 OA
ATOM     30  O   UNL     1       3.695   2.898   1.451  0.00  0.00    -0.126 OA
ENDBRANCH  21  28
ENDBRANCH  17  20
ENDBRANCH   1  18
TORSDOF 5
