REMARK  Name = ZINC33033196
REMARK  13 active torsions:
REMARK  status: ('A' for Active; 'I' for Inactive)
REMARK    1  A    between atoms: C_1  and  C_2
REMARK    2  A    between atoms: C_5  and  S_8
REMARK    3  A    between atoms: S_8  and  N_11
REMARK    4  A    between atoms: N_11  and  C_12
REMARK    5  A    between atoms: C_14  and  C_24
REMARK    6  A    between atoms: C_17  and  N_18
REMARK    7  A    between atoms: N_26  and  C_27
REMARK    8  A    between atoms: N_26  and  C_28
REMARK    9  A    between atoms: C_28  and  C_29
REMARK   10  A    between atoms: N_31  and  C_32
REMARK   11  A    between atoms: C_32  and  C_33
REMARK   12  A    between atoms: C_33  and  O_34
REMARK   13  A    between atoms: O_34  and  C_35
REMARK                            x       y       z     vdW  Elec       q    Type
REMARK                         _______ _______ _______ _____ _____    ______ ____
ROOT
ATOM      1  C   UNL     1      -4.229   2.452   0.004  0.00  0.00    +0.070 A 
ATOM      2  C   UNL     1      -3.037   1.759   0.097  0.00  0.00    +0.039 A 
ATOM      3  C   UNL     1      -1.831   2.409  -0.181  0.00  0.00    +0.039 A 
ATOM      4  C   UNL     1      -1.834   3.758  -0.547  0.00  0.00    +0.015 A 
ATOM      5  C   UNL     1      -3.025   4.443  -0.643  0.00  0.00    +0.026 A 
ATOM      6  C   UNL     1      -4.226   3.799  -0.368  0.00  0.00    +0.052 A 
ENDROOT
BRANCH   6   7
ATOM      7  N   UNL     1      -5.428   4.498  -0.462  0.00  0.00    -0.332 N 
ATOM      8  C   UNL     1      -5.188   5.933  -0.666  0.00  0.00    +0.086 C 
ATOM      9  C   UNL     1      -6.527   6.674  -0.684  0.00  0.00    -0.063 C 
ATOM     10  N   UNL     1      -7.372   6.127  -1.755  0.00  0.00    +0.381 N 
ATOM     11  C   UNL     1      -7.612   4.691  -1.552  0.00  0.00    -0.063 C 
ATOM     12  C   UNL     1      -6.272   3.951  -1.533  0.00  0.00    +0.086 C 
ATOM     13  H   UNL     1      -8.340   6.650  -1.762  0.00  0.00    -0.086 HD
ATOM     14  H   UNL     1      -6.872   6.268  -2.725  0.00  0.00    -0.086 HD
ENDBRANCH   6   7
BRANCH   3  15
ATOM     15  C   UNL     1      -0.555   1.674  -0.082  0.00  0.00    +0.247 C 
ATOM     16  O   UNL     1      -0.470   0.700   0.640  0.00  0.00    -0.270 OA
ATOM     17  N   UNL     1       0.513   2.079  -0.797  0.00  0.00    -0.292 N 
ATOM     18  C   UNL     1       0.381   3.185  -1.748  0.00  0.00    +0.133 C 
BRANCH  17  19
ATOM     19  C   UNL     1       1.806   1.413  -0.623  0.00  0.00    +0.203 C 
BRANCH  19  20
ATOM     20  C   UNL     1       1.913   0.261  -1.589  0.00  0.00    +0.230 C 
ATOM     21  O   UNL     1       0.998   0.021  -2.349  0.00  0.00    -0.274 OA
ATOM     22  N   UNL     1       3.024  -0.501  -1.609  0.00  0.00    -0.312 N 
ATOM     23  H   UNL     1       3.853  -0.283  -0.920  0.00  0.00    +0.149 HD
BRANCH  22  24
ATOM     24  C   UNL     1       3.127  -1.620  -2.548  0.00  0.00    +0.132 C 
BRANCH  24  25
ATOM     25  C   UNL     1       4.478  -2.316  -2.366  0.00  0.00    +0.178 C 
BRANCH  25  26
ATOM     26  O   UNL     1       4.538  -2.906  -1.066  0.00  0.00    -0.381 OA
ATOM     27  C   UNL     1       5.765  -3.585  -0.793  0.00  0.00    +0.194 C 
ENDBRANCH  25  26
ENDBRANCH  24  25
ENDBRANCH  22  24
ENDBRANCH  19  20
ENDBRANCH  17  19
ENDBRANCH   3  15
BRANCH   1  28
ATOM     28  N   UNL     1      -5.439   1.804   0.281  0.00  0.00    -0.214 N 
ATOM     29  H   UNL     1      -6.056   1.415  -0.543  0.00  0.00    +0.174 HD
BRANCH  28  30
ATOM     30  S   UNL     1      -5.942   1.625   1.848  0.00  0.00    +0.072 S 
ATOM     31  O   UNL     1      -7.198   0.962   1.798  0.00  0.00    -0.150 OA
ATOM     32  O   UNL     1      -4.835   1.106   2.573  0.00  0.00    -0.150 OA
BRANCH  30  37
ATOM     33  C   UNL     1      -6.995   7.151   4.029  0.00  0.00    +0.044 C 
ATOM     34  C   UNL     1      -6.732   5.771   3.485  0.00  0.00    -0.050 A 
ATOM     35  C   UNL     1      -7.747   5.068   2.862  0.00  0.00    +0.005 A 
ATOM     36  C   UNL     1      -7.506   3.802   2.362  0.00  0.00    +0.029 A 
ATOM     37  C   UNL     1      -6.250   3.239   2.485  0.00  0.00    +0.109 A 
ATOM     38  C   UNL     1      -5.236   3.939   3.112  0.00  0.00    +0.029 A 
ATOM     39  C   UNL     1      -5.476   5.207   3.608  0.00  0.00    +0.005 A 
ENDBRANCH  30  37
ENDBRANCH  28  30
ENDBRANCH   1  28
TORSDOF 10
