REMARK  Name = ZINC39638810
REMARK  5 active torsions:
REMARK  status: ('A' for Active; 'I' for Inactive)
REMARK    1  A    between atoms: C_5  and  C_7
REMARK    2  A    between atoms: C_7  and  C_8
REMARK    3  A    between atoms: C_8  and  N_9
REMARK    4  A    between atoms: C_10  and  C_12
REMARK    5  A    between atoms: C_23  and  C_25
REMARK                            x       y       z     vdW  Elec       q    Type
REMARK                         _______ _______ _______ _____ _____    ______ ____
ROOT
ATOM      1  C   UNL     1       1.536  -6.353   2.551  0.00  0.00    +0.100 C 
ATOM      2  C   UNL     1       2.691  -6.871   1.664  0.00  0.00    +0.121 C 
ATOM      3  N   UNL     1       3.809  -7.110   2.607  0.00  0.00    -0.296 N 
ATOM      4  C   UNL     1       3.160  -7.685   3.810  0.00  0.00    +0.115 C 
ATOM      5  C   UNL     1       1.846  -6.893   3.958  0.00  0.00    -0.004 C 
ATOM      6  C   UNL     1       0.725  -7.814   4.429  0.00  0.00    -0.010 C 
ATOM      7  C   UNL     1       1.027  -8.291   5.853  0.00  0.00    -0.082 C 
ATOM      8  N   UNL     1       1.143  -7.132   6.745  0.00  0.00    +0.379 N 
ATOM      9  C   UNL     1       2.283  -6.300   6.340  0.00  0.00    -0.082 C 
ATOM     10  C   UNL     1       2.034  -5.738   4.937  0.00  0.00    -0.010 C 
ATOM     11  C   UNL     1       5.120  -6.861   2.415  0.00  0.00    +0.249 C 
ATOM     12  O   UNL     1       5.922  -7.115   3.292  0.00  0.00    -0.270 OA
ATOM     13  H   UNL     1       0.296  -6.585   6.697  0.00  0.00    -0.086 HD
ATOM     14  H   UNL     1       1.282  -7.451   7.692  0.00  0.00    -0.086 HD
ENDROOT
BRANCH  11  15
ATOM     15  C   UNL     1       5.581  -6.280   1.138  0.00  0.00    +0.073 A 
ATOM     16  C   UNL     1       5.662  -4.893   0.986  0.00  0.00    +0.054 A 
ATOM     17  C   UNL     1       6.094  -4.357  -0.211  0.00  0.00    +0.021 A 
ATOM     18  C   UNL     1       6.447  -5.189  -1.258  0.00  0.00    +0.003 A 
ATOM     19  C   UNL     1       6.370  -6.563  -1.115  0.00  0.00    +0.021 A 
ATOM     20  C   UNL     1       5.945  -7.114   0.077  0.00  0.00    +0.054 A 
ATOM     21 CL   UNL     1       5.856  -8.838   0.257  0.00  0.00    -0.083 Cl
ATOM     22 CL   UNL     1       5.218  -3.846   2.298  0.00  0.00    -0.083 Cl
ENDBRANCH  11  15
BRANCH   1  24
ATOM     23  N   UNL     1       0.368  -4.189   2.818  0.00  0.00    -0.315 N 
ATOM     24  C   UNL     1       1.516  -4.847   2.560  0.00  0.00    +0.218 C 
ATOM     25  O   UNL     1       2.533  -4.225   2.334  0.00  0.00    -0.275 OA
ATOM     26  H   UNL     1      -0.445  -4.686   2.999  0.00  0.00    +0.149 HD
BRANCH  23  27
ATOM     27  C   UNL     1       0.349  -2.725   2.827  0.00  0.00    +0.109 C 
BRANCH  27  28
ATOM     28  C   UNL     1      -1.066  -2.235   3.145  0.00  0.00    +0.056 C 
BRANCH  28  33
ATOM     29  C   UNL     1      -0.956   1.340   4.352  0.00  0.00    +0.000 A 
ATOM     30  C   UNL     1      -1.124   2.038   3.170  0.00  0.00    +0.003 A 
ATOM     31  C   UNL     1      -1.272   1.353   1.979  0.00  0.00    +0.038 A 
ATOM     32  C   UNL     1      -1.254  -0.031   1.969  0.00  0.00    +0.127 A 
ATOM     33  C   UNL     1      -1.086  -0.728   3.153  0.00  0.00    -0.011 A 
ATOM     34  C   UNL     1      -0.937  -0.042   4.344  0.00  0.00    +0.006 A 
ATOM     35  F   UNL     1      -1.399  -0.701   0.805  0.00  0.00    -0.205 F 
ENDBRANCH  28  33
ENDBRANCH  27  28
ENDBRANCH  23  27
ENDBRANCH   1  24
TORSDOF 5
