REMARK  Name = ZINC14879742
REMARK  7 active torsions:
REMARK  status: ('A' for Active; 'I' for Inactive)
REMARK    1  A    between atoms: C_1  and  N_2
REMARK    2  A    between atoms: N_2  and  C_3
REMARK    3  A    between atoms: C_3  and  C_4
REMARK    4  A    between atoms: C_13  and  C_15
REMARK    5  A    between atoms: C_18  and  S_31
REMARK    6  A    between atoms: C_21  and  N_70
REMARK    7  A    between atoms: S_31  and  C_32
REMARK                            x       y       z     vdW  Elec       q    Type
REMARK                         _______ _______ _______ _____ _____    ______ ____
ROOT
ATOM      1  C   UNL     1      -3.306   8.176   3.269  0.00  0.00    +0.021 C 
ATOM      2  C   UNL     1      -4.810   8.525   3.268  0.00  0.00    +0.006 C 
ATOM      3  C   UNL     1      -4.986   9.544   4.413  0.00  0.00    +0.037 C 
ATOM      4  C   UNL     1      -3.573   9.724   5.009  0.00  0.00    -0.063 C 
ATOM      5  N   UNL     1      -2.686   9.338   3.915  0.00  0.00    +0.390 N 
ATOM      6  H   UNL     1      -2.601  10.110   3.243  0.00  0.00    -0.080 HD
ENDROOT
BRANCH   5   7
ATOM      7  C   UNL     1      -1.326   8.985   4.432  0.00  0.00    -0.061 C 
ATOM      8  C   UNL     1      -0.852  10.065   5.406  0.00  0.00    -0.024 C 
ATOM      9  C   UNL     1       0.528   9.690   5.951  0.00  0.00    +0.005 C 
ATOM     10  C   UNL     1       1.520   9.577   4.793  0.00  0.00    -0.010 C 
ATOM     11  C   UNL     1       1.608  10.919   4.063  0.00  0.00    +0.007 C 
ATOM     12  C   UNL     1       0.228  11.294   3.518  0.00  0.00    -0.010 C 
ATOM     13  C   UNL     1      -0.764  11.407   4.677  0.00  0.00    +0.005 C 
ATOM     14  C   UNL     1      -0.246  10.214   2.544  0.00  0.00    +0.005 C 
ATOM     15  C   UNL     1      -0.333   8.872   3.273  0.00  0.00    -0.024 C 
ATOM     16  C   UNL     1       1.046   8.497   3.818  0.00  0.00    +0.005 C 
ENDBRANCH   5   7
BRANCH   1  19
ATOM     17  C   UNL     1      -3.263   5.614   2.054  0.00  0.00    +0.132 C 
ATOM     18  N   UNL     1      -2.834   6.782   1.281  0.00  0.00    -0.301 N 
ATOM     19  C   UNL     1      -2.807   7.999   1.858  0.00  0.00    +0.202 C 
ATOM     20  O   UNL     1      -2.380   8.953   1.242  0.00  0.00    -0.277 OA
BRANCH  18  21
ATOM     21  C   UNL     1      -2.436   6.626  -0.120  0.00  0.00    +0.149 C 
BRANCH  21  22
ATOM     22  C   UNL     1      -0.957   6.350  -0.194  0.00  0.00    +0.008 A 
ATOM     23  C   UNL     1      -0.332   5.163  -0.174  0.00  0.00    +0.021 A 
ATOM     24  C   UNL     1       1.121   5.121  -0.258  0.00  0.00    -0.011 A 
ATOM     25  C   UNL     1       1.975   3.993  -0.260  0.00  0.00    +0.009 A 
ATOM     26  C   UNL     1       3.324   4.144  -0.341  0.00  0.00    +0.001 A 
ATOM     27  C   UNL     1       3.910   5.399  -0.435  0.00  0.00    +0.001 A 
ATOM     28  C   UNL     1       3.110   6.524  -0.441  0.00  0.00    +0.015 A 
ATOM     29  C   UNL     1       1.742   6.385  -0.354  0.00  0.00    +0.020 A 
ATOM     30  S   UNL     1       0.380   7.522  -0.328  0.00  0.00    -0.092 S 
ENDBRANCH  21  22
ENDBRANCH  18  21
ENDBRANCH   1  19
BRANCH   3  31
ATOM     31  S   UNL     1      -6.121   8.894   5.664  0.00  0.00    -0.085 S 
BRANCH  31  32
ATOM     32  C   UNL     1      -7.616   8.861   4.732  0.00  0.00    +0.188 A 
ATOM     33  N   UNL     1      -7.603   9.271   3.472  0.00  0.00    -0.230 NA
ATOM     34  C   UNL     1      -8.706   9.253   2.743  0.00  0.00    +0.115 A 
ATOM     35  C   UNL     1      -9.888   8.809   3.316  0.00  0.00    +0.039 A 
ATOM     36  C   UNL     1      -9.868   8.393   4.638  0.00  0.00    +0.115 A 
ATOM     37  N   UNL     1      -8.729   8.430   5.310  0.00  0.00    -0.230 NA
ENDBRANCH  31  32
ENDBRANCH   3  31
TORSDOF 6
