REMARK  Name = ZINC04793403
REMARK  9 active torsions:
REMARK  status: ('A' for Active; 'I' for Inactive)
REMARK    1  A    between atoms: C_1  and  C_2
REMARK    2  A    between atoms: C_5  and  C_8
REMARK    3  A    between atoms: C_15  and  S_28
REMARK    4  A    between atoms: C_24  and  C_26
REMARK    5  A    between atoms: C_24  and  C_27
REMARK    6  A    between atoms: S_28  and  C_29
REMARK    7  A    between atoms: C_29  and  C_30
REMARK    8  A    between atoms: N_32  and  C_33
REMARK    9  A    between atoms: C_33  and  C_34
REMARK                            x       y       z     vdW  Elec       q    Type
REMARK                         _______ _______ _______ _____ _____    ______ ____
ROOT
ATOM      1  C   UNL     1       0.059  -4.275  -0.021  0.00  0.00    +0.092 C 
ATOM      2  C   UNL     1       1.308  -4.754   0.658  0.00  0.00    +0.069 A 
ATOM      3  C   UNL     1       2.538  -4.706  -0.007  0.00  0.00    +0.258 A 
ATOM      4  O   UNL     1       2.612  -4.277  -1.148  0.00  0.00    -0.267 OA
ATOM      5  N   UNL     1       3.642  -5.142   0.635  0.00  0.00    -0.302 N 
ATOM      6  H   UNL     1       4.503  -5.117   0.190  0.00  0.00    +0.171 HD
ATOM      7  C   UNL     1       3.548  -5.617   1.909  0.00  0.00    +0.171 A 
ATOM      8  N   UNL     1       2.392  -5.665   2.539  0.00  0.00    -0.208 NA
ATOM      9  C   UNL     1       1.266  -5.248   1.950  0.00  0.00    +0.135 A 
ATOM     10  N   UNL     1       0.061  -5.309   2.621  0.00  0.00    -0.302 N 
ATOM     11  C   UNL     1      -1.123  -5.264   1.936  0.00  0.00    +0.017 C 
ATOM     12  C   UNL     1      -1.175  -4.788   0.675  0.00  0.00    +0.024 C 
ATOM     13  C   UNL     1      -2.389  -4.758  -0.034  0.00  0.00    +0.162 C 
ATOM     14  O   UNL     1      -2.406  -4.319  -1.167  0.00  0.00    -0.292 OA
ATOM     15  C   UNL     1      -3.667  -5.257   0.581  0.00  0.00    +0.086 C 
ATOM     16  C   UNL     1      -3.334  -6.342   1.611  0.00  0.00    -0.023 C 
ATOM     17  C   UNL     1      -2.368  -5.754   2.635  0.00  0.00    +0.058 C 
ATOM     18  C   UNL     1      -4.616  -6.796   2.313  0.00  0.00    +0.011 C 
ATOM     19  C   UNL     1      -2.681  -7.535   0.909  0.00  0.00    +0.011 C 
ATOM     20  H   UNL     1       0.053  -5.386   3.588  0.00  0.00    +0.153 HD
ENDROOT
BRANCH   1  25
ATOM     21  C   UNL     1      -0.018   1.503   0.010  0.00  0.00    +0.044 C 
ATOM     22  C   UNL     1       0.002  -0.004   0.002  0.00  0.00    -0.050 A 
ATOM     23  C   UNL     1       0.006  -0.689  -1.199  0.00  0.00    +0.003 A 
ATOM     24  C   UNL     1       0.025  -2.071  -1.206  0.00  0.00    +0.005 A 
ATOM     25  C   UNL     1       0.040  -2.768  -0.013  0.00  0.00    -0.035 A 
ATOM     26  C   UNL     1       0.037  -2.084   1.188  0.00  0.00    +0.005 A 
ATOM     27  C   UNL     1       0.023  -0.702   1.195  0.00  0.00    +0.003 A 
ENDBRANCH   1  25
BRANCH   7  28
ATOM     28  S   UNL     1       5.003  -6.178   2.729  0.00  0.00    -0.078 S 
BRANCH  28  29
ATOM     29  C   UNL     1       4.410  -6.707   4.360  0.00  0.00    +0.173 C 
BRANCH  29  30
ATOM     30  C   UNL     1       5.571  -7.216   5.175  0.00  0.00    +0.224 C 
ATOM     31  O   UNL     1       6.688  -7.223   4.703  0.00  0.00    -0.275 OA
ATOM     32  N   UNL     1       5.368  -7.666   6.430  0.00  0.00    -0.311 N 
ATOM     33  H   UNL     1       4.475  -7.661   6.808  0.00  0.00    +0.149 HD
BRANCH  32  34
ATOM     34  C   UNL     1       6.496  -8.161   7.222  0.00  0.00    +0.139 C 
BRANCH  34  35
ATOM     35  C   UNL     1       6.004  -8.601   8.577  0.00  0.00    -0.030 A 
ATOM     36  C   UNL     1       5.959  -7.697   9.622  0.00  0.00    +0.005 A 
ATOM     37  C   UNL     1       5.507  -8.100  10.865  0.00  0.00    +0.000 A 
ATOM     38  C   UNL     1       5.101  -9.406  11.063  0.00  0.00    +0.000 A 
ATOM     39  C   UNL     1       5.145 -10.309  10.017  0.00  0.00    +0.000 A 
ATOM     40  C   UNL     1       5.592  -9.905   8.773  0.00  0.00    +0.005 A 
ENDBRANCH  34  35
ENDBRANCH  32  34
ENDBRANCH  29  30
ENDBRANCH  28  29
ENDBRANCH   7  28
TORSDOF 6
