REMARK  Name = ZINC27749795
REMARK  7 active torsions:
REMARK  status: ('A' for Active; 'I' for Inactive)
REMARK    1  A    between atoms: C_1  and  C_2
REMARK    2  A    between atoms: C_5  and  C_8
REMARK    3  A    between atoms: C_8  and  C_10
REMARK    4  A    between atoms: C_12  and  C_24
REMARK    5  A    between atoms: C_18  and  C_19
REMARK    6  A    between atoms: C_18  and  O_23
REMARK    7  A    between atoms: C_27  and  C_29
REMARK                            x       y       z     vdW  Elec       q    Type
REMARK                         _______ _______ _______ _____ _____    ______ ____
ROOT
ATOM      1  C   UNL     1      -0.723   1.581   1.272  0.00  0.00    +0.147 C 
ATOM      2  C   UNL     1      -0.013   1.086   0.008  0.00  0.00    +0.156 C 
ATOM      3  N   UNL     1       1.360   1.594  -0.002  0.00  0.00    -0.289 N 
ATOM      4  C   UNL     1       2.019   1.846   1.138  0.00  0.00    +0.302 C 
ATOM      5  O   UNL     1       3.162   2.257   1.074  0.00  0.00    -0.253 OA
ATOM      6  N   UNL     1       1.468   1.663   2.347  0.00  0.00    -0.264 N 
ATOM      7  C   UNL     1       0.102   1.158   2.493  0.00  0.00    +0.243 C 
ATOM      8  H   UNL     1       1.872   1.776  -0.959  0.00  0.00    +0.151 HD
ATOM      9  H   UNL     1       2.065   1.900   3.241  0.00  0.00    +0.153 HD
ENDROOT
BRANCH   2  10
ATOM     10  C   UNL     1      -0.744   1.586  -1.211  0.00  0.00    +0.127 A 
ATOM     11  C   UNL     1      -1.605   0.870  -1.959  0.00  0.00    +0.047 A 
ATOM     12  C   UNL     1      -2.059   1.717  -2.991  0.00  0.00    +0.050 A 
ATOM     13  C   UNL     1      -1.435   2.913  -2.818  0.00  0.00    +0.135 A 
ATOM     14  O   UNL     1      -0.641   2.819  -1.735  0.00  0.00    -0.458 OA
BRANCH  13  15
ATOM     15  C   UNL     1      -1.601   4.108  -3.672  0.00  0.00    +0.017 A 
ATOM     16  C   UNL     1      -2.456   4.068  -4.775  0.00  0.00    +0.014 A 
ATOM     17  C   UNL     1      -2.611   5.188  -5.564  0.00  0.00    +0.039 A 
ATOM     18  C   UNL     1      -1.910   6.348  -5.272  0.00  0.00    +0.123 A 
ATOM     19  C   UNL     1      -1.055   6.391  -4.182  0.00  0.00    +0.039 A 
ATOM     20  C   UNL     1      -0.897   5.278  -3.382  0.00  0.00    +0.014 A 
ATOM     21  F   UNL     1      -2.060   7.440  -6.053  0.00  0.00    -0.205 F 
ENDBRANCH  13  15
ENDBRANCH   2  10
BRANCH   7  22
ATOM     22  C   UNL     1      -0.526   1.739   3.761  0.00  0.00    +0.436 C 
ATOM     23  F   UNL     1      -0.552   3.135   3.671  0.00  0.00    -0.166 F 
ATOM     24  F   UNL     1      -1.831   1.257   3.899  0.00  0.00    -0.166 F 
ATOM     25  F   UNL     1       0.232   1.358   4.873  0.00  0.00    -0.166 F 
ENDBRANCH   7  22
BRANCH   1  26
ATOM     26  C   UNL     1      -0.835   3.084   1.234  0.00  0.00    +0.173 C 
ATOM     27  O   UNL     1       0.047   3.770   1.707  0.00  0.00    -0.292 OA
BRANCH  26  32
ATOM     28  C   UNL     1      -5.439   5.563  -1.154  0.00  0.00    +0.044 C 
ATOM     29  C   UNL     1      -4.232   4.913  -0.528  0.00  0.00    -0.050 A 
ATOM     30  C   UNL     1      -3.228   5.700   0.011  0.00  0.00    +0.004 A 
ATOM     31  C   UNL     1      -2.121   5.112   0.585  0.00  0.00    +0.011 A 
ATOM     32  C   UNL     1      -2.013   3.719   0.623  0.00  0.00    +0.018 A 
ATOM     33  C   UNL     1      -3.029   2.931   0.071  0.00  0.00    +0.011 A 
ATOM     34  C   UNL     1      -4.133   3.533  -0.494  0.00  0.00    +0.004 A 
ENDBRANCH  26  32
ENDBRANCH   1  26
BRANCH   7  35
ATOM     35  O   UNL     1       0.126  -0.268   2.582  0.00  0.00    -0.364 OA
ATOM     36  H   UNL     1       0.673  -0.758   3.400  0.00  0.00    +0.212 HD
ENDBRANCH   7  35
TORSDOF 6
