REMARK  Name = ZINC40951316
REMARK  8 active torsions:
REMARK  status: ('A' for Active; 'I' for Inactive)
REMARK    1  A    between atoms: C_1  and  C_2
REMARK    2  A    between atoms: C_5  and  O_9
REMARK    3  A    between atoms: O_9  and  C_10
REMARK    4  A    between atoms: C_10  and  C_11
REMARK    5  A    between atoms: C_11  and  C_12
REMARK    6  A    between atoms: C_12  and  C_13
REMARK    7  A    between atoms: N_15  and  N_16
REMARK    8  A    between atoms: C_17  and  C_18
REMARK                            x       y       z     vdW  Elec       q    Type
REMARK                         _______ _______ _______ _____ _____    ______ ____
ROOT
ATOM      1  C   UNL     1       0.101  -8.470  -2.287  0.00  0.00    +0.232 C 
ATOM      2  O   UNL     1       0.113  -8.941  -1.169  0.00  0.00    -0.274 OA
ATOM      3  N   UNL     1       0.106  -9.285  -3.361  0.00  0.00    -0.207 N 
ATOM      4  H   UNL     1       0.097  -8.909  -4.255  0.00  0.00    +0.177 HD
ENDROOT
BRANCH   3   5
ATOM      5  N   UNL     1       0.125 -10.675  -3.185  0.00  0.00    -0.188 NA
ATOM      6  C   UNL     1       0.130 -11.460  -4.220  0.00  0.00    +0.140 C 
BRANCH   6   7
ATOM      7  C   UNL     1       0.150 -12.920  -4.036  0.00  0.00    +0.020 A 
ATOM      8  C   UNL     1       0.163 -13.863  -5.016  0.00  0.00    +0.093 A 
ATOM      9  N   UNL     1       0.180 -15.106  -4.458  0.00  0.00    -0.360 N 
ATOM     10  H   UNL     1       0.192 -15.938  -4.957  0.00  0.00    +0.165 HD
ATOM     11  C   UNL     1       0.178 -15.012  -3.082  0.00  0.00    +0.047 A 
ATOM     12  C   UNL     1       0.166 -13.646  -2.754  0.00  0.00    +0.008 A 
ATOM     13  C   UNL     1       0.167 -13.249  -1.418  0.00  0.00    +0.010 A 
ATOM     14  C   UNL     1       0.185 -14.203  -0.424  0.00  0.00    +0.001 A 
ATOM     15  C   UNL     1       0.201 -15.552  -0.747  0.00  0.00    +0.002 A 
ATOM     16  C   UNL     1       0.190 -15.959  -2.063  0.00  0.00    +0.026 A 
ENDBRANCH   6   7
ENDBRANCH   3   5
BRANCH   1  17
ATOM     17  C   UNL     1       0.081  -6.975  -2.475  0.00  0.00    +0.101 C 
BRANCH  17  18
ATOM     18  C   UNL     1       0.079  -6.289  -1.108  0.00  0.00    +0.050 C 
BRANCH  18  19
ATOM     19  C   UNL     1       0.058  -4.771  -1.300  0.00  0.00    +0.229 C 
BRANCH  19  20
ATOM     20  O   UNL     1       0.057  -4.130  -0.022  0.00  0.00    -0.491 OA
BRANCH  20  25
ATOM     21  C   UNL     1      -0.018   1.503   0.010  0.00  0.00    +0.044 C 
ATOM     22  C   UNL     1       0.002  -0.004   0.002  0.00  0.00    -0.049 A 
ATOM     23  C   UNL     1       0.006  -0.688  -1.200  0.00  0.00    +0.007 A 
ATOM     24  C   UNL     1       0.024  -2.069  -1.211  0.00  0.00    +0.047 A 
ATOM     25  C   UNL     1       0.039  -2.771  -0.014  0.00  0.00    +0.134 A 
ATOM     26  C   UNL     1       0.036  -2.083   1.191  0.00  0.00    +0.060 A 
ATOM     27  C   UNL     1       0.023  -0.700   1.196  0.00  0.00    +0.022 A 
ATOM     28 BR   UNL     1       0.056  -3.035   2.825  0.00  0.00    -0.047 Br
ENDBRANCH  20  25
ENDBRANCH  19  20
ENDBRANCH  18  19
ENDBRANCH  17  18
ENDBRANCH   1  17
TORSDOF 7
