REMARK  Name = ZINC54520711
REMARK  7 active torsions:
REMARK  status: ('A' for Active; 'I' for Inactive)
REMARK    1  A    between atoms: C_1  and  C_2
REMARK    2  A    between atoms: C_6  and  N_9
REMARK    3  A    between atoms: C_7  and  C_8
REMARK    4  A    between atoms: C_16  and  N_33
REMARK    5  A    between atoms: C_17  and  N_21
REMARK    6  A    between atoms: N_21  and  C_22
REMARK    7  A    between atoms: C_26  and  C_28
REMARK                            x       y       z     vdW  Elec       q    Type
REMARK                         _______ _______ _______ _____ _____    ______ ____
ROOT
ATOM      1  N   UNL     1       1.095  -2.885   2.433  0.00  0.00    -0.327 N 
ATOM      2  C   UNL     1      -0.176  -2.942   3.168  0.00  0.00    +0.124 C 
ATOM      3  C   UNL     1      -0.550  -4.413   3.387  0.00  0.00    +0.125 C 
ATOM      4  N   UNL     1       0.617  -5.119   3.933  0.00  0.00    -0.310 N 
ATOM      5  C   UNL     1       1.888  -5.062   3.198  0.00  0.00    +0.125 C 
ATOM      6  C   UNL     1       2.261  -3.595   2.977  0.00  0.00    +0.124 C 
ATOM      7  C   UNL     1       0.521  -5.825   5.122  0.00  0.00    +0.157 A 
ATOM      8  C   UNL     1       0.178  -7.174   5.117  0.00  0.00    +0.206 A 
ATOM      9  C   UNL     1       0.096  -7.838   6.337  0.00  0.00    +0.159 A 
ATOM     10  N   UNL     1       0.346  -7.164   7.458  0.00  0.00    -0.218 NA
ATOM     11  C   UNL     1       0.668  -5.887   7.421  0.00  0.00    +0.225 A 
ATOM     12  N   UNL     1       0.761  -5.224   6.287  0.00  0.00    -0.218 NA
ENDROOT
BRANCH   1  18
ATOM     13  C   UNL     1       2.043   1.323   0.077  0.00  0.00    +0.044 C 
ATOM     14  C   UNL     1       1.650  -0.132   0.063  0.00  0.00    -0.046 A 
ATOM     15  C   UNL     1       1.383  -0.763  -1.138  0.00  0.00    +0.004 A 
ATOM     16  C   UNL     1       1.021  -2.098  -1.156  0.00  0.00    +0.002 A 
ATOM     17  C   UNL     1       0.924  -2.804   0.027  0.00  0.00    +0.023 A 
ATOM     18  C   UNL     1       1.192  -2.173   1.235  0.00  0.00    +0.033 A 
ATOM     19  C   UNL     1       1.560  -0.834   1.248  0.00  0.00    -0.027 A 
ATOM     20  C   UNL     1       1.857  -0.146   2.556  0.00  0.00    +0.046 C 
ENDBRANCH   1  18
BRANCH   8  21
ATOM     21  N   UNL     1      -0.092  -7.883   3.846  0.00  0.00    +0.063 N 
ATOM     22  O   UNL     1       0.810  -8.429   3.254  0.00  0.00    -0.126 OA
ATOM     23  O   UNL     1      -1.215  -7.917   3.400  0.00  0.00    -0.126 OA
ENDBRANCH   8  21
BRANCH   9  24
ATOM     24  N   UNL     1      -0.243  -9.182   6.384  0.00  0.00    -0.297 N 
ATOM     25  H   UNL     1      -0.348  -9.686   5.562  0.00  0.00    +0.154 HD
BRANCH  24  26
ATOM     26  C   UNL     1      -0.432  -9.812   7.619  0.00  0.00    +0.033 A 
ATOM     27  C   UNL     1      -0.949  -9.099   8.692  0.00  0.00    +0.025 A 
ATOM     28  C   UNL     1      -1.135  -9.723   9.909  0.00  0.00    +0.022 A 
ATOM     29  C   UNL     1      -0.806 -11.059  10.061  0.00  0.00    +0.053 A 
ATOM     30  C   UNL     1      -0.290 -11.772   8.993  0.00  0.00    +0.075 A 
ATOM     31  C   UNL     1      -0.108 -11.154   7.772  0.00  0.00    +0.037 A 
ATOM     32 CL   UNL     1      -1.039 -11.840  11.593  0.00  0.00    -0.083 Cl
BRANCH  30  33
ATOM     33  C   UNL     1       0.068 -13.226   9.162  0.00  0.00    +0.419 C 
ATOM     34  F   UNL     1       0.565 -13.727   7.955  0.00  0.00    -0.166 F 
ATOM     35  F   UNL     1       1.043 -13.354  10.157  0.00  0.00    -0.166 F 
ATOM     36  F   UNL     1      -1.073 -13.947   9.531  0.00  0.00    -0.166 F 
ENDBRANCH  30  33
ENDBRANCH  24  26
ENDBRANCH   9  24
TORSDOF 5
