REMARK  Name = ZINC16321243
REMARK  10 active torsions:
REMARK  status: ('A' for Active; 'I' for Inactive)
REMARK    1  A    between atoms: C_1  and  C_2
REMARK    2  A    between atoms: N_4  and  C_5
REMARK    3  A    between atoms: C_8  and  S_11
REMARK    4  A    between atoms: S_11  and  N_14
REMARK    5  A    between atoms: N_14  and  C_15
REMARK    6  A    between atoms: N_14  and  C_16
REMARK    7  A    between atoms: C_16  and  C_17
REMARK    8  A    between atoms: N_19  and  N_20
REMARK    9  A    between atoms: C_21  and  C_22
REMARK   10  A    between atoms: C_27  and  O_28
REMARK                            x       y       z     vdW  Elec       q    Type
REMARK                         _______ _______ _______ _____ _____    ______ ____
ROOT
ATOM      1  N   UNL     1      -1.903  -7.000  -1.012  0.00  0.00    -0.171 NA
ATOM      2  C   UNL     1      -2.565  -7.227  -2.299  0.00  0.00    +0.132 C 
ENDROOT
BRANCH   1   3
ATOM      3  S   UNL     1      -0.300  -6.589  -0.966  0.00  0.00    +0.061 S 
ATOM      4  O   UNL     1       0.277  -7.066  -2.173  0.00  0.00    -0.153 OA
ATOM      5  O   UNL     1       0.182  -6.976   0.314  0.00  0.00    -0.153 OA
BRANCH   3   9
ATOM      6  C   UNL     1      -0.071  -2.068  -1.121  0.00  0.00    +0.033 A 
ATOM      7  C   UNL     1      -0.152  -2.719   0.103  0.00  0.00    +0.025 A 
ATOM      8  C   UNL     1      -0.222  -4.098   0.147  0.00  0.00    +0.030 A 
ATOM      9  C   UNL     1      -0.211  -4.830  -1.026  0.00  0.00    +0.106 A 
ATOM     10  C   UNL     1      -0.130  -4.185  -2.246  0.00  0.00    +0.030 A 
ATOM     11  C   UNL     1      -0.066  -2.806  -2.297  0.00  0.00    +0.025 A 
BRANCH   6  15
ATOM     12  C   UNL     1      -0.617   1.507  -2.165  0.00  0.00    +0.109 C 
ATOM     13  C   UNL     1      -0.604  -0.000  -2.169  0.00  0.00    +0.214 C 
ATOM     14  O   UNL     1      -1.137  -0.609  -3.073  0.00  0.00    -0.276 OA
ATOM     15  N   UNL     1       0.000  -0.672  -1.169  0.00  0.00    -0.286 N 
ATOM     16  H   UNL     1       0.484  -0.187  -0.482  0.00  0.00    +0.155 HD
ENDBRANCH   6  15
ENDBRANCH   3   9
ENDBRANCH   1   3
BRANCH   1  17
ATOM     17  C   UNL     1      -2.661  -7.135   0.235  0.00  0.00    +0.206 C 
BRANCH  17  18
ATOM     18  C   UNL     1      -3.372  -5.840   0.534  0.00  0.00    +0.248 C 
ATOM     19  O   UNL     1      -3.256  -4.897  -0.219  0.00  0.00    -0.273 OA
ATOM     20  N   UNL     1      -4.135  -5.731   1.640  0.00  0.00    -0.206 N 
ATOM     21  H   UNL     1      -4.227  -6.485   2.242  0.00  0.00    +0.177 HD
BRANCH  20  22
ATOM     22  N   UNL     1      -4.795  -4.527   1.918  0.00  0.00    -0.188 NA
ATOM     23  C   UNL     1      -5.531  -4.421   2.983  0.00  0.00    +0.142 C 
BRANCH  23  24
ATOM     24  C   UNL     1      -6.226  -3.155   3.276  0.00  0.00    +0.037 A 
ATOM     25  C   UNL     1      -7.013  -3.035   4.423  0.00  0.00    +0.028 A 
ATOM     26  C   UNL     1      -7.660  -1.847   4.692  0.00  0.00    +0.019 A 
ATOM     27  C   UNL     1      -7.533  -0.772   3.827  0.00  0.00    +0.019 A 
ATOM     28  C   UNL     1      -6.757  -0.878   2.689  0.00  0.00    +0.047 A 
ATOM     29  C   UNL     1      -6.095  -2.063   2.408  0.00  0.00    +0.126 A 
ATOM     30 BR   UNL     1      -8.726  -1.685   6.245  0.00  0.00    -0.050 Br
BRANCH  29  31
ATOM     31  O   UNL     1      -5.328  -2.166   1.292  0.00  0.00    -0.506 OA
ATOM     32  H   UNL     1      -5.808  -2.476   0.511  0.00  0.00    +0.292 HD
ENDBRANCH  29  31
ENDBRANCH  23  24
ENDBRANCH  20  22
ENDBRANCH  17  18
ENDBRANCH   1  17
TORSDOF 8
