REMARK  Name = ZINC39672223
REMARK  6 active torsions:
REMARK  status: ('A' for Active; 'I' for Inactive)
REMARK    1  A    between atoms: C_1  and  C_2
REMARK    2  A    between atoms: C_5  and  C_10
REMARK    3  A    between atoms: C_14  and  C_23
REMARK    4  A    between atoms: N_25  and  C_26
REMARK    5  A    between atoms: C_26  and  C_27
REMARK    6  A    between atoms: N_36  and  C_37
REMARK                            x       y       z     vdW  Elec       q    Type
REMARK                         _______ _______ _______ _____ _____    ______ ____
ROOT
ATOM      1  C   UNL     1       0.558  -4.301   0.267  0.00  0.00    +0.250 C 
ATOM      2  O   UNL     1       0.732  -4.986   1.256  0.00  0.00    -0.270 OA
ATOM      3  N   UNL     1       0.370  -4.886  -0.933  0.00  0.00    -0.296 N 
ATOM      4  C   UNL     1       0.251  -4.229  -2.256  0.00  0.00    +0.121 C 
ATOM      5  C   UNL     1       1.025  -5.152  -3.222  0.00  0.00    +0.100 C 
ATOM      6  C   UNL     1       1.012  -6.531  -2.543  0.00  0.00    -0.004 C 
ATOM      7  C   UNL     1       0.243  -6.334  -1.228  0.00  0.00    +0.115 C 
ATOM      8  C   UNL     1       2.437  -6.991  -2.250  0.00  0.00    -0.010 C 
ATOM      9  C   UNL     1       2.400  -8.389  -1.627  0.00  0.00    -0.082 C 
ATOM     10  N   UNL     1       1.744  -9.321  -2.552  0.00  0.00    +0.379 N 
ATOM     11  C   UNL     1       0.345  -8.924  -2.756  0.00  0.00    -0.082 C 
ATOM     12  C   UNL     1       0.296  -7.548  -3.426  0.00  0.00    -0.010 C 
ATOM     13  H   UNL     1       2.227  -9.310  -3.438  0.00  0.00    -0.086 HD
ATOM     14  H   UNL     1       1.775 -10.253  -2.167  0.00  0.00    -0.086 HD
ENDROOT
BRANCH   1  19
ATOM     15  C   UNL     1       0.527   1.439   0.701  0.00  0.00    +0.047 C 
ATOM     16  C   UNL     1       0.537  -0.064   0.589  0.00  0.00    -0.012 A 
ATOM     17  C   UNL     1      -0.280  -0.691  -0.337  0.00  0.00    +0.007 A 
ATOM     18  C   UNL     1      -0.278  -2.065  -0.446  0.00  0.00    +0.016 A 
ATOM     19  C   UNL     1       0.552  -2.829   0.379  0.00  0.00    +0.075 A 
ATOM     20  C   UNL     1       1.375  -2.192   1.312  0.00  0.00    +0.171 A 
ATOM     21  C   UNL     1       1.366  -0.810   1.407  0.00  0.00    +0.162 A 
ATOM     22  F   UNL     1       2.165  -0.190   2.304  0.00  0.00    -0.202 F 
ATOM     23  F   UNL     1       2.180  -2.922   2.115  0.00  0.00    -0.202 F 
ENDBRANCH   1  19
BRANCH   5  24
ATOM     24  C   UNL     1       2.441  -4.663  -3.393  0.00  0.00    +0.218 C 
ATOM     25  O   UNL     1       2.986  -4.058  -2.495  0.00  0.00    -0.275 OA
ATOM     26  N   UNL     1       3.100  -4.897  -4.545  0.00  0.00    -0.311 N 
ATOM     27  H   UNL     1       2.664  -5.381  -5.264  0.00  0.00    +0.149 HD
BRANCH  26  28
ATOM     28  C   UNL     1       4.476  -4.422  -4.712  0.00  0.00    +0.139 C 
BRANCH  28  29
ATOM     29  C   UNL     1       4.980  -4.811  -6.077  0.00  0.00    -0.030 A 
ATOM     30  C   UNL     1       5.617  -6.026  -6.257  0.00  0.00    +0.007 A 
ATOM     31  C   UNL     1       6.080  -6.381  -7.508  0.00  0.00    +0.024 A 
ATOM     32  C   UNL     1       5.905  -5.519  -8.586  0.00  0.00    +0.033 A 
ATOM     33  C   UNL     1       5.264  -4.304  -8.405  0.00  0.00    -0.026 A 
ATOM     34  C   UNL     1       4.800  -3.957  -7.147  0.00  0.00    +0.010 A 
ATOM     35  C   UNL     1       5.048  -3.351  -9.551  0.00  0.00    +0.038 C 
ATOM     36  C   UNL     1       6.024  -3.650 -10.688  0.00  0.00    +0.024 C 
ATOM     37  C   UNL     1       5.947  -5.144 -11.027  0.00  0.00    +0.105 C 
ATOM     38  N   UNL     1       6.386  -5.897  -9.844  0.00  0.00    -0.333 N 
ATOM     39  C   UNL     1       7.313  -7.023  -9.980  0.00  0.00    +0.129 C 
ENDBRANCH  28  29
ENDBRANCH  26  28
ENDBRANCH   5  24
TORSDOF 4
