REMARK  Name = ZINC21470567
REMARK  8 active torsions:
REMARK  status: ('A' for Active; 'I' for Inactive)
REMARK    1  A    between atoms: C_1  and  C_2
REMARK    2  A    between atoms: C_5  and  N_9
REMARK    3  A    between atoms: C_10  and  C_12
REMARK    4  A    between atoms: C_12  and  O_13
REMARK    5  A    between atoms: O_13  and  C_14
REMARK    6  A    between atoms: C_14  and  C_16
REMARK    7  A    between atoms: C_19  and  N_23
REMARK    8  A    between atoms: C_21  and  N_22
REMARK                            x       y       z     vdW  Elec       q    Type
REMARK                         _______ _______ _______ _____ _____    ______ ____
ROOT
ATOM      1  O   UNL     1       7.078   0.108  -1.050  0.00  0.00    -0.452 OA
ENDROOT
BRANCH   1   2
ATOM      2  C   UNL     1       8.311  -0.417  -1.191  0.00  0.00    +0.341 C 
ATOM      3  O   UNL     1       8.504  -1.592  -0.946  0.00  0.00    -0.245 OA
BRANCH   2   4
ATOM      4  C   UNL     1       9.426   0.434  -1.642  0.00  0.00    +0.080 A 
ATOM      5  C   UNL     1       9.239   1.809  -1.806  0.00  0.00    +0.019 A 
ATOM      6  C   UNL     1      10.286   2.599  -2.228  0.00  0.00    +0.033 A 
ATOM      7  C   UNL     1      11.526   2.037  -2.492  0.00  0.00    +0.128 A 
ATOM      8  C   UNL     1      11.726   0.681  -2.334  0.00  0.00    +0.056 A 
ATOM      9  C   UNL     1      10.684  -0.131  -1.904  0.00  0.00    +0.041 A 
BRANCH   9  10
ATOM     10  N   UNL     1      10.885  -1.495  -1.739  0.00  0.00    -0.357 N 
ATOM     11  H   UNL     1      11.872  -1.934  -1.946  0.00  0.00    +0.142 HD
ATOM     12  H   UNL     1      10.057  -2.136  -1.402  0.00  0.00    +0.142 HD
ENDBRANCH   9  10
BRANCH   7  13
ATOM     13  N   UNL     1      12.642   2.898  -2.944  0.00  0.00    +0.056 N 
ATOM     14  O   UNL     1      12.469   4.096  -3.084  0.00  0.00    -0.126 OA
ATOM     15  O   UNL     1      13.732   2.409  -3.177  0.00  0.00    -0.126 OA
ENDBRANCH   7  13
ENDBRANCH   2   4
ENDBRANCH   1   2
BRANCH   1  16
ATOM     16  C   UNL     1       6.027  -0.789  -0.602  0.00  0.00    +0.328 C 
BRANCH  16  18
ATOM     17  N   UNL     1       3.608  -0.665  -0.104  0.00  0.00    -0.281 N 
ATOM     18  C   UNL     1       4.728  -0.032  -0.503  0.00  0.00    +0.255 C 
ATOM     19  O   UNL     1       4.691   1.148  -0.783  0.00  0.00    -0.272 OA
ATOM     20  H   UNL     1       3.652  -1.720   0.204  0.00  0.00    +0.155 HD
BRANCH  17  25
ATOM     21  C   UNL     1      -1.339   2.115  -0.012  0.00  0.00    +0.044 C 
ATOM     22  C   UNL     1      -0.028   1.373  -0.039  0.00  0.00    -0.048 A 
ATOM     23  C   UNL     1       0.335   0.575   1.030  0.00  0.00    +0.020 A 
ATOM     24  C   UNL     1       1.539  -0.103   1.012  0.00  0.00    +0.040 A 
ATOM     25  C   UNL     1       2.387   0.020  -0.082  0.00  0.00    +0.062 A 
ATOM     26  C   UNL     1       2.019   0.823  -1.154  0.00  0.00    +0.040 A 
ATOM     27  C   UNL     1       0.813   1.497  -1.129  0.00  0.00    +0.020 A 
ATOM     28 BR   UNL     1       3.168   0.993  -2.647  0.00  0.00    -0.048 Br
ATOM     29 BR   UNL     1       2.033  -1.195   2.474  0.00  0.00    -0.048 Br
ENDBRANCH  17  25
ENDBRANCH  16  18
ENDBRANCH   1  16
TORSDOF 7
