REMARK  Name = ZINC01063861
REMARK  6 active torsions:
REMARK  status: ('A' for Active; 'I' for Inactive)
REMARK    1  A    between atoms: C_4  and  N_25
REMARK    2  A    between atoms: C_5  and  C_7
REMARK    3  A    between atoms: N_9  and  C_10
REMARK    4  A    between atoms: C_10  and  N_12
REMARK    5  A    between atoms: N_12  and  C_13
REMARK    6  A    between atoms: C_18  and  N_19
REMARK                            x       y       z     vdW  Elec       q    Type
REMARK                         _______ _______ _______ _____ _____    ______ ____
ROOT
ATOM      1  C   UNL     1      -4.736   0.139  -0.198  0.00  0.00    +0.141 C 
ATOM      2  S   UNL     1      -4.797   1.413  -1.341  0.00  0.00    -0.018 S 
ENDROOT
BRANCH   1   5
ATOM      3  C   UNL     1      -2.536  -0.322  -0.830  0.00  0.00    +0.252 C 
ATOM      4  O   UNL     1      -2.580   0.582  -1.641  0.00  0.00    -0.270 OA
ATOM      5  N   UNL     1      -3.612  -0.593  -0.064  0.00  0.00    -0.264 N 
ATOM      6  H   UNL     1      -3.578  -1.314   0.583  0.00  0.00    +0.157 HD
BRANCH   3  11
ATOM      7  C   UNL     1       0.457  -1.998   0.697  0.00  0.00    +0.001 A 
ATOM      8  C   UNL     1       1.006  -2.627  -0.407  0.00  0.00    +0.002 A 
ATOM      9  C   UNL     1       0.403  -2.512  -1.647  0.00  0.00    +0.033 A 
ATOM     10  C   UNL     1      -0.746  -1.761  -1.792  0.00  0.00    +0.138 A 
ATOM     11  C   UNL     1      -1.304  -1.124  -0.683  0.00  0.00    +0.067 A 
ATOM     12  C   UNL     1      -0.693  -1.248   0.567  0.00  0.00    +0.015 A 
BRANCH  10  13
ATOM     13  N   UNL     1      -1.387  -1.635  -3.120  0.00  0.00    +0.057 N 
ATOM     14  O   UNL     1      -0.839  -2.094  -4.107  0.00  0.00    -0.126 OA
ATOM     15  O   UNL     1      -2.465  -1.078  -3.226  0.00  0.00    -0.126 OA
ENDBRANCH  10  13
ENDBRANCH   3  11
ENDBRANCH   1   5
BRANCH   1  16
ATOM     16  N   UNL     1      -5.812  -0.132   0.567  0.00  0.00    -0.295 N 
ATOM     17  H   UNL     1      -5.757  -0.811   1.257  0.00  0.00    +0.154 HD
BRANCH  16  18
ATOM     18  C   UNL     1      -7.009   0.568   0.366  0.00  0.00    +0.055 A 
ATOM     19  C   UNL     1      -6.992   1.948   0.225  0.00  0.00    +0.025 A 
ATOM     20  C   UNL     1      -8.174   2.637   0.028  0.00  0.00    +0.003 A 
ATOM     21  C   UNL     1      -9.376   1.955  -0.032  0.00  0.00    +0.022 A 
ATOM     22  C   UNL     1      -9.402   0.579   0.107  0.00  0.00    +0.064 A 
ATOM     23  C   UNL     1      -8.219  -0.121   0.300  0.00  0.00    +0.070 A 
ATOM     24 CL   UNL     1     -10.913  -0.273   0.032  0.00  0.00    -0.082 Cl
BRANCH  23  25
ATOM     25  N   UNL     1      -8.242  -1.514   0.436  0.00  0.00    -0.327 N 
ATOM     26  C   UNL     1      -7.312  -2.158  -0.528  0.00  0.00    +0.105 C 
ATOM     27  C   UNL     1      -7.070  -3.557   0.094  0.00  0.00    +0.020 C 
ATOM     28  C   UNL     1      -7.027  -3.258   1.610  0.00  0.00    +0.020 C 
ATOM     29  C   UNL     1      -7.778  -1.924   1.779  0.00  0.00    +0.105 C 
ENDBRANCH  23  25
ENDBRANCH  16  18
ENDBRANCH   1  16
TORSDOF 6
