REMARK  Name = ZINC39663807
REMARK  11 active torsions:
REMARK  status: ('A' for Active; 'I' for Inactive)
REMARK    1  A    between atoms: C_1  and  C_2
REMARK    2  A    between atoms: C_6  and  C_9
REMARK    3  A    between atoms: C_13  and  C_22
REMARK    4  A    between atoms: N_24  and  C_25
REMARK    5  A    between atoms: C_25  and  C_26
REMARK    6  A    between atoms: C_26  and  C_28
REMARK    7  A    between atoms: C_26  and  N_36
REMARK    8  A    between atoms: C_31  and  O_34
REMARK    9  A    between atoms: O_34  and  C_35
REMARK   10  A    between atoms: N_36  and  C_37
REMARK   11  A    between atoms: N_36  and  C_38
REMARK                            x       y       z     vdW  Elec       q    Type
REMARK                         _______ _______ _______ _____ _____    ______ ____
ROOT
ATOM      1  C   UNL     1       0.246  -4.295   1.855  0.00  0.00    +0.251 C 
ATOM      2  O   UNL     1       1.256  -4.807   2.299  0.00  0.00    -0.270 OA
ATOM      3  N   UNL     1      -0.935  -4.489   2.474  0.00  0.00    -0.296 N 
ATOM      4  C   UNL     1      -2.263  -3.959   2.083  0.00  0.00    +0.121 C 
ATOM      5  C   UNL     1      -3.244  -5.121   2.358  0.00  0.00    +0.100 C 
ATOM      6  C   UNL     1      -2.542  -5.984   3.419  0.00  0.00    -0.004 C 
ATOM      7  C   UNL     1      -1.202  -5.287   3.694  0.00  0.00    +0.115 C 
ATOM      8  C   UNL     1      -2.297  -7.390   2.879  0.00  0.00    -0.010 C 
ATOM      9  C   UNL     1      -1.650  -8.246   3.972  0.00  0.00    -0.082 C 
ATOM     10  N   UNL     1      -2.533  -8.297   5.144  0.00  0.00    +0.379 N 
ATOM     11  C   UNL     1      -2.689  -6.952   5.712  0.00  0.00    -0.082 C 
ATOM     12  C   UNL     1      -3.380  -6.042   4.693  0.00  0.00    -0.010 C 
ATOM     13  H   UNL     1      -3.437  -8.650   4.867  0.00  0.00    -0.086 HD
ATOM     14  H   UNL     1      -2.134  -8.910   5.838  0.00  0.00    -0.086 HD
ENDROOT
BRANCH   1  20
ATOM     15  C   UNL     1       0.850   0.172  -0.293  0.00  0.00    +0.047 C 
ATOM     16  C   UNL     1       0.604  -1.311  -0.401  0.00  0.00    -0.014 A 
ATOM     17  C   UNL     1       0.442  -1.894  -1.645  0.00  0.00    +0.007 A 
ATOM     18  C   UNL     1       0.216  -3.255  -1.754  0.00  0.00    +0.021 A 
ATOM     19  C   UNL     1       0.151  -4.042  -0.621  0.00  0.00    +0.056 A 
ATOM     20  C   UNL     1       0.315  -3.461   0.639  0.00  0.00    +0.091 A 
ATOM     21  C   UNL     1       0.548  -2.085   0.742  0.00  0.00    +0.140 A 
ATOM     22  F   UNL     1       0.713  -1.515   1.956  0.00  0.00    -0.204 F 
ATOM     23 CL   UNL     1      -0.134  -5.748  -0.763  0.00  0.00    -0.083 Cl
ENDBRANCH   1  20
BRANCH   5  24
ATOM     24  C   UNL     1      -4.550  -4.591   2.889  0.00  0.00    +0.218 C 
ATOM     25  O   UNL     1      -4.567  -3.576   3.554  0.00  0.00    -0.275 OA
ATOM     26  N   UNL     1      -5.699  -5.244   2.627  0.00  0.00    -0.316 N 
ATOM     27  H   UNL     1      -5.686  -6.056   2.096  0.00  0.00    +0.149 HD
BRANCH  26  28
ATOM     28  C   UNL     1      -6.969  -4.728   3.144  0.00  0.00    +0.093 C 
BRANCH  28  29
ATOM     29  C   UNL     1      -8.093  -5.713   2.812  0.00  0.00    -0.021 C 
BRANCH  29  30
ATOM     30  C   UNL     1      -7.850  -7.014   3.533  0.00  0.00    -0.059 A 
ATOM     31  C   UNL     1      -8.190  -7.137   4.867  0.00  0.00    +0.005 A 
ATOM     32  C   UNL     1      -7.968  -8.328   5.530  0.00  0.00    +0.046 A 
ATOM     33  C   UNL     1      -7.404  -9.402   4.856  0.00  0.00    +0.120 A 
ATOM     34  C   UNL     1      -7.064  -9.275   3.517  0.00  0.00    +0.046 A 
ATOM     35  C   UNL     1      -7.293  -8.084   2.857  0.00  0.00    +0.005 A 
BRANCH  33  36
ATOM     36  O   UNL     1      -7.185 -10.575   5.506  0.00  0.00    -0.495 OA
ATOM     37  C   UNL     1      -6.601 -11.637   4.749  0.00  0.00    +0.277 C 
ENDBRANCH  33  36
ENDBRANCH  29  30
BRANCH  29  38
ATOM     38  N   UNL     1      -9.380  -5.149   3.239  0.00  0.00    +0.382 N 
ATOM     39  C   UNL     1      -9.636  -3.902   2.506  0.00  0.00    -0.096 C 
ATOM     40  C   UNL     1     -10.454  -6.112   2.958  0.00  0.00    -0.096 C 
ATOM     41  H   UNL     1      -9.351  -4.957   4.229  0.00  0.00    -0.082 HD
ENDBRANCH  29  38
ENDBRANCH  28  29
ENDBRANCH  26  28
ENDBRANCH   5  24
TORSDOF 7
