REMARK  Name = ZINC14356934
REMARK  6 active torsions:
REMARK  status: ('A' for Active; 'I' for Inactive)
REMARK    1  A    between atoms: C_9  and  S_11
REMARK    2  A    between atoms: S_11  and  C_12
REMARK    3  A    between atoms: C_12  and  C_13
REMARK    4  A    between atoms: N_15  and  C_16
REMARK    5  A    between atoms: C_20  and  S_22
REMARK    6  A    between atoms: S_22  and  N_25
REMARK                            x       y       z     vdW  Elec       q    Type
REMARK                         _______ _______ _______ _____ _____    ______ ____
ROOT
ATOM      1  C   UNL     1      -1.975  -6.368   0.075  0.00  0.00    +0.035 A 
ATOM      2  C   UNL     1      -0.809  -7.119   0.161  0.00  0.00    +0.023 A 
ATOM      3  C   UNL     1      -0.881  -8.495   0.243  0.00  0.00    +0.004 A 
ATOM      4  C   UNL     1      -2.111  -9.127   0.238  0.00  0.00    +0.029 A 
ATOM      5  C   UNL     1      -3.273  -8.383   0.152  0.00  0.00    +0.114 A 
ATOM      6  C   UNL     1      -3.209  -7.005   0.077  0.00  0.00    +0.052 A 
ENDROOT
BRANCH   1   9
ATOM      7  C   UNL     1      -2.846  -4.215   0.590  0.00  0.00    +0.227 C 
ATOM      8  O   UNL     1      -3.797  -4.741   1.128  0.00  0.00    -0.275 OA
ATOM      9  N   UNL     1      -1.906  -4.973  -0.009  0.00  0.00    -0.285 N 
ATOM     10  H   UNL     1      -1.181  -4.551  -0.497  0.00  0.00    +0.155 HD
BRANCH   7  11
ATOM     11  C   UNL     1      -2.716  -2.713   0.589  0.00  0.00    +0.170 C 
BRANCH  11  12
ATOM     12  S   UNL     1      -4.127  -1.984   1.466  0.00  0.00    -0.115 S 
BRANCH  12  21
ATOM     13  C   UNL     1      -2.468   1.603   0.664  0.00  0.00    +0.002 A 
ATOM     14  C   UNL     1      -3.328   2.500   1.222  0.00  0.00    +0.008 A 
ATOM     15  C   UNL     1      -4.482   2.049   1.885  0.00  0.00    -0.015 A 
ATOM     16  C   UNL     1      -5.386   2.952   2.469  0.00  0.00    +0.008 A 
ATOM     17  C   UNL     1      -6.495   2.481   3.104  0.00  0.00    +0.002 A 
ATOM     18  C   UNL     1      -6.748   1.113   3.184  0.00  0.00    +0.020 A 
ATOM     19  C   UNL     1      -5.893   0.208   2.629  0.00  0.00    +0.050 A 
ATOM     20  C   UNL     1      -4.740   0.658   1.966  0.00  0.00    +0.014 A 
ATOM     21  C   UNL     1      -3.831  -0.249   1.379  0.00  0.00    +0.017 A 
ATOM     22  C   UNL     1      -2.710   0.235   0.737  0.00  0.00    +0.015 A 
ATOM     23 CL   UNL     1      -6.228  -1.491   2.741  0.00  0.00    -0.083 Cl
ENDBRANCH  12  21
ENDBRANCH  11  12
ENDBRANCH   7  11
ENDBRANCH   1   9
BRANCH   5  24
ATOM     24  S   UNL     1      -4.838  -9.192   0.146  0.00  0.00    +0.100 S 
ATOM     25  O   UNL     1      -5.750  -8.308  -0.492  0.00  0.00    -0.146 OA
ATOM     26  O   UNL     1      -4.609 -10.515  -0.317  0.00  0.00    -0.146 OA
BRANCH  24  27
ATOM     27  N   UNL     1      -5.329  -9.321   1.723  0.00  0.00    -0.118 NA
ATOM     28  C   UNL     1      -6.459  -9.883   2.005  0.00  0.00    +0.117 C 
ATOM     29  N   UNL     1      -7.286 -10.397   0.994  0.00  0.00    -0.331 N 
ATOM     30  C   UNL     1      -7.441 -11.821   0.937  0.00  0.00    +0.102 C 
ATOM     31  C   UNL     1      -8.583 -12.405   1.785  0.00  0.00    +0.019 C 
ATOM     32  C   UNL     1      -8.642 -11.706   3.167  0.00  0.00    +0.002 C 
ATOM     33  C   UNL     1      -7.282 -11.445   3.752  0.00  0.00    +0.008 C 
ATOM     34  C   UNL     1      -6.912 -10.008   3.374  0.00  0.00    +0.073 C 
ATOM     35  H   UNL     1      -7.734  -9.813   0.362  0.00  0.00    +0.147 HD
ENDBRANCH  24  27
ENDBRANCH   5  24
TORSDOF 6
