REMARK  Name = ZINC12999523
REMARK  7 active torsions:
REMARK  status: ('A' for Active; 'I' for Inactive)
REMARK    1  A    between atoms: C_3  and  O_26
REMARK    2  A    between atoms: C_6  and  C_7
REMARK    3  A    between atoms: C_7  and  C_8
REMARK    4  A    between atoms: C_8  and  C_9
REMARK    5  A    between atoms: N_11  and  C_12
REMARK    6  A    between atoms: C_17  and  N_18
REMARK    7  A    between atoms: O_26  and  C_27
REMARK                            x       y       z     vdW  Elec       q    Type
REMARK                         _______ _______ _______ _____ _____    ______ ____
ROOT
ATOM      1  C   UNL     1       1.213  -4.193  -1.488  0.00  0.00    +0.218 C 
ATOM      2  O   UNL     1       1.246  -4.800  -0.439  0.00  0.00    -0.275 OA
ATOM      3  N   UNL     1       1.213  -4.866  -2.656  0.00  0.00    -0.284 N 
ATOM      4  H   UNL     1       1.123  -4.385  -3.493  0.00  0.00    +0.155 HD
ENDROOT
BRANCH   3   5
ATOM      5  C   UNL     1       1.344  -6.261  -2.661  0.00  0.00    +0.068 A 
ATOM      6  C   UNL     1       0.770  -7.016  -1.645  0.00  0.00    +0.075 A 
ATOM      7  C   UNL     1       0.900  -8.393  -1.658  0.00  0.00    +0.164 A 
ATOM      8  C   UNL     1       1.609  -9.017  -2.675  0.00  0.00    +0.164 A 
ATOM      9  C   UNL     1       2.184  -8.264  -3.685  0.00  0.00    +0.084 A 
ATOM     10  C   UNL     1       2.052  -6.888  -3.677  0.00  0.00    +0.151 A 
ATOM     11  O   UNL     1       1.735 -10.376  -2.674  0.00  0.00    -0.488 OA
ATOM     12  C   UNL     1       0.535 -11.115  -2.914  0.00  0.00    +0.232 C 
ATOM     13  C   UNL     1      -0.252 -11.299  -1.626  0.00  0.00    +0.082 C 
ATOM     14  C   UNL     1      -0.755  -9.979  -1.062  0.00  0.00    +0.232 C 
ATOM     15  O   UNL     1       0.337  -9.146  -0.669  0.00  0.00    -0.488 OA
BRANCH  10  16
ATOM     16  N   UNL     1       2.667  -6.080  -4.755  0.00  0.00    +0.058 N 
ATOM     17  O   UNL     1       3.201  -6.633  -5.700  0.00  0.00    -0.126 OA
ATOM     18  O   UNL     1       2.638  -4.864  -4.697  0.00  0.00    -0.126 OA
ENDBRANCH  10  16
ENDBRANCH   3   5
BRANCH   1  19
ATOM     19  C   UNL     1       1.172  -2.687  -1.486  0.00  0.00    +0.101 C 
BRANCH  19  20
ATOM     20  C   UNL     1       1.180  -2.178  -0.044  0.00  0.00    +0.044 C 
BRANCH  20  26
ATOM     21  C   UNL     1      -0.077  -0.015  -0.022  0.00  0.00    +0.007 A 
ATOM     22  C   UNL     1      -0.118   1.366  -0.021  0.00  0.00    +0.046 A 
ATOM     23  C   UNL     1       1.063   2.094  -0.038  0.00  0.00    +0.127 A 
ATOM     24  C   UNL     1       2.282   1.432  -0.058  0.00  0.00    +0.046 A 
ATOM     25  C   UNL     1       2.318   0.051  -0.060  0.00  0.00    +0.007 A 
ATOM     26  C   UNL     1       1.139  -0.671  -0.042  0.00  0.00    -0.047 A 
BRANCH  23  27
ATOM     27  O   UNL     1       1.026   3.452  -0.037  0.00  0.00    -0.434 OA
BRANCH  27  28
ATOM     28  C   UNL     1       2.281   4.136  -0.056  0.00  0.00    +0.541 C 
ATOM     29  F   UNL     1       3.023   3.779   1.075  0.00  0.00    -0.166 F 
ATOM     30  F   UNL     1       2.988   3.780  -1.209  0.00  0.00    -0.166 F 
ENDBRANCH  27  28
ENDBRANCH  23  27
ENDBRANCH  20  26
ENDBRANCH  19  20
ENDBRANCH   1  19
TORSDOF 7
