REMARK  Name = ZINC35998747
REMARK  5 active torsions:
REMARK  status: ('A' for Active; 'I' for Inactive)
REMARK    1  A    between atoms: C_3  and  C_28
REMARK    2  A    between atoms: C_5  and  C_7
REMARK    3  A    between atoms: C_7  and  C_17
REMARK    4  A    between atoms: C_20  and  O_23
REMARK    5  A    between atoms: O_23  and  C_24
REMARK                            x       y       z     vdW  Elec       q    Type
REMARK                         _______ _______ _______ _____ _____    ______ ____
ROOT
ATOM      1  C   UNL     1       1.219  -2.192  -0.022  0.00  0.00    +0.168 C 
ATOM      2  C   UNL     1       0.509  -3.177  -0.912  0.00  0.00    +0.114 C 
ATOM      3  N   UNL     1      -0.679  -3.659  -0.835  0.00  0.00    -0.373 N 
ATOM      4  C   UNL     1      -1.122  -4.637  -1.836  0.00  0.00    +0.115 C 
ATOM      5  C   UNL     1      -0.440  -4.372  -3.179  0.00  0.00    +0.040 C 
ATOM      6  C   UNL     1       1.086  -4.413  -3.001  0.00  0.00    +0.116 C 
ATOM      7  N   UNL     1       1.421  -3.491  -1.904  0.00  0.00    -0.261 N 
ATOM      8  C   UNL     1       2.593  -2.825  -1.685  0.00  0.00    +0.182 C 
ATOM      9  N   UNL     1       2.554  -2.063  -0.633  0.00  0.00    -0.232 NA
ATOM     10  N   UNL     1       3.698  -2.948  -2.492  0.00  0.00    -0.331 N 
ATOM     11  H   UNL     1       3.671  -3.532  -3.266  0.00  0.00    +0.145 HD
ATOM     12  H   UNL     1       4.505  -2.450  -2.289  0.00  0.00    +0.145 HD
ATOM     13  H   UNL     1      -1.276  -3.380  -0.123  0.00  0.00    +0.161 HD
ENDROOT
BRANCH   1  18
ATOM     14  C   UNL     1      -1.517   0.403   0.217  0.00  0.00    +0.001 A 
ATOM     15  C   UNL     1      -0.823   1.570  -0.033  0.00  0.00    +0.008 A 
ATOM     16  C   UNL     1       0.547   1.522  -0.282  0.00  0.00    -0.013 A 
ATOM     17  C   UNL     1       1.209   0.295  -0.278  0.00  0.00    +0.015 A 
ATOM     18  C   UNL     1       0.505  -0.864  -0.027  0.00  0.00    -0.008 A 
ATOM     19  C   UNL     1      -0.855  -0.811   0.220  0.00  0.00    +0.007 A 
BRANCH  16  20
ATOM     20  C   UNL     1       1.299   2.772  -0.552  0.00  0.00    +0.036 A 
ATOM     21  C   UNL     1       0.836   3.688  -1.500  0.00  0.00    +0.014 A 
ATOM     22  C   UNL     1       1.573   4.840  -1.716  0.00  0.00    +0.020 A 
ATOM     23  C   UNL     1       2.734   5.047  -0.993  0.00  0.00    +0.114 A 
ATOM     24  N   UNL     1       3.148   4.165  -0.104  0.00  0.00    -0.227 NA
ATOM     25  C   UNL     1       2.477   3.056   0.141  0.00  0.00    +0.221 A 
ATOM     26  F   UNL     1       2.936   2.185   1.066  0.00  0.00    -0.183 F 
ENDBRANCH  16  20
ENDBRANCH   1  18
BRANCH   1  27
ATOM     27  C   UNL     1       1.329  -2.726   1.383  0.00  0.00    -0.008 A 
ATOM     28  C   UNL     1       0.188  -3.084   2.076  0.00  0.00    +0.010 A 
ATOM     29  C   UNL     1       0.286  -3.575   3.364  0.00  0.00    +0.046 A 
ATOM     30  C   UNL     1       1.531  -3.708   3.962  0.00  0.00    +0.130 A 
ATOM     31  C   UNL     1       2.674  -3.348   3.263  0.00  0.00    +0.046 A 
ATOM     32  C   UNL     1       2.571  -2.864   1.974  0.00  0.00    +0.010 A 
BRANCH  30  33
ATOM     33  O   UNL     1       1.630  -4.189   5.229  0.00  0.00    -0.406 OA
BRANCH  33  34
ATOM     34  C   UNL     1       2.944  -4.299   5.780  0.00  0.00    +0.575 C 
ATOM     35  F   UNL     1       3.544  -3.036   5.810  0.00  0.00    -0.133 F 
ATOM     36  F   UNL     1       2.862  -4.808   7.080  0.00  0.00    -0.133 F 
ATOM     37  F   UNL     1       3.711  -5.162   4.989  0.00  0.00    -0.133 F 
ENDBRANCH  33  34
ENDBRANCH  30  33
ENDBRANCH   1  27
TORSDOF 5
