REMARK  Name = ZINC40399162
REMARK  4 active torsions:
REMARK  status: ('A' for Active; 'I' for Inactive)
REMARK    1  A    between atoms: C_1  and  C_2
REMARK    2  A    between atoms: C_5  and  N_8
REMARK    3  A    between atoms: C_9  and  C_11
REMARK    4  A    between atoms: N_25  and  C_26
REMARK                            x       y       z     vdW  Elec       q    Type
REMARK                         _______ _______ _______ _____ _____    ______ ____
ROOT
ATOM      1  C   UNL     1       0.275  -6.303   0.967  0.00  0.00    +0.122 C 
ATOM      2  C   UNL     1       1.447  -6.892   0.179  0.00  0.00    +0.114 C 
ATOM      3  C   UNL     1       1.436  -8.393   0.301  0.00  0.00    +0.219 C 
ATOM      4  O   UNL     1       1.749  -9.075  -0.651  0.00  0.00    -0.275 OA
ATOM      5  N   UNL     1       1.084  -8.985   1.456  0.00  0.00    -0.270 N 
ATOM      6  C   UNL     1       0.622  -8.238   2.526  0.00  0.00    +0.138 A 
ATOM      7  C   UNL     1       0.227  -6.925   2.337  0.00  0.00    +0.069 A 
ATOM      8  C   UNL     1      -0.216  -6.182   3.436  0.00  0.00    +0.258 A 
ATOM      9  O   UNL     1      -0.560  -5.019   3.304  0.00  0.00    -0.267 OA
ATOM     10  N   UNL     1      -0.256  -6.780   4.646  0.00  0.00    -0.295 N 
ATOM     11  H   UNL     1      -0.546  -6.279   5.425  0.00  0.00    +0.172 HD
ATOM     12  C   UNL     1       0.110  -8.085   4.774  0.00  0.00    +0.202 A 
ATOM     13  N   UNL     1       0.528  -8.785   3.742  0.00  0.00    -0.200 NA
ATOM     14  N   UNL     1       0.039  -8.682   6.006  0.00  0.00    -0.285 N 
ATOM     15  H   UNL     1       1.154  -9.948   1.540  0.00  0.00    +0.156 HD
ATOM     16  H   UNL     1      -0.344  -8.202   6.757  0.00  0.00    +0.155 HD
ENDROOT
BRANCH  14  17
ATOM     17  C   UNL     1       0.518  -9.985   6.180  0.00  0.00    +0.034 A 
ATOM     18  C   UNL     1       1.621 -10.423   5.458  0.00  0.00    +0.025 A 
ATOM     19  C   UNL     1       2.092 -11.709   5.631  0.00  0.00    +0.022 A 
ATOM     20  C   UNL     1       1.467 -12.562   6.523  0.00  0.00    +0.041 A 
ATOM     21  C   UNL     1       0.368 -12.129   7.244  0.00  0.00    +0.022 A 
ATOM     22  C   UNL     1      -0.104 -10.841   7.079  0.00  0.00    +0.025 A 
ATOM     23 CL   UNL     1       2.062 -14.179   6.739  0.00  0.00    -0.084 Cl
ENDBRANCH  14  17
BRANCH   1  25
ATOM     24  N   UNL     1      -0.523  -3.978   0.697  0.00  0.00    -0.285 N 
ATOM     25  C   UNL     1       0.456  -4.813   1.097  0.00  0.00    +0.225 C 
ATOM     26  O   UNL     1       1.483  -4.365   1.561  0.00  0.00    -0.275 OA
ATOM     27  H   UNL     1      -1.373  -4.336   0.395  0.00  0.00    +0.155 HD
BRANCH  24  32
ATOM     28  C   UNL     1       0.322   1.631   0.781  0.00  0.00    +0.044 C 
ATOM     29  C   UNL     1       0.097   0.141   0.759  0.00  0.00    -0.050 A 
ATOM     30  C   UNL     1       1.145  -0.710   0.459  0.00  0.00    +0.005 A 
ATOM     31  C   UNL     1       0.943  -2.076   0.438  0.00  0.00    +0.023 A 
ATOM     32  C   UNL     1      -0.315  -2.594   0.718  0.00  0.00    +0.033 A 
ATOM     33  C   UNL     1      -1.365  -1.737   1.020  0.00  0.00    +0.023 A 
ATOM     34  C   UNL     1      -1.155  -0.372   1.044  0.00  0.00    +0.005 A 
ENDBRANCH  24  32
ENDBRANCH   1  25
TORSDOF 3
