REMARK  Name = ZINC59287185
REMARK  11 active torsions:
REMARK  status: ('A' for Active; 'I' for Inactive)
REMARK    1  A    between atoms: C_1  and  C_2
REMARK    2  A    between atoms: C_2  and  C_3
REMARK    3  A    between atoms: C_2  and  C_4
REMARK    4  A    between atoms: C_2  and  C_5
REMARK    5  A    between atoms: C_5  and  C_7
REMARK    6  A    between atoms: C_5  and  N_18
REMARK    7  A    between atoms: C_7  and  N_8
REMARK    8  A    between atoms: C_19  and  C_21
REMARK    9  A    between atoms: C_25  and  S_27
REMARK   10  A    between atoms: S_27  and  N_30
REMARK   11  A    between atoms: N_30  and  C_31
REMARK                            x       y       z     vdW  Elec       q    Type
REMARK                         _______ _______ _______ _____ _____    ______ ____
ROOT
ATOM      1  N   UNL     1       0.738  -1.962  -1.265  0.00  0.00    -0.310 N 
ATOM      2  C   UNL     1      -0.315  -2.648  -1.752  0.00  0.00    +0.244 C 
ATOM      3  O   UNL     1      -1.282  -2.051  -2.184  0.00  0.00    -0.270 OA
ATOM      4  H   UNL     1       1.509  -2.439  -0.920  0.00  0.00    +0.149 HD
ENDROOT
BRANCH   2   5
ATOM      5  C   UNL     1      -0.295  -4.126  -1.760  0.00  0.00    +0.039 A 
ATOM      6  C   UNL     1       0.811  -4.815  -1.259  0.00  0.00    +0.013 A 
ATOM      7  C   UNL     1       0.823  -6.194  -1.269  0.00  0.00    +0.003 A 
ATOM      8  C   UNL     1      -0.258  -6.895  -1.775  0.00  0.00    +0.028 A 
ATOM      9  C   UNL     1      -1.357  -6.219  -2.273  0.00  0.00    +0.106 A 
ATOM     10  C   UNL     1      -1.384  -4.839  -2.263  0.00  0.00    +0.041 A 
BRANCH   9  11
ATOM     11  S   UNL     1      -2.727  -7.121  -2.915  0.00  0.00    +0.059 S 
ATOM     12  O   UNL     1      -3.397  -6.253  -3.820  0.00  0.00    -0.153 OA
ATOM     13  O   UNL     1      -2.229  -8.392  -3.308  0.00  0.00    -0.153 OA
BRANCH  11  14
ATOM     14  N   UNL     1      -3.770  -7.389  -1.657  0.00  0.00    -0.187 NA
ATOM     15  H   UNL     1      -3.938  -8.293  -1.351  0.00  0.00    +0.148 HD
BRANCH  14  16
ATOM     16  C   UNL     1      -4.439  -6.259  -1.006  0.00  0.00    +0.077 C 
ATOM     17  C   UNL     1      -4.714  -6.370   0.494  0.00  0.00    +0.022 C 
ATOM     18  C   UNL     1      -5.868  -6.477  -0.505  0.00  0.00    +0.022 C 
ENDBRANCH  14  16
ENDBRANCH  11  14
ENDBRANCH   9  11
ENDBRANCH   2   5
BRANCH   1  19
ATOM     19  C   UNL     1       0.718  -0.497  -1.257  0.00  0.00    +0.062 C 
BRANCH  19  21
ATOM     20  C   UNL     1      -0.019   1.526   0.010  0.00  0.00    +0.012 C 
ATOM     21  C   UNL     1       0.002  -0.004   0.002  0.00  0.00    -0.021 C 
ATOM     22  C   UNL     1       0.742  -0.511   1.242  0.00  0.00    +0.012 C 
ATOM     23  C   UNL     1      -1.433  -0.534   0.013  0.00  0.00    +0.012 C 
ENDBRANCH  19  21
BRANCH  19  24
ATOM     24  C   UNL     1       2.154   0.032  -1.268  0.00  0.00    -0.055 C 
BRANCH  24  25
ATOM     25  N   UNL     1       2.877  -0.538  -2.412  0.00  0.00    +0.384 N 
ATOM     26  C   UNL     1       4.285  -0.116  -2.364  0.00  0.00    -0.074 C 
ATOM     27  C   UNL     1       5.080  -0.953  -3.367  0.00  0.00    +0.017 C 
ATOM     28  C   UNL     1       4.400  -0.916  -4.712  0.00  0.00    -0.048 A 
ATOM     29  C   UNL     1       5.118  -1.311  -5.831  0.00  0.00    +0.004 A 
ATOM     30  C   UNL     1       4.528  -1.294  -7.079  0.00  0.00    +0.000 A 
ATOM     31  C   UNL     1       3.215  -0.882  -7.213  0.00  0.00    +0.000 A 
ATOM     32  C   UNL     1       2.500  -0.488  -6.100  0.00  0.00    +0.002 A 
ATOM     33  C   UNL     1       3.092  -0.503  -4.846  0.00  0.00    -0.061 A 
ATOM     34  C   UNL     1       2.278  -0.056  -3.660  0.00  0.00    -0.043 C 
ATOM     35  H   UNL     1       2.823  -1.545  -2.378  0.00  0.00    -0.081 HD
ENDBRANCH  24  25
ENDBRANCH  19  24
ENDBRANCH   1  19
TORSDOF 8
