REMARK  Name = ZINC22495901
REMARK  10 active torsions:
REMARK  status: ('A' for Active; 'I' for Inactive)
REMARK    1  A    between atoms: C_1  and  C_2
REMARK    2  A    between atoms: C_2  and  C_4
REMARK    3  A    between atoms: C_2  and  N_11
REMARK    4  A    between atoms: C_12  and  C_14
REMARK    5  A    between atoms: C_14  and  N_15
REMARK    6  A    between atoms: C_18  and  C_22
REMARK    7  A    between atoms: C_18  and  C_23
REMARK    8  A    between atoms: C_26  and  C_29
REMARK    9  A    between atoms: C_29  and  C_30
REMARK   10  A    between atoms: C_29  and  C_31
REMARK                            x       y       z     vdW  Elec       q    Type
REMARK                         _______ _______ _______ _____ _____    ______ ____
ROOT
ATOM      1  N   UNL     1       4.223  -1.127   2.126  0.00  0.00    -0.215 N 
ATOM      2  C   UNL     1       4.875  -2.187   1.609  0.00  0.00    +0.251 C 
ATOM      3  O   UNL     1       4.400  -3.255   1.289  0.00  0.00    -0.272 OA
ATOM      4  C   UNL     1       6.328  -1.764   1.508  0.00  0.00    +0.135 C 
ATOM      5  N   UNL     1       6.324  -0.386   2.029  0.00  0.00    -0.281 N 
ATOM      6  C   UNL     1       5.051  -0.103   2.359  0.00  0.00    +0.310 C 
ATOM      7  O   UNL     1       4.694   0.963   2.821  0.00  0.00    -0.252 OA
ATOM      8  C   UNL     1       6.795  -1.786   0.051  0.00  0.00    +0.047 C 
ATOM      9  H   UNL     1       7.090   0.203   2.115  0.00  0.00    +0.152 HD
ENDROOT
BRANCH   4  10
ATOM     10  C   UNL     1       7.199  -2.651   2.360  0.00  0.00    -0.015 A 
ATOM     11  C   UNL     1       6.841  -3.968   2.576  0.00  0.00    +0.006 A 
ATOM     12  C   UNL     1       7.640  -4.782   3.357  0.00  0.00    +0.004 A 
ATOM     13  C   UNL     1       8.797  -4.278   3.922  0.00  0.00    -0.045 A 
ATOM     14  C   UNL     1       9.155  -2.960   3.705  0.00  0.00    +0.004 A 
ATOM     15  C   UNL     1       8.358  -2.148   2.920  0.00  0.00    +0.006 A 
BRANCH  13  16
ATOM     16  C   UNL     1       9.667  -5.165   4.774  0.00  0.00    +0.013 C 
ATOM     17  C   UNL     1      11.063  -5.258   4.154  0.00  0.00    +0.012 C 
ATOM     18  C   UNL     1       9.774  -4.573   6.182  0.00  0.00    +0.012 C 
ENDBRANCH  13  16
ENDBRANCH   4  10
BRANCH   1  19
ATOM     19  C   UNL     1       2.783  -1.099   2.395  0.00  0.00    +0.213 C 
BRANCH  19  21
ATOM     20  N   UNL     1       0.711  -0.489   1.189  0.00  0.00    -0.307 N 
ATOM     21  C   UNL     1       2.054  -0.600   1.174  0.00  0.00    +0.231 C 
ATOM     22  O   UNL     1       2.676  -0.297   0.177  0.00  0.00    -0.274 OA
ATOM     23  H   UNL     1       0.213  -0.731   1.986  0.00  0.00    +0.149 HD
BRANCH  20  25
ATOM     24  C   UNL     1      -0.019   1.526   0.010  0.00  0.00    +0.033 C 
ATOM     25  C   UNL     1       0.002  -0.004   0.002  0.00  0.00    +0.100 C 
BRANCH  25  26
ATOM     26  C   UNL     1      -1.412  -0.526   0.013  0.00  0.00    -0.027 A 
ATOM     27  C   UNL     1      -2.123  -0.571   1.198  0.00  0.00    +0.006 A 
ATOM     28  C   UNL     1      -3.420  -1.049   1.208  0.00  0.00    +0.015 A 
ATOM     29  C   UNL     1      -4.006  -1.482   0.032  0.00  0.00    +0.018 A 
ATOM     30  C   UNL     1      -3.294  -1.437  -1.153  0.00  0.00    +0.015 A 
ATOM     31  C   UNL     1      -1.999  -0.954  -1.163  0.00  0.00    +0.006 A 
ATOM     32 BR   UNL     1      -5.780  -2.136   0.046  0.00  0.00    -0.050 Br
ENDBRANCH  25  26
ENDBRANCH  20  25
ENDBRANCH  19  21
ENDBRANCH   1  19
TORSDOF 6
