REMARK  Name = ZINC12565904
REMARK  7 active torsions:
REMARK  status: ('A' for Active; 'I' for Inactive)
REMARK    1  A    between atoms: C_3  and  N_11
REMARK    2  A    between atoms: C_5  and  S_7
REMARK    3  A    between atoms: S_7  and  N_10
REMARK    4  A    between atoms: C_12  and  C_14
REMARK    5  A    between atoms: C_14  and  S_15
REMARK    6  A    between atoms: S_15  and  C_16
REMARK    7  A    between atoms: C_19  and  C_21
REMARK                            x       y       z     vdW  Elec       q    Type
REMARK                         _______ _______ _______ _____ _____    ______ ____
ROOT
ATOM      1  N   UNL     1      -2.427   1.041   0.019  0.00  0.00    -0.285 N 
ATOM      2  C   UNL     1      -2.414  -0.303  -0.090  0.00  0.00    +0.228 C 
ATOM      3  O   UNL     1      -1.359  -0.900  -0.098  0.00  0.00    -0.275 OA
ATOM      4  H   UNL     1      -3.271   1.512   0.103  0.00  0.00    +0.155 HD
ENDROOT
BRANCH   1   7
ATOM      5  C   UNL     1       1.033   2.014  -0.755  0.00  0.00    +0.004 A 
ATOM      6  C   UNL     1      -0.152   1.303  -0.746  0.00  0.00    +0.023 A 
ATOM      7  C   UNL     1      -1.224   1.755   0.012  0.00  0.00    +0.035 A 
ATOM      8  C   UNL     1      -1.099   2.915   0.765  0.00  0.00    +0.051 A 
ATOM      9  C   UNL     1       0.088   3.621   0.750  0.00  0.00    +0.107 A 
ATOM     10  C   UNL     1       1.153   3.171  -0.009  0.00  0.00    +0.028 A 
BRANCH   9  11
ATOM     11  S   UNL     1       0.246   5.097   1.700  0.00  0.00    +0.056 S 
ATOM     12  O   UNL     1      -0.708   5.008   2.750  0.00  0.00    -0.153 OA
ATOM     13  O   UNL     1       1.634   5.275   1.946  0.00  0.00    -0.153 OA
BRANCH  11  14
ATOM     14  N   UNL     1      -0.230   6.354   0.733  0.00  0.00    -0.204 NA
ATOM     15  H   UNL     1      -0.631   7.144   1.127  0.00  0.00    +0.144 HD
ATOM     16  H   UNL     1      -0.107   6.301  -0.228  0.00  0.00    +0.144 HD
ENDBRANCH  11  14
ENDBRANCH   9  11
ENDBRANCH   1   7
BRANCH   2  17
ATOM     17  C   UNL     1      -3.711  -1.062  -0.201  0.00  0.00    +0.175 C 
BRANCH  17  18
ATOM     18  S   UNL     1      -3.364  -2.834  -0.333  0.00  0.00    -0.056 S 
BRANCH  18  19
ATOM     19  C   UNL     1      -5.006  -3.460  -0.447  0.00  0.00    +0.278 A 
ATOM     20  N   UNL     1      -6.111  -2.751  -0.431  0.00  0.00    -0.101 NA
ATOM     21  N   UNL     1      -7.125  -3.536  -0.534  0.00  0.00    -0.106 NA
ATOM     22  C   UNL     1      -6.710  -4.776  -0.619  0.00  0.00    +0.249 A 
ATOM     23  O   UNL     1      -5.359  -4.754  -0.571  0.00  0.00    -0.411 OA
BRANCH  22  24
ATOM     24  C   UNL     1      -7.560  -5.977  -0.749  0.00  0.00    +0.039 A 
ATOM     25  C   UNL     1      -6.978  -7.243  -0.836  0.00  0.00    +0.014 A 
ATOM     26  C   UNL     1      -7.777  -8.361  -0.952  0.00  0.00    +0.021 A 
ATOM     27  C   UNL     1      -9.155  -8.228  -0.993  0.00  0.00    +0.041 A 
ATOM     28  C   UNL     1      -9.739  -6.975  -0.913  0.00  0.00    +0.021 A 
ATOM     29  C   UNL     1      -8.950  -5.850  -0.791  0.00  0.00    +0.014 A 
ATOM     30 CL   UNL     1     -10.155  -9.639  -1.146  0.00  0.00    -0.084 Cl
ENDBRANCH  22  24
ENDBRANCH  18  19
ENDBRANCH  17  18
ENDBRANCH   2  17
TORSDOF 7
