REMARK  Name = ZINC39252225
REMARK  8 active torsions:
REMARK  status: ('A' for Active; 'I' for Inactive)
REMARK    1  A    between atoms: C_1  and  C_2
REMARK    2  A    between atoms: C_2  and  C_3
REMARK    3  A    between atoms: C_3  and  C_4
REMARK    4  A    between atoms: C_8  and  N_11
REMARK    5  A    between atoms: C_12  and  C_14
REMARK    6  A    between atoms: N_19  and  C_21
REMARK    7  A    between atoms: C_21  and  C_22
REMARK    8  A    between atoms: C_22  and  C_23
REMARK                            x       y       z     vdW  Elec       q    Type
REMARK                         _______ _______ _______ _____ _____    ______ ____
ROOT
ATOM      1  C   UNL     1       6.372  -4.945   1.082  0.00  0.00    +0.101 C 
ATOM      2  C   UNL     1       6.707  -5.211  -0.404  0.00  0.00    +0.110 C 
ATOM      3  C   UNL     1       7.945  -6.079  -0.355  0.00  0.00    +0.216 C 
ATOM      4  O   UNL     1       8.690  -6.281  -1.291  0.00  0.00    -0.276 OA
ATOM      5  N   UNL     1       8.100  -6.595   0.877  0.00  0.00    -0.300 N 
ATOM      6  C   UNL     1       7.022  -6.162   1.775  0.00  0.00    +0.121 C 
ENDROOT
BRANCH   1   8
ATOM      7  N   UNL     1       4.123  -3.978   0.725  0.00  0.00    -0.284 N 
ATOM      8  C   UNL     1       4.881  -4.930   1.304  0.00  0.00    +0.220 C 
ATOM      9  O   UNL     1       4.364  -5.775   2.004  0.00  0.00    -0.275 OA
ATOM     10  H   UNL     1       4.537  -3.303   0.165  0.00  0.00    +0.152 HD
BRANCH   7  14
ATOM     11  C   UNL     1       0.763  -2.041   1.233  0.00  0.00    +0.188 C 
ATOM     12  N   UNL     1       1.482  -2.577   2.411  0.00  0.00    -0.175 NA
ATOM     13  N   UNL     1       2.334  -3.434   2.281  0.00  0.00    -0.157 NA
ATOM     14  C   UNL     1       2.674  -3.964   0.941  0.00  0.00    +0.275 C 
ATOM     15  S   UNL     1       1.845  -2.692  -0.116  0.00  0.00    -0.085 S 
BRANCH  11  16
ATOM     16  C   UNL     1       0.742  -0.511   1.242  0.00  0.00    +0.039 C 
BRANCH  16  18
ATOM     17  C   UNL     1      -0.019   1.526   0.010  0.00  0.00    +0.004 C 
ATOM     18  C   UNL     1       0.002  -0.004   0.002  0.00  0.00    -0.000 C 
ENDBRANCH  16  18
ENDBRANCH  11  16
ENDBRANCH   7  14
ENDBRANCH   1   8
BRANCH   5  19
ATOM     19  C   UNL     1       9.203  -7.474   1.272  0.00  0.00    +0.112 C 
BRANCH  19  20
ATOM     20  C   UNL     1      10.367  -6.630   1.794  0.00  0.00    +0.056 C 
BRANCH  20  21
ATOM     21  C   UNL     1      11.501  -7.535   2.200  0.00  0.00    -0.021 A 
ATOM     22  C   UNL     1      12.542  -8.076   1.323  0.00  0.00    +0.004 A 
ATOM     23  C   UNL     1      12.818  -7.958  -0.041  0.00  0.00    +0.030 A 
ATOM     24  C   UNL     1      13.906  -8.613  -0.574  0.00  0.00    +0.042 A 
ATOM     25  C   UNL     1      14.727  -9.387   0.236  0.00  0.00    +0.022 A 
ATOM     26  C   UNL     1      14.467  -9.512   1.583  0.00  0.00    +0.027 A 
ATOM     27  C   UNL     1      13.373  -8.860   2.143  0.00  0.00    +0.047 A 
ATOM     28  N   UNL     1      12.864  -8.791   3.421  0.00  0.00    -0.360 N 
ATOM     29  C   UNL     1      11.753  -7.993   3.437  0.00  0.00    +0.087 A 
ATOM     30 CL   UNL     1      14.254  -8.470  -2.269  0.00  0.00    -0.084 Cl
ATOM     31  H   UNL     1      13.240  -9.239   4.195  0.00  0.00    +0.165 HD
ENDBRANCH  20  21
ENDBRANCH  19  20
ENDBRANCH   5  19
TORSDOF 7
