REMARK  Name = ZINC21263049
REMARK  13 active torsions:
REMARK  status: ('A' for Active; 'I' for Inactive)
REMARK    1  A    between atoms: C_1  and  C_2
REMARK    2  A    between atoms: C_2  and  C_30
REMARK    3  A    between atoms: C_4  and  N_10
REMARK    4  A    between atoms: C_6  and  C_8
REMARK    5  A    between atoms: C_6  and  C_9
REMARK    6  A    between atoms: N_10  and  C_11
REMARK    7  A    between atoms: C_11  and  N_13
REMARK    8  A    between atoms: N_13  and  C_14
REMARK    9  A    between atoms: N_13  and  C_23
REMARK   10  A    between atoms: C_14  and  C_15
REMARK   11  A    between atoms: C_18  and  O_21
REMARK   12  A    between atoms: O_21  and  C_22
REMARK   13  A    between atoms: C_23  and  C_24
REMARK                            x       y       z     vdW  Elec       q    Type
REMARK                         _______ _______ _______ _____ _____    ______ ____
ROOT
ATOM      1  C   UNL     1       2.521  -0.311  -2.040  0.00  0.00    +0.133 C 
ATOM      2  S   UNL     1       1.554  -1.468  -1.230  0.00  0.00    -0.019 S 
ENDROOT
BRANCH   1   3
ATOM      3  N   UNL     1       2.900  -0.524  -3.316  0.00  0.00    -0.324 N 
ATOM      4  H   UNL     1       3.522   0.220  -3.836  0.00  0.00    +0.148 HD
BRANCH   3   8
ATOM      5  C   UNL     1       0.574  -2.971  -6.146  0.00  0.00    -0.010 C 
ATOM      6  C   UNL     1       2.089  -2.766  -6.269  0.00  0.00    -0.072 C 
ATOM      7  C   UNL     1       2.495  -1.500  -5.519  0.00  0.00    +0.009 C 
ATOM      8  C   UNL     1       2.485  -1.749  -4.011  0.00  0.00    +0.069 C 
ATOM      9  C   UNL     1       3.477  -2.868  -3.696  0.00  0.00    +0.009 C 
ATOM     10  C   UNL     1       3.081  -4.150  -4.423  0.00  0.00    -0.072 C 
ATOM     11  N   UNL     1       2.813  -3.941  -5.831  0.00  0.00    +0.386 N 
ATOM     12  C   UNL     1       1.877  -4.787  -3.719  0.00  0.00    -0.010 C 
ATOM     13  C   UNL     1       4.261  -5.139  -4.298  0.00  0.00    -0.010 C 
ATOM     14  C   UNL     1       2.399  -2.539  -7.766  0.00  0.00    -0.010 C 
ATOM     15  H   UNL     1       2.261  -4.844  -6.130  0.00  0.00    -0.084 HD
ATOM     16  H   UNL     1       3.811  -3.950  -6.293  0.00  0.00    -0.084 HD
ENDBRANCH   3   8
ENDBRANCH   1   3
BRANCH   1  17
ATOM     17  N   UNL     1       2.902   0.814  -1.403  0.00  0.00    -0.306 N 
BRANCH  17  18
ATOM     18  C   UNL     1       2.490   1.045  -0.016  0.00  0.00    +0.142 C 
BRANCH  18  19
ATOM     19  C   UNL     1       1.176   1.783   0.000  0.00  0.00    -0.030 A 
ATOM     20  C   UNL     1      -0.013   1.076   0.008  0.00  0.00    +0.009 A 
ATOM     21  C   UNL     1      -1.218   1.750   0.017  0.00  0.00    +0.046 A 
ATOM     22  C   UNL     1      -1.237   3.137   0.031  0.00  0.00    +0.120 A 
ATOM     23  C   UNL     1      -0.043   3.844   0.024  0.00  0.00    +0.046 A 
ATOM     24  C   UNL     1       1.160   3.165   0.008  0.00  0.00    +0.009 A 
BRANCH  22  25
ATOM     25  O   UNL     1      -2.422   3.802   0.046  0.00  0.00    -0.495 OA
ATOM     26  C   UNL     1      -3.611   3.009   0.053  0.00  0.00    +0.277 C 
ENDBRANCH  22  25
ENDBRANCH  18  19
ENDBRANCH  17  18
BRANCH  17  27
ATOM     27  C   UNL     1       3.730   1.804  -2.096  0.00  0.00    +0.138 C 
BRANCH  27  28
ATOM     28  C   UNL     1       5.208   1.481  -1.871  0.00  0.00    +0.136 C 
ATOM     29  C   UNL     1       6.087   2.522  -2.591  0.00  0.00    +0.035 C 
ATOM     30  C   UNL     1       6.946   3.139  -1.460  0.00  0.00    +0.031 C 
ATOM     31  C   UNL     1       6.870   2.048  -0.362  0.00  0.00    +0.160 C 
ATOM     32  O   UNL     1       5.516   1.552  -0.469  0.00  0.00    -0.375 OA
ENDBRANCH  27  28
ENDBRANCH  17  27
ENDBRANCH   1  17
TORSDOF 8
