REMARK  Name = ZINC02614034
REMARK  5 active torsions:
REMARK  status: ('A' for Active; 'I' for Inactive)
REMARK    1  A    between atoms: C_1  and  C_2
REMARK    2  A    between atoms: C_15  and  S_17
REMARK    3  A    between atoms: S_17  and  C_18
REMARK    4  A    between atoms: C_18  and  C_19
REMARK    5  A    between atoms: C_24  and  C_27
REMARK                            x       y       z     vdW  Elec       q    Type
REMARK                         _______ _______ _______ _____ _____    ______ ____
ROOT
ATOM      1  S   UNL     1      -4.542   6.727   0.083  0.00  0.00    -0.078 S 
ENDROOT
BRANCH   1  15
ATOM      2  C   UNL     1      -5.177  16.958   0.244  0.00  0.00    +0.008 C 
ATOM      3  C   UNL     1      -5.268  15.456   0.525  0.00  0.00    -0.009 C 
ATOM      4  C   UNL     1      -6.401  14.846  -0.306  0.00  0.00    +0.008 C 
ATOM      5  C   UNL     1      -6.660  13.409   0.146  0.00  0.00    +0.037 C 
ATOM      6  C   UNL     1      -5.342  12.641   0.128  0.00  0.00    -0.023 A 
ATOM      7  C   UNL     1      -4.163  13.295   0.122  0.00  0.00    -0.004 A 
ATOM      8  S   UNL     1      -2.930  12.022   0.100  0.00  0.00    -0.073 S 
ATOM      9  C   UNL     1      -4.004  10.610   0.101  0.00  0.00    +0.117 A 
ATOM     10  C   UNL     1      -5.289  11.177   0.117  0.00  0.00    +0.075 A 
ATOM     11  C   UNL     1      -6.380  10.251   0.121  0.00  0.00    +0.261 A 
ATOM     12  O   UNL     1      -7.531  10.652   0.133  0.00  0.00    -0.267 OA
ATOM     13  N   UNL     1      -6.117   8.931   0.105  0.00  0.00    -0.301 N 
ATOM     14  H   UNL     1      -6.876   8.280   0.100  0.00  0.00    +0.171 HD
ATOM     15  C   UNL     1      -4.835   8.464   0.096  0.00  0.00    +0.170 A 
ATOM     16  N   UNL     1      -3.812   9.296   0.091  0.00  0.00    -0.216 NA
ATOM     17  C   UNL     1      -3.948  14.778   0.131  0.00  0.00    +0.046 C 
ENDBRANCH   1  15
BRANCH   1  18
ATOM     18  C   UNL     1      -2.732   6.713   0.066  0.00  0.00    +0.173 C 
BRANCH  18  19
ATOM     19  C   UNL     1      -2.241   5.289   0.052  0.00  0.00    +0.229 C 
ATOM     20  O   UNL     1      -3.036   4.373   0.054  0.00  0.00    -0.275 OA
ATOM     21  N   UNL     1      -0.918   5.032   0.039  0.00  0.00    -0.264 N 
ATOM     22  C   UNL     1      -0.465   3.719   0.026  0.00  0.00    +0.165 A 
ATOM     23  N   UNL     1       0.774   3.263   0.012  0.00  0.00    -0.225 NA
ATOM     24  C   UNL     1       1.028   1.963   0.003  0.00  0.00    +0.080 A 
ATOM     25  C   UNL     1      -0.013   1.076   0.008  0.00  0.00    +0.076 A 
ATOM     26  S   UNL     1      -1.404   2.198   0.019  0.00  0.00    -0.060 S 
ATOM     27  H   UNL     1      -0.282   5.765   0.037  0.00  0.00    +0.157 HD
BRANCH  24  28
ATOM     28  C   UNL     1       2.428   1.474  -0.013  0.00  0.00    +0.001 A 
ATOM     29  C   UNL     1       2.691   0.105  -0.016  0.00  0.00    +0.010 A 
ATOM     30  C   UNL     1       3.996  -0.344  -0.036  0.00  0.00    +0.001 A 
ATOM     31  C   UNL     1       5.042   0.561  -0.041  0.00  0.00    +0.000 A 
ATOM     32  C   UNL     1       4.787   1.921  -0.032  0.00  0.00    +0.001 A 
ATOM     33  C   UNL     1       3.486   2.381  -0.018  0.00  0.00    +0.010 A 
ENDBRANCH  24  28
ENDBRANCH  18  19
ENDBRANCH   1  18
TORSDOF 4
