REMARK  Name = ZINC05719860
REMARK  10 active torsions:
REMARK  status: ('A' for Active; 'I' for Inactive)
REMARK    1  A    between atoms: C_1  and  O_2
REMARK    2  A    between atoms: O_2  and  C_3
REMARK    3  A    between atoms: C_3  and  C_5
REMARK    4  A    between atoms: C_5  and  C_6
REMARK    5  A    between atoms: C_7  and  C_23
REMARK    6  A    between atoms: C_8  and  C_16
REMARK    7  A    between atoms: C_10  and  C_14
REMARK    8  A    between atoms: C_11  and  N_13
REMARK    9  A    between atoms: C_23  and  O_25
REMARK   10  A    between atoms: O_25  and  C_26
REMARK                            x       y       z     vdW  Elec       q    Type
REMARK                         _______ _______ _______ _____ _____    ______ ____
ROOT
ATOM      1  C   UNL     1      -2.431  -2.662   0.118  0.00  0.00    +0.129 C 
ATOM      2  C   UNL     1      -1.236  -2.060   0.168  0.00  0.00    +0.088 C 
ATOM      3  C   UNL     1       0.038  -2.850   0.046  0.00  0.00    +0.105 C 
ATOM      4  C   UNL     1      -0.246  -4.311   0.269  0.00  0.00    +0.098 C 
ATOM      5  C   UNL     1      -1.513  -4.787   0.208  0.00  0.00    +0.198 C 
ATOM      6  O   UNL     1      -2.560  -3.985  -0.053  0.00  0.00    -0.444 OA
ENDROOT
BRANCH   3   7
ATOM      7  C   UNL     1       0.616  -2.659  -1.333  0.00  0.00    -0.034 A 
ATOM      8  C   UNL     1      -0.113  -3.033  -2.446  0.00  0.00    +0.006 A 
ATOM      9  C   UNL     1       0.415  -2.852  -3.711  0.00  0.00    +0.020 A 
ATOM     10  C   UNL     1       1.677  -2.307  -3.862  0.00  0.00    +0.041 A 
ATOM     11  C   UNL     1       2.409  -1.938  -2.747  0.00  0.00    +0.020 A 
ATOM     12  C   UNL     1       1.878  -2.114  -1.483  0.00  0.00    +0.006 A 
ATOM     13 CL   UNL     1       2.343  -2.087  -5.450  0.00  0.00    -0.084 Cl
ENDBRANCH   3   7
BRANCH   5  14
ATOM     14  N   UNL     1      -1.734  -6.125   0.420  0.00  0.00    -0.328 N 
ATOM     15  H   UNL     1      -0.988  -6.716   0.611  0.00  0.00    +0.145 HD
ATOM     16  H   UNL     1      -2.635  -6.481   0.380  0.00  0.00    +0.145 HD
ENDBRANCH   5  14
BRANCH   4  17
ATOM     17  C   UNL     1       0.835  -5.208   0.549  0.00  0.00    +0.101 C 
ATOM     18  N   UNL     1       1.693  -5.919   0.771  0.00  0.00    -0.191 NA
ENDBRANCH   4  17
BRANCH   2  19
ATOM     19  C   UNL     1      -1.171  -0.656   0.345  0.00  0.00    +0.339 C 
ATOM     20  O   UNL     1      -2.183  -0.024   0.580  0.00  0.00    -0.245 OA
BRANCH  19  21
ATOM     21  O   UNL     1       0.015  -0.019   0.252  0.00  0.00    -0.465 OA
ATOM     22  C   UNL     1       0.008   1.397   0.441  0.00  0.00    +0.280 C 
ENDBRANCH  19  21
ENDBRANCH   2  19
BRANCH   1  23
ATOM     23  C   UNL     1      -3.675  -1.822   0.254  0.00  0.00    +0.195 C 
BRANCH  23  24
ATOM     24  C   UNL     1      -3.945  -1.556   1.712  0.00  0.00    +0.314 C 
ATOM     25  O   UNL     1      -3.203  -2.002   2.555  0.00  0.00    -0.250 OA
BRANCH  24  27
ATOM     26  C   UNL     1      -5.207  -0.607   3.497  0.00  0.00    +0.280 C 
ATOM     27  O   UNL     1      -5.009  -0.823   2.075  0.00  0.00    -0.468 OA
ENDBRANCH  24  27
ENDBRANCH  23  24
ENDBRANCH   1  23
TORSDOF 8
