REMARK  Name = ZINC58208429
REMARK  9 active torsions:
REMARK  status: ('A' for Active; 'I' for Inactive)
REMARK    1  A    between atoms: C_1  and  C_2
REMARK    2  A    between atoms: C_3  and  C_12
REMARK    3  A    between atoms: C_12  and  C_13
REMARK    4  A    between atoms: C_13  and  C_14
REMARK    5  A    between atoms: C_14  and  N_16
REMARK    6  A    between atoms: N_25  and  C_26
REMARK    7  A    between atoms: C_26  and  C_27
REMARK    8  A    between atoms: C_26  and  C_28
REMARK    9  A    between atoms: C_26  and  C_29
REMARK                            x       y       z     vdW  Elec       q    Type
REMARK                         _______ _______ _______ _____ _____    ______ ____
ROOT
ATOM      1  C   UNL     1      -4.323   0.876  -1.407  0.00  0.00    +0.239 C 
ATOM      2  O   UNL     1      -4.810   1.234  -0.352  0.00  0.00    -0.274 OA
ENDROOT
BRANCH   1   3
ATOM      3  N   UNL     1      -4.954   1.126  -2.550  0.00  0.00    -0.147 NA
ATOM      4  C   UNL     1      -6.167   1.673  -2.534  0.00  0.00    +0.202 A 
ATOM      5  N   UNL     1      -6.812   2.125  -1.426  0.00  0.00    -0.326 N 
ATOM      6  C   UNL     1      -8.050   2.625  -1.816  0.00  0.00    +0.066 A 
ATOM      7  C   UNL     1      -9.102   3.200  -1.117  0.00  0.00    +0.028 A 
ATOM      8  C   UNL     1     -10.234   3.610  -1.793  0.00  0.00    +0.002 A 
ATOM      9  C   UNL     1     -10.324   3.450  -3.165  0.00  0.00    +0.002 A 
ATOM     10  C   UNL     1      -9.283   2.879  -3.870  0.00  0.00    +0.028 A 
ATOM     11  C   UNL     1      -8.141   2.464  -3.200  0.00  0.00    +0.068 A 
ATOM     12  N   UNL     1      -6.954   1.874  -3.623  0.00  0.00    -0.306 N 
ATOM     13  H   UNL     1      -6.468   2.102  -0.519  0.00  0.00    +0.169 HD
BRANCH  12  14
ATOM     14  C   UNL     1      -6.613   1.527  -5.005  0.00  0.00    +0.040 C 
ATOM     15  C   UNL     1      -5.220   0.894  -5.042  0.00  0.00    +0.034 C 
ATOM     16  C   UNL     1      -7.640   0.532  -5.549  0.00  0.00    +0.034 C 
ATOM     17  C   UNL     1      -6.622   2.791  -5.866  0.00  0.00    +0.034 C 
ENDBRANCH  12  14
ENDBRANCH   1   3
BRANCH   1  18
ATOM     18  C   UNL     1      -3.003   0.149  -1.419  0.00  0.00    +0.103 C 
BRANCH  18  19
ATOM     19  C   UNL     1      -2.494  -0.009   0.015  0.00  0.00    +0.051 C 
BRANCH  19  22
ATOM     20  C   UNL     1      -0.028   1.461   0.034  0.00  0.00    +0.064 C 
ATOM     21  C   UNL     1      -0.013  -0.046   0.012  0.00  0.00    +0.026 A 
ATOM     22  C   UNL     1      -1.174  -0.736   0.003  0.00  0.00    +0.036 A 
ATOM     23  C   UNL     1      -1.134  -2.151  -0.018  0.00  0.00    +0.257 A 
ATOM     24  O   UNL     1      -2.168  -2.794  -0.027  0.00  0.00    -0.267 OA
ATOM     25  N   UNL     1       0.059  -2.779  -0.028  0.00  0.00    -0.275 N 
ATOM     26  H   UNL     1       0.094  -3.748  -0.043  0.00  0.00    +0.173 HD
ATOM     27  C   UNL     1       1.201  -2.067  -0.018  0.00  0.00    +0.327 A 
ATOM     28  O   UNL     1       2.269  -2.647  -0.028  0.00  0.00    -0.247 OA
ATOM     29  N   UNL     1       1.177  -0.722  -0.004  0.00  0.00    -0.311 N 
ATOM     30  H   UNL     1       2.011  -0.227  -0.001  0.00  0.00    +0.170 HD
ENDBRANCH  19  22
ENDBRANCH  18  19
ENDBRANCH   1  18
TORSDOF 5
