REMARK  Name = ZINC02502665
REMARK  10 active torsions:
REMARK  status: ('A' for Active; 'I' for Inactive)
REMARK    1  A    between atoms: C_1  and  C_2
REMARK    2  A    between atoms: C_2  and  O_3
REMARK    3  A    between atoms: O_3  and  C_4
REMARK    4  A    between atoms: C_6  and  C_14
REMARK    5  A    between atoms: C_9  and  O_10
REMARK    6  A    between atoms: O_10  and  C_11
REMARK    7  A    between atoms: C_11  and  C_12
REMARK    8  A    between atoms: C_19  and  O_28
REMARK    9  A    between atoms: C_23  and  N_27
REMARK   10  A    between atoms: C_24  and  C_25
REMARK                            x       y       z     vdW  Elec       q    Type
REMARK                         _______ _______ _______ _____ _____    ______ ____
ROOT
ATOM      1  C   UNL     1       2.465   3.919  -0.002  0.00  0.00    +0.099 C 
ATOM      2  C   UNL     1       1.161   3.166   0.008  0.00  0.00    +0.008 A 
ATOM      3  C   UNL     1       1.174   1.783   0.000  0.00  0.00    +0.012 A 
ATOM      4  C   UNL     1      -0.013   1.076   0.008  0.00  0.00    +0.046 A 
ATOM      5  C   UNL     1      -1.224   1.754   0.017  0.00  0.00    +0.120 A 
ATOM      6  C   UNL     1      -1.240   3.139   0.031  0.00  0.00    +0.092 A 
ATOM      7  C   UNL     1      -0.046   3.848   0.023  0.00  0.00    +0.138 A 
ATOM      8  O   UNL     1      -0.079   5.204   0.031  0.00  0.00    -0.441 OA
ATOM      9  C   UNL     1       1.008   5.899   0.405  0.00  0.00    +0.199 C 
ATOM     10  C   UNL     1       2.245   5.346   0.412  0.00  0.00    +0.098 C 
ENDROOT
BRANCH   1  13
ATOM     11  C   UNL     1       2.878   4.397  -3.727  0.00  0.00    +0.162 A 
ATOM     12  C   UNL     1       2.342   4.425  -2.449  0.00  0.00    +0.055 A 
ATOM     13  C   UNL     1       3.050   3.887  -1.391  0.00  0.00    -0.017 A 
ATOM     14  C   UNL     1       4.295   3.323  -1.602  0.00  0.00    +0.026 A 
ATOM     15  C   UNL     1       4.833   3.287  -2.876  0.00  0.00    +0.065 A 
ATOM     16  C   UNL     1       4.129   3.825  -3.941  0.00  0.00    +0.163 A 
ATOM     17 BR   UNL     1       5.261   2.595  -0.149  0.00  0.00    -0.050 Br
BRANCH  11  18
ATOM     18  O   UNL     1       2.184   4.927  -4.769  0.00  0.00    -0.489 OA
BRANCH  18  20
ATOM     19  C   UNL     1       0.281   6.038  -5.761  0.00  0.00    +0.048 C 
ATOM     20  C   UNL     1       0.907   5.497  -4.474  0.00  0.00    +0.226 C 
ENDBRANCH  18  20
ENDBRANCH  11  18
BRANCH  16  21
ATOM     21  O   UNL     1       4.658   3.795  -5.193  0.00  0.00    -0.489 OA
BRANCH  21  22
ATOM     22  C   UNL     1       5.946   3.192  -5.339  0.00  0.00    +0.226 C 
ATOM     23  C   UNL     1       6.374   3.251  -6.806  0.00  0.00    +0.048 C 
ENDBRANCH  21  22
ENDBRANCH  16  21
ENDBRANCH   1  13
BRANCH   9  24
ATOM     24  N   UNL     1       0.861   7.207   0.792  0.00  0.00    -0.328 N 
ATOM     25  H   UNL     1      -0.018   7.617   0.792  0.00  0.00    +0.145 HD
ATOM     26  H   UNL     1       1.637   7.722   1.065  0.00  0.00    +0.145 HD
ENDBRANCH   9  24
BRANCH  10  27
ATOM     27  C   UNL     1       3.365   6.139   0.823  0.00  0.00    +0.101 C 
ATOM     28  N   UNL     1       4.253   6.767   1.149  0.00  0.00    -0.191 NA
ENDBRANCH  10  27
BRANCH   5  29
ATOM     29  O   UNL     1      -2.392   1.059   0.019  0.00  0.00    -0.507 OA
ATOM     30  H   UNL     1      -2.726   0.854   0.903  0.00  0.00    +0.292 HD
ENDBRANCH   5  29
TORSDOF 8
