REMARK  Name = ZINC03468924
REMARK  7 active torsions:
REMARK  status: ('A' for Active; 'I' for Inactive)
REMARK    1  A    between atoms: N_13  and  C_14
REMARK    2  A    between atoms: C_14  and  C_15
REMARK    3  A    between atoms: C_15  and  C_16
REMARK    4  A    between atoms: N_18  and  N_19
REMARK    5  A    between atoms: N_19  and  C_20
REMARK    6  A    between atoms: C_20  and  N_22
REMARK    7  A    between atoms: N_22  and  C_23
REMARK                            x       y       z     vdW  Elec       q    Type
REMARK                         _______ _______ _______ _____ _____    ______ ____
ROOT
ATOM      1  C   UNL     1       5.635   3.310  -1.431  0.00  0.00    +0.231 C 
ATOM      2  O   UNL     1       6.138   2.839  -0.433  0.00  0.00    -0.274 OA
ATOM      3  N   UNL     1       6.261   3.195  -2.619  0.00  0.00    -0.235 N 
ATOM      4  H   UNL     1       5.859   3.571  -3.418  0.00  0.00    +0.173 HD
ENDROOT
BRANCH   3   5
ATOM      5  N   UNL     1       7.493   2.532  -2.700  0.00  0.00    -0.246 N 
ATOM      6  H   UNL     1       7.894   2.155  -1.902  0.00  0.00    +0.172 HD
BRANCH   5   7
ATOM      7  C   UNL     1       8.119   2.417  -3.888  0.00  0.00    +0.151 C 
ATOM      8  S   UNL     1       9.624   1.607  -3.988  0.00  0.00    -0.017 S 
BRANCH   7   9
ATOM      9  N   UNL     1       7.561   2.940  -4.998  0.00  0.00    -0.296 N 
ATOM     10  H   UNL     1       6.680   3.344  -4.953  0.00  0.00    +0.154 HD
BRANCH   9  11
ATOM     11  C   UNL     1       8.251   2.900  -6.214  0.00  0.00    +0.033 A 
ATOM     12  C   UNL     1       8.306   4.029  -7.020  0.00  0.00    +0.024 A 
ATOM     13  C   UNL     1       8.994   3.989  -8.218  0.00  0.00    +0.017 A 
ATOM     14  C   UNL     1       9.617   2.821  -8.620  0.00  0.00    +0.018 A 
ATOM     15  C   UNL     1       9.559   1.692  -7.821  0.00  0.00    +0.017 A 
ATOM     16  C   UNL     1       8.878   1.729  -6.620  0.00  0.00    +0.024 A 
ATOM     17 BR   UNL     1      10.551   2.767 -10.263  0.00  0.00    -0.050 Br
ENDBRANCH   9  11
ENDBRANCH   7   9
ENDBRANCH   5   7
ENDBRANCH   3   5
BRANCH   1  18
ATOM     18  C   UNL     1       4.310   4.023  -1.344  0.00  0.00    +0.119 C 
BRANCH  18  19
ATOM     19  C   UNL     1       3.820   4.012   0.106  0.00  0.00    +0.131 C 
BRANCH  19  32
ATOM     20  C   UNL     1      -1.391   3.423  -0.159  0.00  0.00    +0.001 A 
ATOM     21  C   UNL     1      -0.412   2.451  -0.298  0.00  0.00    +0.002 A 
ATOM     22  C   UNL     1       0.922   2.783  -0.199  0.00  0.00    +0.026 A 
ATOM     23  C   UNL     1       1.297   4.100   0.047  0.00  0.00    +0.050 A 
ATOM     24  C   UNL     1       0.304   5.080   0.192  0.00  0.00    +0.008 A 
ATOM     25  C   UNL     1      -1.040   4.732   0.090  0.00  0.00    +0.010 A 
ATOM     26  C   UNL     1       1.006   6.353   0.439  0.00  0.00    +0.008 A 
ATOM     27  C   UNL     1       0.573   7.659   0.659  0.00  0.00    +0.010 A 
ATOM     28  C   UNL     1       1.497   8.661   0.864  0.00  0.00    +0.001 A 
ATOM     29  C   UNL     1       2.853   8.373   0.853  0.00  0.00    +0.002 A 
ATOM     30  C   UNL     1       3.295   7.085   0.637  0.00  0.00    +0.026 A 
ATOM     31  C   UNL     1       2.378   6.060   0.427  0.00  0.00    +0.050 A 
ATOM     32  N   UNL     1       2.533   4.706   0.191  0.00  0.00    -0.339 N 
ENDBRANCH  19  32
ENDBRANCH  18  19
ENDBRANCH   1  18
TORSDOF 7
