REMARK  Name = ZINC65383973
REMARK  5 active torsions:
REMARK  status: ('A' for Active; 'I' for Inactive)
REMARK    1  A    between atoms: C_1  and  C_2
REMARK    2  A    between atoms: C_2  and  C_9
REMARK    3  A    between atoms: C_3  and  C_4
REMARK    4  A    between atoms: C_9  and  N_10
REMARK    5  A    between atoms: N_13  and  C_16
REMARK                            x       y       z     vdW  Elec       q    Type
REMARK                         _______ _______ _______ _____ _____    ______ ____
ROOT
ATOM      1  N   UNL     1      -1.638  -1.020  -1.658  0.00  0.00    -0.296 NA
ATOM      2  C   UNL     1      -2.120   0.276  -2.154  0.00  0.00    +0.103 C 
ATOM      3  C   UNL     1      -3.642   0.220  -2.324  0.00  0.00    +0.122 C 
ATOM      4  N   UNL     1      -3.976  -0.934  -3.172  0.00  0.00    -0.313 N 
ATOM      5  C   UNL     1      -3.415  -2.246  -2.814  0.00  0.00    +0.122 C 
ATOM      6  C   UNL     1      -1.902  -2.093  -2.625  0.00  0.00    +0.103 C 
ENDROOT
BRANCH   4   7
ATOM      7  C   UNL     1      -4.795  -0.790  -4.274  0.00  0.00    +0.130 A 
ATOM      8  C   UNL     1      -5.630  -1.828  -4.661  0.00  0.00    +0.113 A 
ATOM      9  C   UNL     1      -6.447  -1.650  -5.782  0.00  0.00    +0.254 A 
ATOM     10  N   UNL     1      -6.394  -0.477  -6.448  0.00  0.00    -0.295 N 
ATOM     11  C   UNL     1      -5.557   0.510  -6.027  0.00  0.00    +0.195 A 
ATOM     12  N   UNL     1      -4.789   0.353  -4.970  0.00  0.00    -0.201 NA
ATOM     13  N   UNL     1      -5.516   1.693  -6.716  0.00  0.00    -0.329 N 
ATOM     14  O   UNL     1      -7.195  -2.541  -6.153  0.00  0.00    -0.268 OA
ATOM     15  H   UNL     1      -6.081   1.820  -7.495  0.00  0.00    +0.145 HD
ATOM     16  H   UNL     1      -4.923   2.403  -6.425  0.00  0.00    +0.145 HD
ATOM     17  H   UNL     1      -6.954  -0.338  -7.227  0.00  0.00    +0.172 HD
ENDBRANCH   4   7
BRANCH   1  18
ATOM     18  C   UNL     1      -0.210  -0.956  -1.319  0.00  0.00    +0.115 C 
BRANCH  18  20
ATOM     19  C   UNL     1       0.092   1.365  -0.163  0.00  0.00    +0.040 C 
ATOM     20  C   UNL     1      -0.027  -0.134  -0.069  0.00  0.00    -0.055 C 
ATOM     21  C   UNL     1       0.031  -0.733   1.117  0.00  0.00    +0.046 C 
BRANCH  21  22
ATOM     22  C   UNL     1       0.082   0.074   2.346  0.00  0.00    +0.128 A 
ATOM     23  C   UNL     1       0.049  -0.406   3.620  0.00  0.00    +0.049 A 
ATOM     24  C   UNL     1       0.120   0.710   4.476  0.00  0.00    +0.042 A 
ATOM     25  C   UNL     1       0.193   1.805   3.693  0.00  0.00    +0.195 A 
ATOM     26  O   UNL     1       0.175   1.417   2.407  0.00  0.00    -0.464 OA
ENDBRANCH  21  22
ENDBRANCH  18  20
ENDBRANCH   1  18
TORSDOF 4
