REMARK  Name = ZINC10445092
REMARK  9 active torsions:
REMARK  status: ('A' for Active; 'I' for Inactive)
REMARK    1  A    between atoms: C_1  and  C_2
REMARK    2  A    between atoms: C_2  and  C_3
REMARK    3  A    between atoms: C_2  and  C_4
REMARK    4  A    between atoms: C_4  and  C_5
REMARK    5  A    between atoms: C_5  and  C_7
REMARK    6  A    between atoms: C_5  and  N_24
REMARK    7  A    between atoms: C_12  and  C_15
REMARK    8  A    between atoms: N_17  and  C_18
REMARK    9  A    between atoms: C_25  and  C_27
REMARK                            x       y       z     vdW  Elec       q    Type
REMARK                         _______ _______ _______ _____ _____    ______ ____
ROOT
ATOM      1  C   UNL     1      -3.725  -2.479  -0.566  0.00  0.00    +0.236 C 
ATOM      2  O   UNL     1      -2.662  -2.965  -0.889  0.00  0.00    -0.274 OA
ATOM      3  N   UNL     1      -4.865  -3.176  -0.740  0.00  0.00    -0.300 N 
ATOM      4  C   UNL     1      -6.169  -2.564  -0.449  0.00  0.00    +0.108 C 
ATOM      5  C   UNL     1      -6.937  -3.466   0.516  0.00  0.00    +0.032 C 
ATOM      6  C   UNL     1      -7.021  -4.878  -0.067  0.00  0.00    +0.078 C 
ATOM      7  C   UNL     1      -5.611  -5.446  -0.241  0.00  0.00    +0.032 C 
ATOM      8  C   UNL     1      -4.828  -4.565  -1.220  0.00  0.00    +0.108 C 
ENDROOT
BRANCH   6   9
ATOM      9  C   UNL     1      -7.806  -5.762   0.869  0.00  0.00    +0.220 C 
ATOM     10  O   UNL     1      -7.287  -6.748   1.349  0.00  0.00    -0.275 OA
ATOM     11  N   UNL     1      -9.083  -5.456   1.172  0.00  0.00    -0.285 N 
ATOM     12  H   UNL     1      -9.476  -4.632   0.844  0.00  0.00    +0.155 HD
BRANCH  11  13
ATOM     13  C   UNL     1      -9.842  -6.328   1.960  0.00  0.00    +0.033 A 
ATOM     14  C   UNL     1     -11.202  -6.476   1.721  0.00  0.00    +0.023 A 
ATOM     15  C   UNL     1     -11.948  -7.341   2.498  0.00  0.00    +0.002 A 
ATOM     16  C   UNL     1     -11.345  -8.050   3.520  0.00  0.00    +0.000 A 
ATOM     17  C   UNL     1      -9.992  -7.901   3.764  0.00  0.00    +0.002 A 
ATOM     18  C   UNL     1      -9.239  -7.042   2.987  0.00  0.00    +0.023 A 
ENDBRANCH  11  13
ENDBRANCH   6   9
BRANCH   1  19
ATOM     19  C   UNL     1      -3.771  -1.096   0.031  0.00  0.00    +0.160 C 
BRANCH  19  20
ATOM     20  N   UNL     1      -2.592  -0.340  -0.398  0.00  0.00    -0.300 N 
ATOM     21  C   UNL     1      -2.633   1.007  -0.436  0.00  0.00    +0.246 C 
ATOM     22  O   UNL     1      -3.648   1.594  -0.114  0.00  0.00    -0.270 OA
ATOM     23  H   UNL     1      -1.782  -0.808  -0.654  0.00  0.00    +0.150 HD
BRANCH  21  24
ATOM     24  C   UNL     1      -1.444   1.770  -0.868  0.00  0.00    +0.055 A 
ATOM     25  C   UNL     1      -0.277   1.099  -1.239  0.00  0.00    +0.016 A 
ATOM     26  C   UNL     1       0.828   1.816  -1.646  0.00  0.00    +0.021 A 
ATOM     27  C   UNL     1       0.783   3.200  -1.685  0.00  0.00    +0.042 A 
ATOM     28  C   UNL     1      -0.368   3.873  -1.314  0.00  0.00    +0.040 A 
ATOM     29  C   UNL     1      -1.482   3.166  -0.904  0.00  0.00    +0.054 A 
ATOM     30 CL   UNL     1      -2.926   4.010  -0.440  0.00  0.00    -0.083 Cl
ATOM     31 CL   UNL     1       2.179   4.095  -2.199  0.00  0.00    -0.083 Cl
ENDBRANCH  21  24
ENDBRANCH  19  20
BRANCH  19  32
ATOM     32  C   UNL     1      -3.783  -1.200   1.558  0.00  0.00    +0.034 C 
BRANCH  32  34
ATOM     33  C   UNL     1      -5.389   0.701   1.780  0.00  0.00    +0.007 C 
ATOM     34  C   UNL     1      -3.999   0.189   2.161  0.00  0.00    -0.015 C 
ATOM     35  C   UNL     1      -3.887   0.106   3.685  0.00  0.00    +0.007 C 
ENDBRANCH  32  34
ENDBRANCH  19  32
ENDBRANCH   1  19
TORSDOF 7
