REMARK  Name = ZINC34747351
REMARK  6 active torsions:
REMARK  status: ('A' for Active; 'I' for Inactive)
REMARK    1  A    between atoms: C_1  and  C_2
REMARK    2  A    between atoms: C_5  and  C_33
REMARK    3  A    between atoms: C_6  and  C_8
REMARK    4  A    between atoms: C_8  and  N_9
REMARK    5  A    between atoms: N_28  and  C_29
REMARK    6  A    between atoms: C_29  and  C_30
REMARK                            x       y       z     vdW  Elec       q    Type
REMARK                         _______ _______ _______ _____ _____    ______ ____
ROOT
ATOM      1  N   UNL     1       1.508  -3.121   2.693  0.00  0.00    +0.384 N 
ATOM      2  C   UNL     1       2.445  -2.005   2.877  0.00  0.00    -0.059 C 
ATOM      3  C   UNL     1       3.853  -2.558   3.123  0.00  0.00    +0.089 C 
ATOM      4  N   UNL     1       3.795  -3.495   4.255  0.00  0.00    -0.304 N 
ATOM      5  C   UNL     1       2.771  -4.551   4.230  0.00  0.00    +0.089 C 
ATOM      6  C   UNL     1       1.414  -3.904   3.932  0.00  0.00    -0.059 C 
ATOM      7  C   UNL     1       4.672  -3.387   5.306  0.00  0.00    +0.202 A 
ATOM      8  N   UNL     1       4.360  -2.630   6.337  0.00  0.00    -0.208 NA
ATOM      9  C   UNL     1       5.190  -2.508   7.367  0.00  0.00    +0.117 A 
ATOM     10  C   UNL     1       6.427  -3.171   7.412  0.00  0.00    +0.076 A 
ATOM     11  C   UNL     1       7.234  -2.939   8.611  0.00  0.00    -0.023 A 
ATOM     12  C   UNL     1       6.715  -2.120   9.548  0.00  0.00    -0.004 A 
ATOM     13  S   UNL     1       5.145  -1.615   8.900  0.00  0.00    -0.073 S 
ATOM     14  C   UNL     1       7.337  -1.725  10.853  0.00  0.00    +0.043 C 
ATOM     15  C   UNL     1       8.501  -2.683  11.145  0.00  0.00    +0.005 C 
ATOM     16  C   UNL     1       9.363  -2.807   9.885  0.00  0.00    +0.005 C 
ATOM     17  C   UNL     1       8.602  -3.584   8.811  0.00  0.00    +0.037 C 
ATOM     18  C   UNL     1       6.739  -3.986   6.278  0.00  0.00    +0.264 A 
ATOM     19  O   UNL     1       7.791  -4.600   6.228  0.00  0.00    -0.267 OA
ATOM     20  N   UNL     1       5.851  -4.071   5.269  0.00  0.00    -0.271 N 
ATOM     21  H   UNL     1       1.836  -3.714   1.946  0.00  0.00    -0.081 HD
ENDROOT
BRANCH   1  22
ATOM     22  C   UNL     1       0.181  -2.592   2.349  0.00  0.00    -0.043 C 
BRANCH  22  28
ATOM     23  C   UNL     1       0.500   1.632  -0.317  0.00  0.00    +0.044 C 
ATOM     24  C   UNL     1       0.402   0.129  -0.259  0.00  0.00    -0.050 A 
ATOM     25  C   UNL     1       0.374  -0.607  -1.429  0.00  0.00    +0.003 A 
ATOM     26  C   UNL     1       0.284  -1.986  -1.376  0.00  0.00    +0.004 A 
ATOM     27  C   UNL     1       0.222  -2.628  -0.153  0.00  0.00    -0.049 A 
ATOM     28  C   UNL     1       0.250  -1.892   1.016  0.00  0.00    -0.061 A 
ATOM     29  C   UNL     1       0.344  -0.513   0.963  0.00  0.00    +0.005 A 
ATOM     30  C   UNL     1       0.122  -4.130  -0.096  0.00  0.00    +0.044 C 
ENDBRANCH  22  28
ENDBRANCH   1  22
BRANCH  20  31
ATOM     31  C   UNL     1       6.161  -4.908   4.108  0.00  0.00    +0.223 C 
BRANCH  31  32
ATOM     32  C   UNL     1       6.966  -4.110   3.114  0.00  0.00    +0.230 C 
ATOM     33  O   UNL     1       7.253  -2.956   3.353  0.00  0.00    -0.274 OA
ATOM     34  N   UNL     1       7.368  -4.679   1.960  0.00  0.00    -0.328 N 
ATOM     35  H   UNL     1       7.138  -5.602   1.770  0.00  0.00    +0.145 HD
ATOM     36  H   UNL     1       7.886  -4.166   1.321  0.00  0.00    +0.145 HD
ENDBRANCH  31  32
ENDBRANCH  20  31
TORSDOF 4
