REMARK  Name = ZINC39634749
REMARK  11 active torsions:
REMARK  status: ('A' for Active; 'I' for Inactive)
REMARK    1  A    between atoms: C_1  and  C_2
REMARK    2  A    between atoms: C_2  and  C_3
REMARK    3  A    between atoms: C_2  and  N_4
REMARK    4  A    between atoms: N_4  and  C_5
REMARK    5  A    between atoms: N_4  and  C_30
REMARK    6  A    between atoms: C_5  and  C_6
REMARK    7  A    between atoms: C_6  and  N_7
REMARK    8  A    between atoms: C_8  and  C_10
REMARK    9  A    between atoms: C_21  and  C_23
REMARK   10  A    between atoms: C_30  and  C_31
REMARK   11  A    between atoms: C_30  and  C_32
REMARK                            x       y       z     vdW  Elec       q    Type
REMARK                         _______ _______ _______ _____ _____    ______ ____
ROOT
ATOM      1  C   UNL     1      -4.386   1.017  -2.949  0.00  0.00    +0.100 C 
ATOM      2  C   UNL     1      -3.604   1.910  -3.939  0.00  0.00    +0.121 C 
ATOM      3  N   UNL     1      -4.633   2.789  -4.543  0.00  0.00    -0.296 N 
ATOM      4  C   UNL     1      -5.536   3.128  -3.416  0.00  0.00    +0.115 C 
ATOM      5  C   UNL     1      -5.652   1.820  -2.608  0.00  0.00    -0.004 C 
ATOM      6  C   UNL     1      -6.898   1.047  -3.032  0.00  0.00    -0.010 C 
ATOM      7  C   UNL     1      -8.145   1.840  -2.631  0.00  0.00    -0.082 C 
ATOM      8  N   UNL     1      -8.147   2.052  -1.179  0.00  0.00    +0.379 N 
ATOM      9  C   UNL     1      -6.995   2.875  -0.791  0.00  0.00    -0.082 C 
ATOM     10  C   UNL     1      -5.698   2.126  -1.114  0.00  0.00    -0.010 C 
ATOM     11  C   UNL     1      -4.727   3.190  -5.826  0.00  0.00    +0.247 C 
ATOM     12  O   UNL     1      -3.970   2.735  -6.662  0.00  0.00    -0.270 OA
ATOM     13  H   UNL     1      -8.999   2.521  -0.910  0.00  0.00    -0.086 HD
ATOM     14  H   UNL     1      -8.094   1.160  -0.710  0.00  0.00    -0.086 HD
ENDROOT
BRANCH  11  15
ATOM     15  C   UNL     1      -5.749   4.183  -6.217  0.00  0.00    +0.037 A 
ATOM     16  C   UNL     1      -6.336   5.003  -5.251  0.00  0.00    +0.014 A 
ATOM     17  C   UNL     1      -7.289   5.927  -5.622  0.00  0.00    +0.016 A 
ATOM     18  C   UNL     1      -7.666   6.043  -6.949  0.00  0.00    +0.018 A 
ATOM     19  C   UNL     1      -7.088   5.233  -7.912  0.00  0.00    +0.016 A 
ATOM     20  C   UNL     1      -6.129   4.309  -7.554  0.00  0.00    +0.014 A 
ATOM     21 BR   UNL     1      -8.975   7.313  -7.450  0.00  0.00    -0.050 Br
ENDBRANCH  11  15
BRANCH   1  23
ATOM     22  N   UNL     1      -3.727  -0.371  -1.010  0.00  0.00    -0.317 N 
ATOM     23  C   UNL     1      -3.569   0.772  -1.706  0.00  0.00    +0.218 C 
ATOM     24  O   UNL     1      -2.770   1.604  -1.332  0.00  0.00    -0.275 OA
ATOM     25  H   UNL     1      -4.366  -1.037  -1.310  0.00  0.00    +0.149 HD
BRANCH  22  26
ATOM     26  C   UNL     1      -2.934  -0.609   0.198  0.00  0.00    +0.085 C 
BRANCH  26  27
ATOM     27  C   UNL     1      -3.304  -1.970   0.791  0.00  0.00    -0.059 C 
BRANCH  27  28
ATOM     28  N   UNL     1      -2.560  -2.178   2.041  0.00  0.00    +0.384 N 
ATOM     29  H   UNL     1      -1.571  -2.091   1.862  0.00  0.00    -0.081 HD
BRANCH  28  31
ATOM     30  C   UNL     1      -2.424  -4.570   1.536  0.00  0.00    -0.014 C 
ATOM     31  C   UNL     1      -2.847  -3.520   2.565  0.00  0.00    -0.074 C 
ATOM     32  C   UNL     1      -2.070  -3.737   3.865  0.00  0.00    -0.014 C 
ENDBRANCH  28  31
BRANCH  28  33
ATOM     33  C   UNL     1      -2.969  -1.169   3.028  0.00  0.00    -0.074 C 
ATOM     34  C   UNL     1      -4.254  -1.626   3.722  0.00  0.00    -0.014 C 
ATOM     35  C   UNL     1      -1.861  -0.995   4.069  0.00  0.00    -0.014 C 
ENDBRANCH  28  33
ENDBRANCH  27  28
ENDBRANCH  26  27
ENDBRANCH  22  26
ENDBRANCH   1  23
TORSDOF 7
