REMARK  Name = ZINC54420878
REMARK  4 active torsions:
REMARK  status: ('A' for Active; 'I' for Inactive)
REMARK    1  A    between atoms: C_5  and  O_16
REMARK    2  A    between atoms: C_6  and  N_7
REMARK    3  A    between atoms: C_8  and  C_10
REMARK    4  A    between atoms: O_16  and  C_17
REMARK                            x       y       z     vdW  Elec       q    Type
REMARK                         _______ _______ _______ _____ _____    ______ ____
ROOT
ATOM      1  C   UNL     1      -0.027   1.389  -0.003  0.00  0.00    +0.047 A 
ATOM      2  C   UNL     1       1.159   2.102  -0.019  0.00  0.00    +0.044 A 
ATOM      3  C   UNL     1       2.370   1.435  -0.041  0.00  0.00    +0.039 A 
ATOM      4  C   UNL     1       2.403   0.051  -0.045  0.00  0.00    +0.063 A 
ATOM      5  C   UNL     1       1.219  -0.670  -0.029  0.00  0.00    +0.162 A 
ATOM      6  C   UNL     1      -0.001   0.002  -0.007  0.00  0.00    +0.079 A 
ATOM      7 BR   UNL     1       4.062  -0.856  -0.075  0.00  0.00    -0.046 Br
ATOM      8 CL   UNL     1       1.125   3.837  -0.014  0.00  0.00    -0.083 Cl
ENDROOT
BRANCH   6   9
ATOM      9  N   UNL     1      -1.200  -0.722   0.010  0.00  0.00    -0.277 N 
ATOM     10  C   UNL     1      -2.262  -0.251   0.693  0.00  0.00    +0.274 C 
ATOM     11  O   UNL     1      -2.207   0.840   1.226  0.00  0.00    -0.268 OA
ATOM     12  H   UNL     1      -1.266  -1.563  -0.469  0.00  0.00    +0.155 HD
BRANCH  10  13
ATOM     13  C   UNL     1      -3.497  -1.062   0.794  0.00  0.00    +0.210 A 
ATOM     14  C   UNL     1      -4.726  -0.674   1.496  0.00  0.00    +0.192 A 
ATOM     15  N   UNL     1      -5.594  -1.640   1.367  0.00  0.00    -0.033 NA
ATOM     16  O   UNL     1      -4.992  -2.668   0.601  0.00  0.00    -0.240 OA
ATOM     17  N   UNL     1      -3.682  -2.245   0.267  0.00  0.00    -0.042 NA
ATOM     18  N   UNL     1      -4.929   0.516   2.180  0.00  0.00    -0.339 N 
ATOM     19  H   UNL     1      -4.222   1.178   2.223  0.00  0.00    +0.144 HD
ATOM     20  H   UNL     1      -5.779   0.685   2.616  0.00  0.00    +0.144 HD
ENDBRANCH  10  13
ENDBRANCH   6   9
BRANCH   5  21
ATOM     21  O   UNL     1       1.250  -2.029  -0.034  0.00  0.00    -0.431 OA
BRANCH  21  22
ATOM     22  C   UNL     1       1.285  -2.683   1.236  0.00  0.00    +0.541 C 
ATOM     23  F   UNL     1       2.430  -2.284   1.934  0.00  0.00    -0.166 F 
ATOM     24  F   UNL     1       0.146  -2.335   1.971  0.00  0.00    -0.166 F 
ENDBRANCH  21  22
ENDBRANCH   5  21
TORSDOF 4
