REMARK  Name = ZINC59830054
REMARK  9 active torsions:
REMARK  status: ('A' for Active; 'I' for Inactive)
REMARK    1  A    between atoms: C_2  and  C_3
REMARK    2  A    between atoms: C_3  and  N_4
REMARK    3  A    between atoms: C_6  and  C_9
REMARK    4  A    between atoms: N_10  and  N_11
REMARK    5  A    between atoms: C_15  and  S_18
REMARK    6  A    between atoms: N_16  and  N_17
REMARK    7  A    between atoms: S_18  and  C_19
REMARK    8  A    between atoms: C_19  and  C_20
REMARK    9  A    between atoms: N_22  and  C_23
REMARK                            x       y       z     vdW  Elec       q    Type
REMARK                         _______ _______ _______ _____ _____    ______ ____
ROOT
ATOM      1  N   UNL     1       1.970  -6.590   4.321  0.00  0.00    -0.204 N 
ATOM      2  C   UNL     1       1.890  -6.960   5.655  0.00  0.00    +0.254 A 
ATOM      3  N   UNL     1       1.638  -6.159   6.663  0.00  0.00    -0.109 NA
ATOM      4  N   UNL     1       1.644  -6.925   7.836  0.00  0.00    -0.119 NA
ATOM      5  C   UNL     1       1.899  -8.168   7.507  0.00  0.00    +0.210 A 
ATOM      6  N   UNL     1       2.052  -8.223   6.151  0.00  0.00    -0.211 N 
ATOM      7  H   UNL     1       2.158  -7.258   3.643  0.00  0.00    +0.177 HD
ENDROOT
BRANCH   6   8
ATOM      8  N   UNL     1       2.323  -9.344   5.418  0.00  0.00    -0.294 N 
ATOM      9  H   UNL     1       3.318  -9.483   5.324  0.00  0.00    +0.163 HD
ATOM     10  H   UNL     1       1.881 -10.156   5.823  0.00  0.00    +0.163 HD
ENDBRANCH   6   8
BRANCH   1  12
ATOM     11  C   UNL     1       1.857  -4.906   2.703  0.00  0.00    +0.141 C 
ATOM     12  N   UNL     1       1.781  -5.252   3.952  0.00  0.00    -0.187 NA
BRANCH  11  15
ATOM     13  N   UNL     1       1.472  -1.661   1.120  0.00  0.00    -0.267 N 
ATOM     14  C   UNL     1       1.708  -2.986   1.035  0.00  0.00    +0.118 A 
ATOM     15  C   UNL     1       1.658  -3.496   2.315  0.00  0.00    +0.032 A 
ATOM     16  C   UNL     1       1.379  -2.420   3.184  0.00  0.00    +0.143 A 
ATOM     17  N   UNL     1       1.277  -1.333   2.466  0.00  0.00    -0.179 NA
BRANCH  13  18
ATOM     18  C   UNL     1       1.433  -0.724  -0.005  0.00  0.00    +0.170 C 
BRANCH  18  20
ATOM     19  C   UNL     1       0.110   1.328   0.013  0.00  0.00    +0.006 C 
ATOM     20  C   UNL     1       0.122   0.018   0.005  0.00  0.00    -0.012 C 
ENDBRANCH  18  20
ENDBRANCH  13  18
ENDBRANCH  11  15
ENDBRANCH   1  12
BRANCH   5  21
ATOM     21  S   UNL     1       2.018  -9.530   8.619  0.00  0.00    -0.075 S 
BRANCH  21  22
ATOM     22  C   UNL     1       1.710  -8.795  10.248  0.00  0.00    +0.173 C 
BRANCH  22  23
ATOM     23  C   UNL     1       1.783  -9.867  11.305  0.00  0.00    +0.228 C 
ATOM     24  O   UNL     1       2.020 -11.014  10.990  0.00  0.00    -0.275 OA
ATOM     25  N   UNL     1       1.585  -9.550  12.600  0.00  0.00    -0.284 N 
ATOM     26  H   UNL     1       1.461  -8.624  12.860  0.00  0.00    +0.155 HD
BRANCH  25  27
ATOM     27  C   UNL     1       1.560 -10.559  13.571  0.00  0.00    +0.047 A 
ATOM     28  C   UNL     1       2.380 -11.672  13.439  0.00  0.00    +0.024 A 
ATOM     29  C   UNL     1       2.353 -12.665  14.399  0.00  0.00    +0.002 A 
ATOM     30  C   UNL     1       1.510 -12.552  15.490  0.00  0.00    +0.001 A 
ATOM     31  C   UNL     1       0.692 -11.445  15.624  0.00  0.00    +0.017 A 
ATOM     32  C   UNL     1       0.719 -10.445  14.671  0.00  0.00    +0.039 A 
ATOM     33 BR   UNL     1      -0.395  -8.928  14.858  0.00  0.00    -0.048 Br
ENDBRANCH  25  27
ENDBRANCH  22  23
ENDBRANCH  21  22
ENDBRANCH   5  21
TORSDOF 9
