REMARK  Name = ZINC65034971
REMARK  5 active torsions:
REMARK  status: ('A' for Active; 'I' for Inactive)
REMARK    1  A    between atoms: C_1  and  C_2
REMARK    2  A    between atoms: C_4  and  C_32
REMARK    3  A    between atoms: N_13  and  C_18
REMARK    4  A    between atoms: C_18  and  C_19
REMARK    5  A    between atoms: N_21  and  C_22
REMARK                            x       y       z     vdW  Elec       q    Type
REMARK                         _______ _______ _______ _____ _____    ______ ____
ROOT
ATOM      1  C   UNL     1       0.024   1.500   0.013  0.00  0.00    +0.044 C 
ATOM      2  C   UNL     1       0.035  -0.007   0.004  0.00  0.00    -0.049 A 
ATOM      3  C   UNL     1       0.031  -0.688  -1.205  0.00  0.00    +0.008 A 
ATOM      4  C   UNL     1       0.041  -2.065  -1.237  0.00  0.00    -0.026 A 
ATOM      5  C   UNL     1       0.055  -2.783  -0.045  0.00  0.00    +0.053 A 
ATOM      6  C   UNL     1       0.058  -2.087   1.177  0.00  0.00    +0.046 A 
ATOM      7  C   UNL     1       0.053  -0.692   1.187  0.00  0.00    +0.017 A 
ATOM      8  C   UNL     1       0.072  -2.870   2.421  0.00  0.00    +0.191 A 
ATOM      9  O   UNL     1       0.076  -2.316   3.509  0.00  0.00    -0.287 OA
ATOM     10  C   UNL     1       0.081  -4.286   2.327  0.00  0.00    +0.002 A 
ATOM     11  H   UNL     1       0.067  -4.628  -0.884  0.00  0.00    +0.166 HD
ATOM     12  C   UNL     1       0.103  -5.072   3.612  0.00  0.00    -0.037 C 
ATOM     13  N   UNL     1      -0.322  -6.455   3.385  0.00  0.00    +0.388 N 
ATOM     14  C   UNL     1       0.498  -7.028   2.306  0.00  0.00    -0.072 C 
ATOM     15  C   UNL     1       0.075  -6.387   0.986  0.00  0.00    +0.035 C 
ATOM     16  C   UNL     1       0.074  -4.881   1.118  0.00  0.00    +0.020 A 
ATOM     17  N   UNL     1       0.066  -4.156  -0.036  0.00  0.00    -0.357 N 
ATOM     18  C   UNL     1       0.036  -2.791  -2.558  0.00  0.00    +0.046 C 
ATOM     19  H   UNL     1      -1.294  -6.471   3.116  0.00  0.00    -0.081 HD
ENDROOT
BRANCH  13  20
ATOM     20  C   UNL     1      -0.134  -7.236   4.615  0.00  0.00    +0.019 C 
BRANCH  20  21
ATOM     21  C   UNL     1      -1.052  -6.710   5.689  0.00  0.00    +0.201 C 
ATOM     22  O   UNL     1      -1.789  -5.777   5.453  0.00  0.00    -0.278 OA
ATOM     23  N   UNL     1      -1.052  -7.278   6.912  0.00  0.00    -0.287 N 
ATOM     24  H   UNL     1      -0.513  -8.066   7.081  0.00  0.00    +0.155 HD
BRANCH  23  25
ATOM     25  C   UNL     1      -1.833  -6.729   7.938  0.00  0.00    +0.037 A 
ATOM     26  C   UNL     1      -3.067  -6.164   7.646  0.00  0.00    +0.027 A 
ATOM     27  C   UNL     1      -3.836  -5.622   8.657  0.00  0.00    +0.051 A 
ATOM     28  C   UNL     1      -3.379  -5.641   9.966  0.00  0.00    +0.162 A 
ATOM     29  C   UNL     1      -2.145  -6.208  10.262  0.00  0.00    +0.164 A 
ATOM     30  C   UNL     1      -1.375  -6.755   9.247  0.00  0.00    +0.072 A 
ATOM     31  O   UNL     1      -1.683  -6.243  11.542  0.00  0.00    -0.485 OA
ATOM     32  C   UNL     1      -2.312  -5.360  12.478  0.00  0.00    +0.270 C 
ATOM     33  C   UNL     1      -3.832  -5.470  12.295  0.00  0.00    +0.270 C 
ATOM     34  O   UNL     1      -4.150  -5.098  10.950  0.00  0.00    -0.485 OA
ENDBRANCH  23  25
ENDBRANCH  20  21
ENDBRANCH  13  20
TORSDOF 3
