REMARK  Name = ZINC36206054
REMARK  19 active torsions:
REMARK  status: ('A' for Active; 'I' for Inactive)
REMARK    1  A    between atoms: C_1  and  C_2
REMARK    2  A    between atoms: C_2  and  O_3
REMARK    3  A    between atoms: O_3  and  C_4
REMARK    4  A    between atoms: C_4  and  C_5
REMARK    5  A    between atoms: C_5  and  C_7
REMARK    6  A    between atoms: C_5  and  O_36
REMARK    7  A    between atoms: C_7  and  N_8
REMARK    8  A    between atoms: N_8  and  C_9
REMARK    9  A    between atoms: N_8  and  C_14
REMARK   10  A    between atoms: C_9  and  C_10
REMARK   11  A    between atoms: C_10  and  C_11
REMARK   12  A    between atoms: C_11  and  C_12
REMARK   13  A    between atoms: C_11  and  C_13
REMARK   14  A    between atoms: C_14  and  C_15
REMARK   15  A    between atoms: C_21  and  C_26
REMARK   16  A    between atoms: C_29  and  O_34
REMARK   17  A    between atoms: C_30  and  O_32
REMARK   18  A    between atoms: O_32  and  C_33
REMARK   19  A    between atoms: O_34  and  C_35
REMARK                            x       y       z     vdW  Elec       q    Type
REMARK                         _______ _______ _______ _____ _____    ______ ____
ROOT
ATOM      1  C   UNL     1      -6.311  -5.154   1.580  0.00  0.00    +0.094 A 
ATOM      2  N   UNL     1      -6.899  -6.114   2.339  0.00  0.00    -0.312 N 
ATOM      3  H   UNL     1      -6.510  -7.002   2.368  0.00  0.00    +0.170 HD
ATOM      4  C   UNL     1      -8.011  -5.858   3.053  0.00  0.00    +0.260 A 
ATOM      5  O   UNL     1      -8.527  -6.731   3.730  0.00  0.00    -0.267 OA
ATOM      6  C   UNL     1      -8.579  -4.545   3.005  0.00  0.00    +0.080 A 
ATOM      7  C   UNL     1      -9.762  -4.026   3.680  0.00  0.00    +0.004 A 
ATOM      8  C   UNL     1     -10.111  -2.732   3.481  0.00  0.00    +0.056 A 
ATOM      9  S   UNL     1      -8.857  -2.133   2.366  0.00  0.00    -0.076 S 
ATOM     10  C   UNL     1      -7.902  -3.619   2.194  0.00  0.00    +0.116 A 
ATOM     11  N   UNL     1      -6.803  -3.946   1.520  0.00  0.00    -0.229 NA
ENDROOT
BRANCH   7  12
ATOM     12  C   UNL     1     -10.570  -4.899   4.566  0.00  0.00    -0.013 A 
ATOM     13  C   UNL     1     -10.984  -6.153   4.122  0.00  0.00    +0.012 A 
ATOM     14  C   UNL     1     -11.735  -6.965   4.947  0.00  0.00    +0.050 A 
ATOM     15  C   UNL     1     -12.080  -6.535   6.220  0.00  0.00    +0.162 A 
ATOM     16  C   UNL     1     -11.668  -5.283   6.669  0.00  0.00    +0.162 A 
ATOM     17  C   UNL     1     -10.911  -4.468   5.847  0.00  0.00    +0.058 A 
BRANCH  16  18
ATOM     18  O   UNL     1     -12.007  -4.863   7.918  0.00  0.00    -0.491 OA
ATOM     19  C   UNL     1     -11.551  -3.568   8.313  0.00  0.00    +0.277 C 
ENDBRANCH  16  18
BRANCH  15  20
ATOM     20  O   UNL     1     -12.821  -7.337   7.030  0.00  0.00    -0.491 OA
ATOM     21  C   UNL     1     -13.209  -8.608   6.505  0.00  0.00    +0.277 C 
ENDBRANCH  15  20
ENDBRANCH   7  12
BRANCH   1  22
ATOM     22  C   UNL     1      -5.067  -5.487   0.798  0.00  0.00    -0.003 C 
BRANCH  22  23
ATOM     23  N   UNL     1      -4.670  -4.325  -0.009  0.00  0.00    +0.386 N 
ATOM     24  H   UNL     1      -4.593  -3.514   0.586  0.00  0.00    -0.081 HD
BRANCH  23  25
ATOM     25  C   UNL     1      -3.373  -4.591  -0.645  0.00  0.00    -0.044 C 
BRANCH  25  26
ATOM     26  C   UNL     1      -2.893  -3.332  -1.370  0.00  0.00    +0.124 C 
BRANCH  26  27
ATOM     27  O   UNL     1      -3.743  -3.072  -2.488  0.00  0.00    -0.391 OA
ATOM     28  H   UNL     1      -3.765  -3.786  -3.140  0.00  0.00    +0.210 HD
ENDBRANCH  26  27
BRANCH  26  29
ATOM     29  C   UNL     1      -1.458  -3.541  -1.858  0.00  0.00    +0.189 C 
BRANCH  29  30
ATOM     30  O   UNL     1      -0.968  -2.327  -2.431  0.00  0.00    -0.378 OA
BRANCH  30  32
ATOM     31  C   UNL     1       0.788  -1.064  -3.509  0.00  0.00    +0.034 C 
ATOM     32  C   UNL     1       0.371  -2.414  -2.921  0.00  0.00    +0.156 C 
ENDBRANCH  30  32
ENDBRANCH  29  30
ENDBRANCH  26  29
ENDBRANCH  25  26
ENDBRANCH  23  25
BRANCH  23  33
ATOM     33  C   UNL     1      -5.682  -4.080  -1.045  0.00  0.00    -0.078 C 
BRANCH  33  34
ATOM     34  C   UNL     1      -5.681  -5.238  -2.044  0.00  0.00    -0.016 C 
BRANCH  34  35
ATOM     35  C   UNL     1      -6.754  -4.995  -3.108  0.00  0.00    -0.019 C 
ATOM     36  C   UNL     1      -6.389  -3.755  -3.926  0.00  0.00    +0.007 C 
ATOM     37  C   UNL     1      -6.838  -6.210  -4.034  0.00  0.00    +0.007 C 
ENDBRANCH  34  35
ENDBRANCH  33  34
ENDBRANCH  23  33
ENDBRANCH  22  23
ENDBRANCH   1  22
TORSDOF 14
