REMARK  Name = ZINC66722866
REMARK  9 active torsions:
REMARK  status: ('A' for Active; 'I' for Inactive)
REMARK    1  A    between atoms: C_1  and  C_2
REMARK    2  A    between atoms: C_2  and  C_3
REMARK    3  A    between atoms: C_2  and  C_4
REMARK    4  A    between atoms: C_4  and  C_6
REMARK    5  A    between atoms: C_4  and  N_18
REMARK    6  A    between atoms: N_8  and  S_9
REMARK    7  A    between atoms: S_9  and  C_12
REMARK    8  A    between atoms: C_19  and  O_21
REMARK    9  A    between atoms: O_21  and  C_22
REMARK                            x       y       z     vdW  Elec       q    Type
REMARK                         _______ _______ _______ _____ _____    ______ ____
ROOT
ATOM      1  C   UNL     1      -1.413  -2.041   0.005  0.00  0.00    +0.285 C 
ATOM      2  O   UNL     1      -1.494  -2.723   1.166  0.00  0.00    -0.267 OA
ATOM      3  N   UNL     1      -1.317  -2.678  -1.113  0.00  0.00    -0.088 NA
ENDROOT
BRANCH   3   4
ATOM      4  S   UNL     1      -1.295  -4.334  -1.122  0.00  0.00    +0.108 S 
ATOM      5  O   UNL     1      -0.091  -4.728  -0.478  0.00  0.00    -0.146 OA
ATOM      6  O   UNL     1      -2.574  -4.760  -0.672  0.00  0.00    -0.146 OA
BRANCH   4   7
ATOM      7  C   UNL     1      -1.157  -4.844  -2.803  0.00  0.00    +0.151 A 
ATOM      8  C   UNL     1      -0.041  -5.082  -3.534  0.00  0.00    +0.038 A 
ATOM      9  C   UNL     1      -0.174  -5.478  -4.852  0.00  0.00    +0.030 A 
ATOM     10  C   UNL     1      -1.418  -5.616  -5.374  0.00  0.00    +0.080 A 
ATOM     11  S   UNL     1      -2.452  -5.188  -3.983  0.00  0.00    -0.056 S 
ATOM     12 CL   UNL     1      -1.884  -6.093  -6.977  0.00  0.00    -0.076 Cl
ENDBRANCH   4   7
ENDBRANCH   3   4
BRANCH   1  13
ATOM     13  C   UNL     1      -1.433  -0.534   0.013  0.00  0.00    +0.171 C 
BRANCH  13  14
ATOM     14  N   UNL     1      -2.119  -0.061   1.218  0.00  0.00    -0.269 N 
ATOM     15  C   UNL     1      -2.704   1.153   1.228  0.00  0.00    +0.401 C 
ATOM     16  O   UNL     1      -2.663   1.856   0.238  0.00  0.00    -0.226 OA
ATOM     17  H   UNL     1      -2.152  -0.622   2.009  0.00  0.00    +0.153 HD
BRANCH  15  18
ATOM     18  O   UNL     1      -3.334   1.587   2.336  0.00  0.00    -0.454 OA
ATOM     19  C   UNL     1      -3.932   2.884   2.276  0.00  0.00    +0.282 C 
ENDBRANCH  15  18
ENDBRANCH  13  14
BRANCH  13  21
ATOM     20  C   UNL     1      -0.019   1.526   0.010  0.00  0.00    +0.009 C 
ATOM     21  C   UNL     1       0.002  -0.004   0.002  0.00  0.00    +0.013 C 
ATOM     22  C   UNL     1       0.742  -0.511   1.242  0.00  0.00    +0.009 C 
ENDBRANCH  13  21
ENDBRANCH   1  13
TORSDOF 6
