REMARK  Name = ZINC17097811
REMARK  6 active torsions:
REMARK  status: ('A' for Active; 'I' for Inactive)
REMARK    1  A    between atoms: C_1  and  C_2
REMARK    2  A    between atoms: C_2  and  C_13
REMARK    3  A    between atoms: N_3  and  N_4
REMARK    4  A    between atoms: C_5  and  C_7
REMARK    5  A    between atoms: C_16  and  N_19
REMARK    6  A    between atoms: C_20  and  C_22
REMARK                            x       y       z     vdW  Elec       q    Type
REMARK                         _______ _______ _______ _____ _____    ______ ____
ROOT
ATOM      1  C   UNL     1      -5.595   4.204   0.098  0.00  0.00    -0.002 A 
ATOM      2  C   UNL     1      -6.636   5.135   0.039  0.00  0.00    +0.011 A 
ATOM      3  C   UNL     1      -6.352   6.483   0.047  0.00  0.00    +0.024 A 
ATOM      4  C   UNL     1      -5.032   6.918   0.101  0.00  0.00    +0.033 A 
ATOM      5  C   UNL     1      -3.994   5.994   0.153  0.00  0.00    +0.024 A 
ATOM      6  C   UNL     1      -4.270   4.645   0.152  0.00  0.00    +0.011 A 
ENDROOT
BRANCH   4   7
ATOM      7  N   UNL     1      -4.749   8.286   0.103  0.00  0.00    -0.285 N 
ATOM      8  C   UNL     1      -5.545   9.139   0.779  0.00  0.00    +0.220 C 
ATOM      9  O   UNL     1      -6.454   8.710   1.458  0.00  0.00    -0.275 OA
ATOM     10  H   UNL     1      -3.979   8.623  -0.382  0.00  0.00    +0.155 HD
BRANCH   8  11
ATOM     11  C   UNL     1      -5.305  10.624   0.691  0.00  0.00    +0.075 C 
ATOM     12  C   UNL     1      -3.900  10.945   1.203  0.00  0.00    +0.013 C 
ATOM     13  C   UNL     1      -3.657  12.453   1.113  0.00  0.00    +0.001 C 
ATOM     14  C   UNL     1      -4.691  13.188   1.968  0.00  0.00    +0.000 C 
ATOM     15  C   UNL     1      -6.097  12.867   1.455  0.00  0.00    +0.001 C 
ATOM     16  C   UNL     1      -6.340  11.359   1.545  0.00  0.00    +0.013 C 
ENDBRANCH   8  11
ENDBRANCH   4   7
BRANCH   1  18
ATOM     17  C   UNL     1      -7.035   2.228  -0.732  0.00  0.00    +0.068 C 
ATOM     18  C   UNL     1      -5.894   2.760   0.096  0.00  0.00    +0.063 C 
ATOM     19  N   UNL     1      -5.175   1.948   0.808  0.00  0.00    -0.184 NA
BRANCH  19  20
ATOM     20  N   UNL     1      -4.205   2.454   1.683  0.00  0.00    -0.200 N 
ATOM     21  C   UNL     1      -3.382   1.611   2.339  0.00  0.00    +0.299 C 
ATOM     22  O   UNL     1      -3.483   0.409   2.171  0.00  0.00    -0.265 OA
ATOM     23  H   UNL     1      -4.124   3.412   1.817  0.00  0.00    +0.178 HD
BRANCH  21  24
ATOM     24  C   UNL     1      -2.368   2.140   3.253  0.00  0.00    +0.192 A 
ATOM     25  C   UNL     1      -1.475   1.401   3.977  0.00  0.00    +0.056 A 
ATOM     26  C   UNL     1      -0.695   2.311   4.706  0.00  0.00    +0.058 A 
ATOM     27  C   UNL     1      -1.143   3.551   4.404  0.00  0.00    +0.171 A 
ATOM     28  O   UNL     1      -2.154   3.444   3.531  0.00  0.00    -0.444 OA
ATOM     29 BR   UNL     1      -0.457   5.170   5.100  0.00  0.00    -0.008 Br
ENDBRANCH  21  24
ENDBRANCH  19  20
ENDBRANCH   1  18
TORSDOF 5
