REMARK  Name = ZINC39654153
REMARK  7 active torsions:
REMARK  status: ('A' for Active; 'I' for Inactive)
REMARK    1  A    between atoms: C_1  and  C_2
REMARK    2  A    between atoms: C_2  and  C_3
REMARK    3  A    between atoms: C_6  and  C_9
REMARK    4  A    between atoms: C_9  and  C_10
REMARK    5  A    between atoms: C_10  and  N_11
REMARK    6  A    between atoms: C_12  and  C_14
REMARK    7  A    between atoms: C_25  and  C_27
REMARK                            x       y       z     vdW  Elec       q    Type
REMARK                         _______ _______ _______ _____ _____    ______ ____
ROOT
ATOM      1  C   UNL     1       5.055  -0.748  -8.907  0.00  0.00    +0.100 C 
ATOM      2  C   UNL     1       6.395  -1.421  -8.534  0.00  0.00    +0.121 C 
ATOM      3  N   UNL     1       7.326  -1.029  -9.619  0.00  0.00    -0.296 N 
ATOM      4  C   UNL     1       6.983   0.385  -9.906  0.00  0.00    +0.115 C 
ATOM      5  C   UNL     1       5.445   0.437  -9.807  0.00  0.00    -0.004 C 
ATOM      6  C   UNL     1       5.002   1.751  -9.172  0.00  0.00    -0.010 C 
ATOM      7  C   UNL     1       5.348   2.909 -10.112  0.00  0.00    -0.082 C 
ATOM      8  N   UNL     1       4.674   2.714 -11.401  0.00  0.00    +0.379 N 
ATOM      9  C   UNL     1       5.175   1.495 -12.049  0.00  0.00    -0.082 C 
ATOM     10  C   UNL     1       4.821   0.277 -11.190  0.00  0.00    -0.010 C 
ATOM     11  C   UNL     1       8.270  -1.787 -10.210  0.00  0.00    +0.248 C 
ATOM     12  O   UNL     1       8.367  -2.966  -9.931  0.00  0.00    -0.270 OA
ATOM     13  H   UNL     1       3.680   2.629 -11.250  0.00  0.00    -0.086 HD
ATOM     14  H   UNL     1       4.854   3.508 -11.997  0.00  0.00    -0.086 HD
ENDROOT
BRANCH  11  15
ATOM     15  C   UNL     1       9.188  -1.184 -11.199  0.00  0.00    +0.055 A 
ATOM     16  C   UNL     1       9.624   0.133 -11.039  0.00  0.00    +0.016 A 
ATOM     17  C   UNL     1      10.481   0.689 -11.964  0.00  0.00    +0.021 A 
ATOM     18  C   UNL     1      10.909  -0.054 -13.052  0.00  0.00    +0.042 A 
ATOM     19  C   UNL     1      10.481  -1.360 -13.218  0.00  0.00    +0.040 A 
ATOM     20  C   UNL     1       9.628  -1.932 -12.294  0.00  0.00    +0.054 A 
ATOM     21 CL   UNL     1       9.098  -3.572 -12.498  0.00  0.00    -0.083 Cl
ATOM     22 CL   UNL     1      11.988   0.655 -14.213  0.00  0.00    -0.083 Cl
ENDBRANCH  11  15
BRANCH   1  24
ATOM     23  N   UNL     1       3.024  -0.024  -7.695  0.00  0.00    -0.315 N 
ATOM     24  C   UNL     1       4.352  -0.256  -7.669  0.00  0.00    +0.218 C 
ATOM     25  O   UNL     1       4.980  -0.070  -6.648  0.00  0.00    -0.275 OA
ATOM     26  H   UNL     1       2.522  -0.173  -8.511  0.00  0.00    +0.149 HD
BRANCH  23  27
ATOM     27  C   UNL     1       2.340   0.454  -6.491  0.00  0.00    +0.109 C 
BRANCH  27  28
ATOM     28  C   UNL     1       0.851   0.636  -6.789  0.00  0.00    +0.054 C 
BRANCH  28  32
ATOM     29  C   UNL     1      -1.146   2.030  -3.279  0.00  0.00    -0.048 A 
ATOM     30  C   UNL     1      -0.617   2.936  -4.179  0.00  0.00    +0.004 A 
ATOM     31  C   UNL     1       0.029   2.485  -5.314  0.00  0.00    +0.004 A 
ATOM     32  C   UNL     1       0.147   1.128  -5.550  0.00  0.00    -0.046 A 
ATOM     33  C   UNL     1      -0.381   0.222  -4.649  0.00  0.00    +0.004 A 
ATOM     34  C   UNL     1      -1.023   0.672  -3.511  0.00  0.00    +0.004 A 
BRANCH  29  36
ATOM     35  C   UNL     1      -0.836   2.678  -0.905  0.00  0.00    +0.009 C 
ATOM     36  C   UNL     1      -1.850   2.521  -2.040  0.00  0.00    +0.032 C 
ENDBRANCH  29  36
ENDBRANCH  28  32
ENDBRANCH  27  28
ENDBRANCH  23  27
ENDBRANCH   1  24
TORSDOF 6
