REMARK  Name = ZINC11007760
REMARK  8 active torsions:
REMARK  status: ('A' for Active; 'I' for Inactive)
REMARK    1  A    between atoms: C_10  and  N_11
REMARK    2  A    between atoms: N_14  and  C_15
REMARK    3  A    between atoms: C_15  and  C_17
REMARK    4  A    between atoms: C_15  and  C_19
REMARK    5  A    between atoms: C_17  and  O_18
REMARK    6  A    between atoms: C_19  and  C_21
REMARK    7  A    between atoms: C_19  and  O_30
REMARK    8  A    between atoms: C_24  and  N_27
REMARK                            x       y       z     vdW  Elec       q    Type
REMARK                         _______ _______ _______ _____ _____    ______ ____
ROOT
ATOM      1  N   UNK A   0       4.871   0.098  -0.044  0.00  0.00    -0.269 N 
ATOM      2  C   UNK A   0       6.047  -0.555   0.043  0.00  0.00    +0.304 C 
ATOM      3  O   UNK A   0       6.069  -1.771   0.038  0.00  0.00    -0.252 OA
ATOM      4  N   UNK A   1       7.198   0.139   0.137  0.00  0.00    -0.291 N 
ATOM      5  H   UNK A   0       4.859   1.065  -0.121  0.00  0.00    +0.156 HD
ATOM      6  H   UNK A   1       7.181   1.109   0.142  0.00  0.00    +0.151 HD
ENDROOT
BRANCH   1  16
ATOM      7  C   UNK A   0       0.202   0.945  -1.762  0.00  0.00    +0.001 A 
ATOM      8  C   UNK A   0       1.388   1.675  -1.794  0.00  0.00    +0.001 A 
ATOM      9  C   UNK A   0       2.528   1.184  -1.234  0.00  0.00    +0.010 A 
ATOM     10  C   UNK A   0       2.511  -0.076  -0.614  0.00  0.00    +0.003 A 
ATOM     11  C   UNK A   0       1.305  -0.819  -0.582  0.00  0.00    -0.016 A 
ATOM     12  C   UNK A   0       0.148  -0.280  -1.171  0.00  0.00    +0.008 A 
ATOM     13  C   UNK A   0       1.286  -2.079   0.039  0.00  0.00    +0.008 A 
ATOM     14  C   UNK A   0       2.422  -2.577   0.602  0.00  0.00    +0.002 A 
ATOM     15  C   UNK A   0       3.612  -1.856   0.576  0.00  0.00    +0.024 A 
ATOM     16  C   UNK A   0       3.672  -0.617  -0.023  0.00  0.00    +0.042 A 
ENDBRANCH   1  16
BRANCH   4  17
ATOM     17  C   UNK A   1       8.476  -0.572   0.233  0.00  0.00    +0.133 C 
BRANCH  17  18
ATOM     18  C   UNK A   1       8.972  -0.920  -1.173  0.00  0.00    +0.181 C 
BRANCH  18  19
ATOM     19  O   UNK A   1       9.260   0.283  -1.888  0.00  0.00    -0.393 OA
ATOM     20  H   UNK A   1       9.580   0.138  -2.789  0.00  0.00    +0.209 HD
ENDBRANCH  18  19
ENDBRANCH  17  18
BRANCH  17  21
ATOM     21  C   UNK A   1       9.505   0.321   0.929  0.00  0.00    +0.167 C 
BRANCH  21  22
ATOM     22  C   UNK A   1       9.017   0.664   2.313  0.00  0.00    -0.017 A 
ATOM     23  C   UNK A   1       8.077   1.662   2.487  0.00  0.00    +0.008 A 
ATOM     24  C   UNK A   1       7.629   1.977   3.756  0.00  0.00    +0.033 A 
ATOM     25  C   UNK A   1       8.121   1.293   4.852  0.00  0.00    +0.126 A 
ATOM     26  C   UNK A   1       9.061   0.294   4.678  0.00  0.00    +0.033 A 
ATOM     27  C   UNK A   1       9.505  -0.024   3.409  0.00  0.00    +0.008 A 
BRANCH  25  28
ATOM     28  N   UNK A   1       7.642   1.631   6.211  0.00  0.00    +0.056 N 
ATOM     29  O   UNK A   1       6.821   2.505   6.363  0.00  0.00    -0.126 OA
ATOM     30  O   UNK A   1       8.073   1.033   7.170  0.00  0.00    -0.126 OA
ENDBRANCH  25  28
ENDBRANCH  21  22
BRANCH  21  31
ATOM     31  O   UNK A   1       9.683   1.522   0.176  0.00  0.00    -0.385 OA
ATOM     32  H   UNK A   1       8.876   2.044   0.072  0.00  0.00    +0.210 HD
ENDBRANCH  21  31
ENDBRANCH  17  21
ENDBRANCH   4  17
TORSDOF 8
