REMARK  Name = ZINC35592555
REMARK  11 active torsions:
REMARK  status: ('A' for Active; 'I' for Inactive)
REMARK    1  A    between atoms: C_1  and  C_2
REMARK    2  A    between atoms: C_2  and  C_42
REMARK    3  A    between atoms: C_7  and  C_24
REMARK    4  A    between atoms: C_7  and  O_34
REMARK    5  A    between atoms: C_9  and  O_14
REMARK    6  A    between atoms: O_14  and  C_15
REMARK    7  A    between atoms: C_15  and  C_16
REMARK    8  A    between atoms: N_26  and  C_27
REMARK    9  A    between atoms: C_27  and  C_28
REMARK   10  A    between atoms: O_34  and  C_35
REMARK   11  A    between atoms: C_35  and  C_36
REMARK                            x       y       z     vdW  Elec       q    Type
REMARK                         _______ _______ _______ _____ _____    ______ ____
ROOT
ATOM      1  C   UNL     1      -0.359   2.225   0.584  0.00  0.00    +0.074 C 
ATOM      2  C   UNL     1      -0.191   0.726   0.324  0.00  0.00    +0.165 C 
ATOM      3  O   UNL     1      -1.480   0.096   0.284  0.00  0.00    -0.343 OA
ATOM      4  C   UNL     1      -1.512  -0.867   1.372  0.00  0.00    +0.156 C 
ATOM      5  C   UNL     1      -2.096  -0.129   2.579  0.00  0.00    +0.079 C 
ATOM      6  C   UNL     1      -1.806  -0.885   3.872  0.00  0.00    +0.150 C 
ATOM      7  C   UNL     1      -0.287  -0.953   4.066  0.00  0.00    +0.079 C 
ATOM      8  C   UNL     1       0.306  -1.767   2.917  0.00  0.00    +0.153 C 
ATOM      9  C   UNL     1      -0.013  -1.162   1.566  0.00  0.00    +0.179 C 
ATOM     10  O   UNL     1       0.583   0.134   1.386  0.00  0.00    -0.341 OA
ATOM     11  C   UNL     1       0.523   0.514  -1.012  0.00  0.00    +0.074 C 
ENDROOT
BRANCH   6  12
ATOM     12  C   UNL     1      -2.367  -2.281   3.779  0.00  0.00    +0.245 C 
ATOM     13  O   UNL     1      -2.547  -2.791   2.694  0.00  0.00    -0.273 OA
ATOM     14  N   UNL     1      -2.668  -2.963   4.902  0.00  0.00    -0.310 N 
ATOM     15  H   UNL     1      -2.588  -2.531   5.768  0.00  0.00    +0.149 HD
BRANCH  14  16
ATOM     16  C   UNL     1      -3.116  -4.355   4.817  0.00  0.00    +0.135 C 
BRANCH  16  17
ATOM     17  C   UNL     1      -3.389  -4.890   6.223  0.00  0.00    +0.135 C 
ATOM     18  C   UNL     1      -3.745  -6.391   6.153  0.00  0.00    +0.035 C 
ATOM     19  C   UNL     1      -4.873  -6.512   7.213  0.00  0.00    +0.031 C 
ATOM     20  C   UNL     1      -5.571  -5.138   7.059  0.00  0.00    +0.160 C 
ATOM     21  O   UNL     1      -4.509  -4.204   6.796  0.00  0.00    -0.375 OA
ENDBRANCH  16  17
ENDBRANCH  14  16
ENDBRANCH   6  12
BRANCH   8  22
ATOM     22  O   UNL     1       1.725  -1.832   3.074  0.00  0.00    -0.369 OA
BRANCH  22  23
ATOM     23  C   UNL     1       2.174  -2.948   3.844  0.00  0.00    +0.198 C 
BRANCH  23  24
ATOM     24  C   UNL     1       3.678  -2.917   3.945  0.00  0.00    +0.016 A 
ATOM     25  C   UNL     1       4.390  -1.898   3.340  0.00  0.00    +0.009 A 
ATOM     26  C   UNL     1       5.768  -1.867   3.431  0.00  0.00    +0.003 A 
ATOM     27  C   UNL     1       6.438  -2.856   4.128  0.00  0.00    +0.041 A 
ATOM     28  C   UNL     1       5.729  -3.877   4.735  0.00  0.00    +0.159 A 
ATOM     29  C   UNL     1       4.345  -3.904   4.648  0.00  0.00    +0.164 A 
ATOM     30  F   UNL     1       3.649  -4.897   5.245  0.00  0.00    -0.202 F 
ATOM     31  F   UNL     1       6.383  -4.843   5.416  0.00  0.00    -0.202 F 
ENDBRANCH  23  24
ENDBRANCH  22  23
ENDBRANCH   8  22
BRANCH   6  32
ATOM     32  O   UNL     1      -2.401  -0.198   4.975  0.00  0.00    -0.359 OA
BRANCH  32  33
ATOM     33  C   UNL     1      -1.973   1.159   5.112  0.00  0.00    +0.196 C 
BRANCH  33  34
ATOM     34  C   UNL     1      -2.721   1.809   6.248  0.00  0.00    -0.022 A 
ATOM     35  C   UNL     1      -3.922   2.449   6.008  0.00  0.00    +0.006 A 
ATOM     36  C   UNL     1      -4.608   3.045   7.050  0.00  0.00    +0.000 A 
ATOM     37  C   UNL     1      -4.092   3.000   8.332  0.00  0.00    +0.000 A 
ATOM     38  C   UNL     1      -2.891   2.359   8.572  0.00  0.00    +0.000 A 
ATOM     39  C   UNL     1      -2.208   1.760   7.531  0.00  0.00    +0.006 A 
ENDBRANCH  33  34
ENDBRANCH  32  33
ENDBRANCH   6  32
TORSDOF 9
