REMARK  Name = ZINC36220793
REMARK  10 active torsions:
REMARK  status: ('A' for Active; 'I' for Inactive)
REMARK    1  A    between atoms: C_1  and  C_2
REMARK    2  A    between atoms: C_2  and  C_3
REMARK    3  A    between atoms: C_2  and  C_4
REMARK    4  A    between atoms: N_6  and  C_7
REMARK    5  A    between atoms: C_10  and  C_13
REMARK    6  A    between atoms: C_15  and  C_29
REMARK    7  A    between atoms: N_17  and  C_21
REMARK    8  A    between atoms: C_21  and  C_22
REMARK    9  A    between atoms: N_31  and  C_32
REMARK   10  A    between atoms: C_32  and  C_33
REMARK                            x       y       z     vdW  Elec       q    Type
REMARK                         _______ _______ _______ _____ _____    ______ ____
ROOT
ATOM      1  C   UNL     1      -7.027  -3.602  -0.316  0.00  0.00    +0.238 C 
ATOM      2  C   UNL     1      -7.586  -3.934   1.088  0.00  0.00    +0.210 C 
ATOM      3  N   UNL     1      -8.427  -5.117   0.817  0.00  0.00    -0.248 N 
ATOM      4  C   UNL     1      -8.101  -5.581  -0.404  0.00  0.00    +0.405 C 
ATOM      5  O   UNL     1      -8.642  -6.536  -0.926  0.00  0.00    -0.226 OA
ATOM      6  O   UNL     1      -7.116  -4.875  -0.985  0.00  0.00    -0.440 OA
ENDROOT
BRANCH   1  10
ATOM      7  C   UNL     1      -2.969  -2.285  -0.072  0.00  0.00    +0.033 A 
ATOM      8  C   UNL     1      -3.998  -1.356  -0.159  0.00  0.00    +0.024 A 
ATOM      9  C   UNL     1      -5.308  -1.785  -0.237  0.00  0.00    +0.009 A 
ATOM     10  C   UNL     1      -5.596  -3.137  -0.230  0.00  0.00    -0.005 A 
ATOM     11  C   UNL     1      -4.574  -4.065  -0.144  0.00  0.00    +0.009 A 
ATOM     12  C   UNL     1      -3.261  -3.643  -0.071  0.00  0.00    +0.024 A 
BRANCH   7  15
ATOM     13  C   UNL     1      -0.664  -2.565  -0.591  0.00  0.00    +0.220 C 
ATOM     14  O   UNL     1      -0.924  -3.622  -1.126  0.00  0.00    -0.275 OA
ATOM     15  N   UNL     1      -1.640  -1.854   0.008  0.00  0.00    -0.285 N 
ATOM     16  H   UNL     1      -1.421  -1.043   0.494  0.00  0.00    +0.155 HD
BRANCH  13  18
ATOM     17  C   UNL     1       1.655  -3.037  -1.333  0.00  0.00    +0.017 C 
ATOM     18  C   UNL     1       0.751  -2.047  -0.594  0.00  0.00    +0.069 C 
ATOM     19  C   UNL     1       0.796  -0.691  -1.300  0.00  0.00    +0.017 C 
ENDBRANCH  13  18
ENDBRANCH   7  15
ENDBRANCH   1  10
BRANCH   2  20
ATOM     20  C   UNL     1      -6.470  -4.271   2.043  0.00  0.00    +0.238 C 
ATOM     21  O   UNL     1      -6.217  -5.430   2.295  0.00  0.00    -0.274 OA
ATOM     22  N   UNL     1      -5.753  -3.285   2.617  0.00  0.00    -0.307 N 
ATOM     23  H   UNL     1      -5.956  -2.358   2.416  0.00  0.00    +0.149 HD
BRANCH  22  24
ATOM     24  C   UNL     1      -4.668  -3.613   3.546  0.00  0.00    +0.178 C 
BRANCH  24  25
ATOM     25  C   UNL     1      -4.032  -2.341   4.043  0.00  0.00    +0.122 A 
ATOM     26  C   UNL     1      -4.400  -1.653   5.139  0.00  0.00    +0.046 A 
ATOM     27  C   UNL     1      -3.540  -0.534   5.228  0.00  0.00    +0.041 A 
ATOM     28  C   UNL     1      -2.697  -0.606   4.183  0.00  0.00    +0.195 A 
ATOM     29  O   UNL     1      -2.996  -1.705   3.471  0.00  0.00    -0.466 OA
ENDBRANCH  24  25
ENDBRANCH  22  24
ENDBRANCH   2  20
BRANCH   3  30
ATOM     30  C   UNL     1      -9.435  -5.684   1.716  0.00  0.00    +0.147 C 
BRANCH  30  31
ATOM     31  C   UNL     1     -10.771  -5.041   1.442  0.00  0.00    -0.027 A 
ATOM     32  C   UNL     1     -11.137  -3.893   2.121  0.00  0.00    +0.005 A 
ATOM     33  C   UNL     1     -12.362  -3.303   1.871  0.00  0.00    +0.003 A 
ATOM     34  C   UNL     1     -13.221  -3.859   0.943  0.00  0.00    +0.038 A 
ATOM     35  C   UNL     1     -12.855  -5.008   0.262  0.00  0.00    +0.124 A 
ATOM     36  C   UNL     1     -11.626  -5.595   0.509  0.00  0.00    +0.043 A 
ATOM     37  F   UNL     1     -13.694  -5.553  -0.645  0.00  0.00    -0.205 F 
ENDBRANCH  30  31
ENDBRANCH   3  30
TORSDOF 8
