REMARK  Name = ZINC59660416
REMARK  11 active torsions:
REMARK  status: ('A' for Active; 'I' for Inactive)
REMARK    1  A    between atoms: C_1  and  C_2
REMARK    2  A    between atoms: C_2  and  N_3
REMARK    3  A    between atoms: N_3  and  C_4
REMARK    4  A    between atoms: N_3  and  C_6
REMARK    5  A    between atoms: C_4  and  C_5
REMARK    6  A    between atoms: C_9  and  C_12
REMARK    7  A    between atoms: C_23  and  S_28
REMARK    8  A    between atoms: S_28  and  N_31
REMARK    9  A    between atoms: N_31  and  C_32
REMARK   10  A    between atoms: N_31  and  C_34
REMARK   11  A    between atoms: C_32  and  C_33
REMARK                            x       y       z     vdW  Elec       q    Type
REMARK                         _______ _______ _______ _____ _____    ______ ____
ROOT
ATOM      1  C   UNL     1      -3.439  -5.653   0.020  0.00  0.00    +0.105 C 
ATOM      2  C   UNL     1      -2.055  -5.993   0.544  0.00  0.00    +0.029 C 
ATOM      3  C   UNL     1      -0.860  -5.329  -0.153  0.00  0.00    +0.033 C 
ATOM      4  C   UNL     1       0.159  -5.256   0.986  0.00  0.00    -0.030 C 
ATOM      5  C   UNL     1      -0.469  -5.231   2.156  0.00  0.00    -0.023 C 
ATOM      6  C   UNL     1      -1.945  -5.274   1.922  0.00  0.00    +0.049 C 
ATOM      7  C   UNL     1      -2.889  -5.932   2.852  0.00  0.00    -0.018 A 
ATOM      8  C   UNL     1      -2.617  -6.090   4.194  0.00  0.00    +0.034 A 
ATOM      9  C   UNL     1      -3.538  -6.699   5.026  0.00  0.00    +0.109 A 
ATOM     10  C   UNL     1      -4.739  -7.153   4.512  0.00  0.00    +0.030 A 
ATOM     11  C   UNL     1      -5.019  -7.005   3.169  0.00  0.00    +0.025 A 
ATOM     12  C   UNL     1      -4.097  -6.400   2.323  0.00  0.00    +0.031 A 
ATOM     13  N   UNL     1      -4.390  -6.293   0.955  0.00  0.00    -0.336 N 
ATOM     14  H   UNL     1      -5.229  -6.643   0.616  0.00  0.00    +0.147 HD
ENDROOT
BRANCH   1  18
ATOM     15  C   UNL     1      -4.013  -1.420  -0.003  0.00  0.00    +0.013 A 
ATOM     16  C   UNL     1      -3.473  -2.051  -1.109  0.00  0.00    +0.022 A 
ATOM     17  C   UNL     1      -3.287  -3.420  -1.101  0.00  0.00    +0.007 A 
ATOM     18  C   UNL     1      -3.641  -4.160   0.012  0.00  0.00    -0.027 A 
ATOM     19  C   UNL     1      -4.180  -3.530   1.118  0.00  0.00    +0.007 A 
ATOM     20  C   UNL     1      -4.362  -2.159   1.112  0.00  0.00    +0.022 A 
BRANCH  15  21
ATOM     21  N   UNL     1      -4.202  -0.035  -0.011  0.00  0.00    -0.394 NA
ATOM     22  H   UNL     1      -4.598   0.255   0.870  0.00  0.00    +0.126 HD
BRANCH  21  24
ATOM     23  C   UNL     1      -3.095   2.148  -0.095  0.00  0.00    +0.022 C 
ATOM     24  C   UNL     1      -2.909   0.633  -0.210  0.00  0.00    +0.081 C 
ENDBRANCH  21  24
BRANCH  21  25
ATOM     25  C   UNL     1      -5.115   0.329  -1.102  0.00  0.00    +0.081 C 
ATOM     26  C   UNL     1      -6.498  -0.266  -0.830  0.00  0.00    +0.022 C 
ENDBRANCH  21  25
ENDBRANCH  15  21
ENDBRANCH   1  18
BRANCH   9  27
ATOM     27  S   UNL     1      -3.181  -6.899   6.739  0.00  0.00    +0.075 S 
ATOM     28  O   UNL     1      -3.973  -7.987   7.195  0.00  0.00    -0.150 OA
ATOM     29  O   UNL     1      -1.765  -6.882   6.864  0.00  0.00    -0.150 OA
BRANCH  27  30
ATOM     30  N   UNL     1      -3.741  -5.548   7.517  0.00  0.00    -0.203 N 
BRANCH  30  31
ATOM     31  C   UNL     1      -2.873  -4.488   7.787  0.00  0.00    +0.051 A 
ATOM     32  C   UNL     1      -3.127  -3.229   7.256  0.00  0.00    +0.025 A 
ATOM     33  C   UNL     1      -2.267  -2.182   7.526  0.00  0.00    +0.002 A 
ATOM     34  C   UNL     1      -1.155  -2.386   8.322  0.00  0.00    +0.000 A 
ATOM     35  C   UNL     1      -0.899  -3.638   8.851  0.00  0.00    +0.002 A 
ATOM     36  C   UNL     1      -1.758  -4.688   8.591  0.00  0.00    +0.025 A 
ENDBRANCH  30  31
BRANCH  30  37
ATOM     37  C   UNL     1      -5.147  -5.466   7.921  0.00  0.00    +0.128 C 
ATOM     38  C   UNL     1      -5.285  -5.915   9.377  0.00  0.00    +0.026 C 
ENDBRANCH  30  37
ENDBRANCH  27  30
ENDBRANCH   9  27
TORSDOF 8
