REMARK  Name = ZINC38828213
REMARK  3 active torsions:
REMARK  status: ('A' for Active; 'I' for Inactive)
REMARK    1  A    between atoms: C_1  and  C_2
REMARK    2  A    between atoms: C_5  and  N_9
REMARK    3  A    between atoms: C_10  and  C_12
REMARK                            x       y       z     vdW  Elec       q    Type
REMARK                         _______ _______ _______ _____ _____    ______ ____
ROOT
ATOM      1  C   UNL     1      -0.126  -6.349  -1.193  0.00  0.00    +0.122 C 
ATOM      2  C   UNL     1       1.025  -7.069  -0.487  0.00  0.00    +0.114 C 
ATOM      3  C   UNL     1       2.249  -7.046  -1.363  0.00  0.00    +0.219 C 
ATOM      4  O   UNL     1       3.345  -6.913  -0.860  0.00  0.00    -0.275 OA
ATOM      5  N   UNL     1       2.142  -7.173  -2.697  0.00  0.00    -0.270 N 
ATOM      6  C   UNL     1       0.901  -7.221  -3.309  0.00  0.00    +0.138 A 
ATOM      7  C   UNL     1      -0.232  -6.840  -2.611  0.00  0.00    +0.069 A 
ATOM      8  C   UNL     1      -1.477  -6.916  -3.243  0.00  0.00    +0.258 A 
ATOM      9  O   UNL     1      -2.497  -6.599  -2.651  0.00  0.00    -0.267 OA
ATOM     10  N   UNL     1      -1.529  -7.348  -4.522  0.00  0.00    -0.294 N 
ATOM     11  H   UNL     1      -2.384  -7.424  -4.974  0.00  0.00    +0.172 HD
ATOM     12  C   UNL     1      -0.382  -7.678  -5.176  0.00  0.00    +0.204 A 
ATOM     13  N   UNL     1       0.790  -7.611  -4.583  0.00  0.00    -0.200 NA
ATOM     14  N   UNL     1      -0.451  -8.091  -6.482  0.00  0.00    -0.271 N 
ATOM     15  C   UNL     1      -1.573  -8.917  -6.946  0.00  0.00    +0.114 C 
ATOM     16  C   UNL     1      -0.998 -10.047  -7.810  0.00  0.00    +0.024 C 
ATOM     17  C   UNL     1      -0.326  -9.436  -9.039  0.00  0.00    +0.038 C 
ATOM     18  C   UNL     1       0.642  -8.357  -8.629  0.00  0.00    -0.026 A 
ATOM     19  C   UNL     1       0.546  -7.727  -7.397  0.00  0.00    +0.040 A 
ATOM     20  C   UNL     1       1.449  -6.727  -7.053  0.00  0.00    +0.024 A 
ATOM     21  C   UNL     1       2.440  -6.356  -7.940  0.00  0.00    +0.002 A 
ATOM     22  C   UNL     1       2.534  -6.981  -9.169  0.00  0.00    +0.000 A 
ATOM     23  C   UNL     1       1.643  -7.985  -9.511  0.00  0.00    +0.005 A 
ATOM     24  H   UNL     1       2.944  -7.231  -3.239  0.00  0.00    +0.156 HD
ENDROOT
BRANCH   1  26
ATOM     25  N   UNL     1       0.269  -4.204  -0.026  0.00  0.00    -0.283 N 
ATOM     26  C   UNL     1       0.137  -4.865  -1.193  0.00  0.00    +0.225 C 
ATOM     27  O   UNL     1       0.229  -4.266  -2.244  0.00  0.00    -0.275 OA
ATOM     28  H   UNL     1       0.263  -4.692   0.811  0.00  0.00    +0.155 HD
BRANCH  25  33
ATOM     29  C   UNL     1       0.860   1.441  -0.018  0.00  0.00    +0.044 C 
ATOM     30  C   UNL     1       0.702  -0.057  -0.019  0.00  0.00    -0.048 A 
ATOM     31  C   UNL     1       1.244  -0.807  -1.047  0.00  0.00    +0.005 A 
ATOM     32  C   UNL     1       1.102  -2.181  -1.052  0.00  0.00    +0.026 A 
ATOM     33  C   UNL     1       0.415  -2.811  -0.024  0.00  0.00    +0.069 A 
ATOM     34  C   UNL     1      -0.129  -2.055   1.009  0.00  0.00    +0.145 A 
ATOM     35  C   UNL     1       0.021  -0.680   1.010  0.00  0.00    +0.043 A 
ATOM     36  F   UNL     1      -0.799  -2.663   2.012  0.00  0.00    -0.204 F 
ENDBRANCH  25  33
ENDBRANCH   1  26
TORSDOF 2
