REMARK  Name = ZINC20157419
REMARK  7 active torsions:
REMARK  status: ('A' for Active; 'I' for Inactive)
REMARK    1  A    between atoms: C_1  and  C_2
REMARK    2  A    between atoms: C_2  and  C_15
REMARK    3  A    between atoms: N_3  and  N_4
REMARK    4  A    between atoms: N_4  and  S_5
REMARK    5  A    between atoms: S_5  and  C_8
REMARK    6  A    between atoms: C_18  and  N_21
REMARK    7  A    between atoms: C_22  and  C_24
REMARK                            x       y       z     vdW  Elec       q    Type
REMARK                         _______ _______ _______ _____ _____    ______ ____
ROOT
ATOM      1  C   UNL     1      -0.111  -2.867  -0.100  0.00  0.00    -0.002 A 
ATOM      2  C   UNL     1      -1.364  -2.480   0.382  0.00  0.00    +0.011 A 
ATOM      3  C   UNL     1      -1.770  -1.169   0.264  0.00  0.00    +0.024 A 
ATOM      4  C   UNL     1      -0.935  -0.231  -0.332  0.00  0.00    +0.033 A 
ATOM      5  C   UNL     1       0.310  -0.614  -0.818  0.00  0.00    +0.024 A 
ATOM      6  C   UNL     1       0.726  -1.922  -0.699  0.00  0.00    +0.011 A 
ENDROOT
BRANCH   4   7
ATOM      7  N   UNL     1      -1.351   1.099  -0.449  0.00  0.00    -0.285 N 
ATOM      8  C   UNL     1      -0.457   2.099  -0.316  0.00  0.00    +0.220 C 
ATOM      9  O   UNL     1       0.717   1.844  -0.151  0.00  0.00    -0.275 OA
ATOM     10  H   UNL     1      -2.408   1.329  -0.650  0.00  0.00    +0.155 HD
BRANCH   8  11
ATOM     11  C   UNL     1      -0.917   3.533  -0.371  0.00  0.00    +0.075 C 
ATOM     12  C   UNL     1      -1.576   3.805  -1.725  0.00  0.00    +0.013 C 
ATOM     13  C   UNL     1      -2.043   5.261  -1.782  0.00  0.00    +0.001 C 
ATOM     14  C   UNL     1      -0.840   6.189  -1.605  0.00  0.00    +0.000 C 
ATOM     15  C   UNL     1      -0.180   5.917  -0.251  0.00  0.00    +0.001 C 
ATOM     16  C   UNL     1       0.286   4.461  -0.195  0.00  0.00    +0.013 C 
ENDBRANCH   8  11
ENDBRANCH   4   7
BRANCH   1  18
ATOM     17  C   UNL     1       1.125  -4.910  -1.084  0.00  0.00    +0.068 C 
ATOM     18  C   UNL     1       0.328  -4.270   0.023  0.00  0.00    +0.065 C 
ATOM     19  N   UNL     1       0.026  -4.953   1.085  0.00  0.00    -0.171 NA
BRANCH  19  20
ATOM     20  N   UNL     1      -0.569  -4.316   2.182  0.00  0.00    -0.136 N 
ATOM     21  H   UNL     1      -0.674  -3.352   2.185  0.00  0.00    +0.197 HD
BRANCH  20  22
ATOM     22  S   UNL     1      -1.094  -5.210   3.473  0.00  0.00    +0.086 S 
ATOM     23  O   UNL     1      -1.509  -4.284   4.467  0.00  0.00    -0.149 OA
ATOM     24  O   UNL     1      -1.962  -6.207   2.951  0.00  0.00    -0.149 OA
BRANCH  22  25
ATOM     25  C   UNL     1       0.308  -6.055   4.126  0.00  0.00    +0.110 A 
ATOM     26  C   UNL     1       0.636  -7.313   3.657  0.00  0.00    +0.030 A 
ATOM     27  C   UNL     1       1.739  -7.974   4.166  0.00  0.00    +0.017 A 
ATOM     28  C   UNL     1       2.507  -7.381   5.151  0.00  0.00    +0.018 A 
ATOM     29  C   UNL     1       2.175  -6.124   5.624  0.00  0.00    +0.017 A 
ATOM     30  C   UNL     1       1.075  -5.462   5.111  0.00  0.00    +0.030 A 
ATOM     31 BR   UNL     1       4.011  -8.287   5.852  0.00  0.00    -0.050 Br
ENDBRANCH  22  25
ENDBRANCH  20  22
ENDBRANCH  19  20
ENDBRANCH   1  18
TORSDOF 6
