REMARK  Name = ZINC07118720
REMARK  9 active torsions:
REMARK  status: ('A' for Active; 'I' for Inactive)
REMARK    1  A    between atoms: C_1  and  C_2
REMARK    2  A    between atoms: C_5  and  C_8
REMARK    3  A    between atoms: C_10  and  C_13
REMARK    4  A    between atoms: C_13  and  C_14
REMARK    5  A    between atoms: C_14  and  C_15
REMARK    6  A    between atoms: N_17  and  C_18
REMARK    7  A    between atoms: C_18  and  C_19
REMARK    8  A    between atoms: C_20  and  C_28
REMARK    9  A    between atoms: C_22  and  C_27
REMARK                            x       y       z     vdW  Elec       q    Type
REMARK                         _______ _______ _______ _____ _____    ______ ____
ROOT
ATOM      1  C   UNL     1      -1.187   1.624   0.017  0.00  0.00    +0.214 C 
ATOM      2  O   UNL     1      -1.204   2.837   0.023  0.00  0.00    -0.276 OA
ATOM      3  N   UNL     1      -0.011   0.966   0.007  0.00  0.00    -0.311 N 
ATOM      4  H   UNL     1       0.002  -0.004   0.002  0.00  0.00    +0.149 HD
ENDROOT
BRANCH   1   5
ATOM      5  C   UNL     1      -2.482   0.853   0.018  0.00  0.00    +0.105 C 
BRANCH   5   6
ATOM      6  C   UNL     1      -3.658   1.831   0.029  0.00  0.00    +0.108 C 
BRANCH   6   9
ATOM      7  C   UNL     1      -6.704   0.012   0.606  0.00  0.00    +0.202 A 
ATOM      8  N   UNL     1      -5.617   0.656   1.086  0.00  0.00    -0.191 NA
ATOM      9  C   UNL     1      -4.953   1.060   0.031  0.00  0.00    +0.228 A 
ATOM     10  O   UNL     1      -5.643   0.664  -1.043  0.00  0.00    -0.338 OA
ATOM     11  N   UNL     1      -6.638   0.062  -0.699  0.00  0.00    -0.056 NA
BRANCH   7  16
ATOM     12  C   UNL     1     -10.850  -2.489   3.726  0.00  0.00    +0.044 C 
ATOM     13  C   UNL     1      -9.765  -1.834   2.910  0.00  0.00    -0.050 A 
ATOM     14  C   UNL     1      -9.832  -1.860   1.528  0.00  0.00    +0.004 A 
ATOM     15  C   UNL     1      -8.841  -1.263   0.776  0.00  0.00    +0.012 A 
ATOM     16  C   UNL     1      -7.773  -0.632   1.410  0.00  0.00    +0.022 A 
ATOM     17  C   UNL     1      -7.708  -0.613   2.802  0.00  0.00    +0.012 A 
ATOM     18  C   UNL     1      -8.707  -1.210   3.545  0.00  0.00    +0.004 A 
ENDBRANCH   7  16
ENDBRANCH   6   9
ENDBRANCH   5   6
ENDBRANCH   1   5
BRANCH   3  19
ATOM     19  C   UNL     1       1.248   1.716  -0.001  0.00  0.00    +0.145 C 
BRANCH  19  20
ATOM     20  C   UNL     1       2.406   0.752  -0.017  0.00  0.00    +0.037 A 
ATOM     21  C   UNL     1       2.987   0.392  -1.198  0.00  0.00    -0.039 A 
ATOM     22  C   UNL     1       4.066  -0.503  -1.186  0.00  0.00    +0.024 A 
ATOM     23  C   UNL     1       4.513  -1.006  -0.012  0.00  0.00    +0.016 A 
ATOM     24  N   UNL     1       3.931  -0.651   1.162  0.00  0.00    -0.326 N 
ATOM     25  H   UNL     1       4.275  -1.032   2.020  0.00  0.00    +0.169 HD
ATOM     26  C   UNL     1       2.896   0.210   1.184  0.00  0.00    +0.254 A 
ATOM     27  O   UNL     1       2.383   0.520   2.247  0.00  0.00    -0.268 OA
ATOM     28  C   UNL     1       5.671  -1.972  -0.008  0.00  0.00    +0.063 C 
ATOM     29  C   UNL     1       2.477   0.954  -2.500  0.00  0.00    +0.044 C 
ENDBRANCH  19  20
ENDBRANCH   3  19
TORSDOF 6
