REMARK  Name = ZINC02905383
REMARK  10 active torsions:
REMARK  status: ('A' for Active; 'I' for Inactive)
REMARK    1  A    between atoms: C_1  and  C_2
REMARK    2  A    between atoms: N_4  and  C_5
REMARK    3  A    between atoms: C_8  and  N_11
REMARK    4  A    between atoms: N_11  and  C_12
REMARK    5  A    between atoms: C_12  and  N_14
REMARK    6  A    between atoms: N_14  and  C_15
REMARK    7  A    between atoms: C_15  and  C_17
REMARK    8  A    between atoms: C_15  and  N_21
REMARK    9  A    between atoms: C_22  and  C_24
REMARK   10  A    between atoms: C_28  and  N_30
REMARK                            x       y       z     vdW  Elec       q    Type
REMARK                         _______ _______ _______ _____ _____    ______ ____
ROOT
ATOM      1  C   UNL     1       1.417  10.377  -0.903  0.00  0.00    +0.211 C 
ENDROOT
BRANCH   1   2
ATOM      2  C   UNL     1       1.273  11.372  -2.056  0.00  0.00    +0.225 C 
ATOM      3 CL   UNL     1      -0.002  12.580  -1.652  0.00  0.00    -0.080 Cl
ATOM      4 CL   UNL     1       2.843  12.220  -2.319  0.00  0.00    -0.080 Cl
ATOM      5 CL   UNL     1       0.809  10.488  -3.558  0.00  0.00    -0.080 Cl
ENDBRANCH   1   2
BRANCH   1   6
ATOM      6  N   UNL     1       1.794  11.096   0.317  0.00  0.00    -0.290 N 
ATOM      7  C   UNL     1       2.773  10.613   1.109  0.00  0.00    +0.246 C 
ATOM      8  O   UNL     1       3.342   9.581   0.810  0.00  0.00    -0.270 OA
ATOM      9  H   UNL     1       1.340  11.919   0.555  0.00  0.00    +0.151 HD
BRANCH   7  10
ATOM     10  C   UNL     1       3.153  11.338   2.340  0.00  0.00    +0.039 A 
ATOM     11  C   UNL     1       2.501  12.523   2.685  0.00  0.00    +0.013 A 
ATOM     12  C   UNL     1       2.861  13.194   3.835  0.00  0.00    +0.003 A 
ATOM     13  C   UNL     1       3.866  12.695   4.646  0.00  0.00    +0.033 A 
ATOM     14  C   UNL     1       4.516  11.522   4.309  0.00  0.00    +0.127 A 
ATOM     15  C   UNL     1       4.162  10.837   3.164  0.00  0.00    +0.045 A 
BRANCH  14  16
ATOM     16  N   UNL     1       5.589  10.995   5.182  0.00  0.00    +0.056 N 
ATOM     17  O   UNL     1       5.899  11.596   6.195  0.00  0.00    -0.126 OA
ATOM     18  O   UNL     1       6.162   9.962   4.887  0.00  0.00    -0.126 OA
ENDBRANCH  14  16
ENDBRANCH   7  10
ENDBRANCH   1   6
BRANCH   1  19
ATOM     19  N   UNL     1       0.142   9.688  -0.689  0.00  0.00    -0.305 N 
ATOM     20  H   UNL     1      -0.686  10.193  -0.679  0.00  0.00    +0.150 HD
BRANCH  19  21
ATOM     21  C   UNL     1       0.120   8.353  -0.508  0.00  0.00    +0.136 C 
ATOM     22  S   UNL     1       1.581   7.462  -0.527  0.00  0.00    -0.019 S 
BRANCH  21  23
ATOM     23  N   UNL     1      -1.054   7.719  -0.312  0.00  0.00    -0.297 N 
ATOM     24  H   UNL     1      -1.875   8.231  -0.239  0.00  0.00    +0.154 HD
BRANCH  23  28
ATOM     25  C   UNL     1      -1.154   3.561  -0.016  0.00  0.00    +0.033 A 
ATOM     26  C   UNL     1      -2.067   4.222  -0.828  0.00  0.00    +0.025 A 
ATOM     27  C   UNL     1      -2.037   5.599  -0.922  0.00  0.00    +0.025 A 
ATOM     28  C   UNL     1      -1.087   6.323  -0.213  0.00  0.00    +0.033 A 
ATOM     29  C   UNL     1      -0.171   5.662   0.595  0.00  0.00    +0.025 A 
ATOM     30  C   UNL     1      -0.204   4.285   0.693  0.00  0.00    +0.025 A 
BRANCH  25  34
ATOM     31  C   UNL     1      -2.400   0.009   0.015  0.00  0.00    +0.109 C 
ATOM     32  C   UNL     1      -2.369   1.516   0.057  0.00  0.00    +0.214 C 
ATOM     33  O   UNL     1      -3.406   2.144   0.073  0.00  0.00    -0.276 OA
ATOM     34  N   UNL     1      -1.188   2.164   0.084  0.00  0.00    -0.286 N 
ATOM     35  H   UNL     1      -0.362   1.664   0.172  0.00  0.00    +0.155 HD
ENDBRANCH  25  34
ENDBRANCH  23  28
ENDBRANCH  21  23
ENDBRANCH  19  21
ENDBRANCH   1  19
TORSDOF 9
