REMARK  Name = ZINC62038729
REMARK  7 active torsions:
REMARK  status: ('A' for Active; 'I' for Inactive)
REMARK    1  A    between atoms: C_1  and  C_2
REMARK    2  A    between atoms: C_2  and  C_4
REMARK    3  A    between atoms: C_2  and  S_16
REMARK    4  A    between atoms: N_6  and  C_7
REMARK    5  A    between atoms: C_9  and  C_14
REMARK    6  A    between atoms: C_12  and  O_13
REMARK    7  A    between atoms: S_16  and  C_17
REMARK                            x       y       z     vdW  Elec       q    Type
REMARK                         _______ _______ _______ _____ _____    ______ ____
ROOT
ATOM      1  C   UNL     1      -0.028   1.508   0.025  0.00  0.00    +0.029 C 
ATOM      2  C   UNL     1      -0.002  -0.021   0.006  0.00  0.00    +0.137 C 
ENDROOT
BRANCH   2   3
ATOM      3  C   UNL     1       0.706  -0.496  -1.237  0.00  0.00    +0.230 C 
ATOM      4  O   UNL     1       1.864  -0.852  -1.176  0.00  0.00    -0.274 OA
ATOM      5  N   UNL     1       0.053  -0.526  -2.415  0.00  0.00    -0.282 N 
ATOM      6  H   UNL     1      -0.891  -0.304  -2.453  0.00  0.00    +0.155 HD
BRANCH   5   7
ATOM      7  C   UNL     1       0.737  -0.878  -3.587  0.00  0.00    +0.076 A 
ATOM      8  C   UNL     1       1.744  -1.823  -3.542  0.00  0.00    +0.038 A 
ATOM      9  C   UNL     1       2.425  -2.171  -4.715  0.00  0.00    +0.016 A 
ATOM     10  C   UNL     1       2.081  -1.559  -5.927  0.00  0.00    +0.015 A 
ATOM     11  C   UNL     1       1.076  -0.619  -5.963  0.00  0.00    +0.048 A 
ATOM     12  C   UNL     1       0.397  -0.277  -4.801  0.00  0.00    +0.138 A 
BRANCH  12  13
ATOM     13  O   UNL     1      -0.597   0.647  -4.844  0.00  0.00    -0.505 OA
ATOM     14  H   UNL     1      -0.296   1.555  -4.705  0.00  0.00    +0.292 HD
ENDBRANCH  12  13
BRANCH   9  15
ATOM     15  C   UNL     1       3.496  -3.174  -4.674  0.00  0.00    +0.258 C 
ATOM     16  O   UNL     1       4.085  -3.474  -5.691  0.00  0.00    -0.296 OA
ENDBRANCH   9  15
ENDBRANCH   5   7
ENDBRANCH   2   3
BRANCH   2  17
ATOM     17  S   UNL     1       0.875  -0.630   1.472  0.00  0.00    -0.075 S 
BRANCH  17  18
ATOM     18  C   UNL     1      -0.143  -0.125   2.818  0.00  0.00    +0.171 A 
ATOM     19  N   UNL     1      -1.256   0.534   2.571  0.00  0.00    -0.185 NA
ATOM     20  C   UNL     1      -2.074   0.947   3.544  0.00  0.00    +0.282 A 
ATOM     21  O   UNL     1      -3.098   1.556   3.274  0.00  0.00    -0.265 OA
ATOM     22  C   UNL     1      -1.724   0.657   4.954  0.00  0.00    +0.075 A 
ATOM     23  C   UNL     1      -2.470   1.013   6.171  0.00  0.00    -0.023 A 
ATOM     24  C   UNL     1      -1.935   0.632   7.344  0.00  0.00    -0.004 A 
ATOM     25  S   UNL     1      -0.432  -0.213   6.906  0.00  0.00    -0.075 S 
ATOM     26  C   UNL     1      -0.535  -0.043   5.145  0.00  0.00    +0.092 A 
ATOM     27  N   UNL     1       0.237  -0.430   4.092  0.00  0.00    -0.328 N 
ATOM     28  C   UNL     1      -2.778   1.053   8.517  0.00  0.00    +0.043 C 
ATOM     29  C   UNL     1      -3.718   2.138   7.949  0.00  0.00    +0.010 C 
ATOM     30  C   UNL     1      -3.781   1.750   6.459  0.00  0.00    +0.037 C 
ATOM     31  H   UNL     1       1.059  -0.920   4.248  0.00  0.00    +0.168 HD
ENDBRANCH  17  18
ENDBRANCH   2  17
TORSDOF 6
