REMARK  Name = ZINC38971307
REMARK  10 active torsions:
REMARK  status: ('A' for Active; 'I' for Inactive)
REMARK    1  A    between atoms: C_1  and  C_2
REMARK    2  A    between atoms: C_2  and  C_3
REMARK    3  A    between atoms: C_3  and  C_4
REMARK    4  A    between atoms: C_4  and  O_5
REMARK    5  A    between atoms: O_5  and  C_6
REMARK    6  A    between atoms: C_6  and  C_8
REMARK    7  A    between atoms: C_11  and  N_14
REMARK    8  A    between atoms: N_14  and  C_15
REMARK    9  A    between atoms: N_18  and  S_19
REMARK   10  A    between atoms: S_19  and  C_22
REMARK                            x       y       z     vdW  Elec       q    Type
REMARK                         _______ _______ _______ _____ _____    ______ ____
ROOT
ATOM      1  C   UNL     1      -8.260  -7.569  -0.064  0.00  0.00    +0.235 C 
ATOM      2  C   UNL     1      -9.203  -7.834  -1.216  0.00  0.00    +0.170 C 
ATOM      3  N   UNL     1      -8.920  -7.407  -2.412  0.00  0.00    -0.111 NA
ATOM      4  N   UNL     1     -10.336  -8.516  -0.987  0.00  0.00    -0.338 N 
ATOM      5  C   UNL     1     -10.645  -8.958   0.214  0.00  0.00    +0.064 A 
ATOM      6  C   UNL     1     -11.851  -9.674   0.420  0.00  0.00    +0.028 A 
ATOM      7  C   UNL     1     -12.173 -10.130   1.651  0.00  0.00    +0.002 A 
ATOM      8  C   UNL     1     -11.354  -9.927   2.774  0.00  0.00    +0.002 A 
ATOM      9  C   UNL     1     -10.184  -9.257   2.689  0.00  0.00    +0.027 A 
ATOM     10  C   UNL     1      -9.761  -8.729   1.384  0.00  0.00    +0.061 A 
ATOM     11  N   UNL     1      -8.638  -8.079   1.263  0.00  0.00    -0.359 N 
ATOM     12  H   UNL     1      -8.065  -7.933   2.032  0.00  0.00    +0.162 HD
ATOM     13  H   UNL     1     -10.943  -8.687  -1.724  0.00  0.00    +0.167 HD
ENDROOT
BRANCH   3  14
ATOM     14  S   UNL     1      -9.961  -7.704  -3.664  0.00  0.00    +0.107 S 
ATOM     15  O   UNL     1      -9.962  -9.110  -3.868  0.00  0.00    -0.146 OA
ATOM     16  O   UNL     1     -11.149  -6.974  -3.387  0.00  0.00    -0.146 OA
BRANCH  14  17
ATOM     17  C   UNL     1      -9.255  -6.986  -5.110  0.00  0.00    +0.150 A 
ATOM     18  C   UNL     1      -8.415  -7.543  -6.017  0.00  0.00    +0.037 A 
ATOM     19  C   UNL     1      -7.984  -6.782  -7.087  0.00  0.00    +0.010 A 
ATOM     20  C   UNL     1      -8.413  -5.501  -7.198  0.00  0.00    +0.047 A 
ATOM     21  S   UNL     1      -9.466  -5.339  -5.765  0.00  0.00    -0.076 S 
ENDBRANCH  14  17
ENDBRANCH   3  14
BRANCH   1  22
ATOM     22  N   UNL     1      -8.085  -6.119   0.046  0.00  0.00    -0.318 N 
ATOM     23  H   UNL     1      -8.861  -5.539   0.089  0.00  0.00    +0.148 HD
BRANCH  22  27
ATOM     24  C   UNL     1      -4.262  -4.491   0.175  0.00  0.00    +0.059 A 
ATOM     25  C   UNL     1      -4.436  -5.877   0.244  0.00  0.00    +0.017 A 
ATOM     26  C   UNL     1      -5.699  -6.410   0.202  0.00  0.00    +0.024 A 
ATOM     27  C   UNL     1      -6.806  -5.574   0.090  0.00  0.00    +0.029 A 
ATOM     28  C   UNL     1      -6.637  -4.194   0.020  0.00  0.00    +0.024 A 
ATOM     29  C   UNL     1      -5.378  -3.654   0.068  0.00  0.00    +0.017 A 
BRANCH  24  30
ATOM     30  C   UNL     1      -2.907  -3.913   0.220  0.00  0.00    +0.339 C 
ATOM     31  O   UNL     1      -2.758  -2.709   0.165  0.00  0.00    -0.245 OA
BRANCH  30  32
ATOM     32  O   UNL     1      -1.834  -4.721   0.323  0.00  0.00    -0.461 OA
BRANCH  32  33
ATOM     33  C   UNL     1      -0.550  -4.094   0.362  0.00  0.00    +0.232 C 
BRANCH  33  34
ATOM     34  C   UNL     1       0.537  -5.163   0.480  0.00  0.00    +0.041 C 
BRANCH  34  36
ATOM     35  C   UNL     1       2.999  -5.561   0.640  0.00  0.00    +0.004 C 
ATOM     36  C   UNL     1       1.911  -4.491   0.522  0.00  0.00    -0.000 C 
ENDBRANCH  34  36
ENDBRANCH  33  34
ENDBRANCH  32  33
ENDBRANCH  30  32
ENDBRANCH  24  30
ENDBRANCH  22  27
ENDBRANCH   1  22
TORSDOF 9
