REMARK  Name = ZINC40160519
REMARK  9 active torsions:
REMARK  status: ('A' for Active; 'I' for Inactive)
REMARK    1  A    between atoms: C_1  and  C_2
REMARK    2  A    between atoms: C_2  and  N_3
REMARK    3  A    between atoms: N_3  and  C_4
REMARK    4  A    between atoms: C_4  and  C_5
REMARK    5  A    between atoms: N_7  and  C_8
REMARK    6  A    between atoms: C_18  and  C_20
REMARK    7  A    between atoms: C_20  and  C_21
REMARK    8  A    between atoms: C_21  and  C_22
REMARK    9  A    between atoms: C_22  and  C_24
REMARK                            x       y       z     vdW  Elec       q    Type
REMARK                         _______ _______ _______ _____ _____    ______ ____
ROOT
ATOM      1  C   UNL     1       2.135  -0.703  -1.189  0.00  0.00    +0.203 C 
ENDROOT
BRANCH   1   2
ATOM      2  C   UNL     1       2.417  -2.122  -0.768  0.00  0.00    +0.235 C 
ATOM      3  O   UNL     1       1.499  -2.872  -0.508  0.00  0.00    -0.274 OA
ATOM      4  N   UNL     1       3.689  -2.559  -0.680  0.00  0.00    -0.284 N 
ATOM      5  H   UNL     1       4.420  -1.982  -0.952  0.00  0.00    +0.155 HD
BRANCH   4   6
ATOM      6  C   UNL     1       3.955  -3.847  -0.197  0.00  0.00    +0.037 A 
ATOM      7  C   UNL     1       5.090  -4.081   0.568  0.00  0.00    +0.027 A 
ATOM      8  C   UNL     1       5.354  -5.350   1.044  0.00  0.00    +0.051 A 
ATOM      9  C   UNL     1       4.487  -6.395   0.760  0.00  0.00    +0.162 A 
ATOM     10  C   UNL     1       3.349  -6.164  -0.003  0.00  0.00    +0.164 A 
ATOM     11  C   UNL     1       3.083  -4.888  -0.478  0.00  0.00    +0.072 A 
ATOM     12  O   UNL     1       2.482  -7.175  -0.286  0.00  0.00    -0.485 OA
ATOM     13  C   UNL     1       2.969  -8.509  -0.106  0.00  0.00    +0.270 C 
ATOM     14  C   UNL     1       3.685  -8.580   1.250  0.00  0.00    +0.270 C 
ATOM     15  O   UNL     1       4.765  -7.641   1.236  0.00  0.00    -0.485 OA
ENDBRANCH   4   6
ENDBRANCH   1   2
BRANCH   1  16
ATOM     16  N   UNL     1       0.688  -0.477  -1.206  0.00  0.00    -0.293 N 
ATOM     17  C   UNL     1      -0.017  -0.712  -2.330  0.00  0.00    +0.216 C 
ATOM     18  O   UNL     1       0.546  -1.110  -3.328  0.00  0.00    -0.276 OA
BRANCH  16  20
ATOM     19  C   UNL     1      -0.012   1.534  -0.003  0.00  0.00    +0.024 C 
ATOM     20  C   UNL     1       0.007   0.004  -0.002  0.00  0.00    +0.105 C 
ENDBRANCH  16  20
BRANCH  17  21
ATOM     21  C   UNL     1      -1.506  -0.479  -2.349  0.00  0.00    +0.104 C 
BRANCH  21  22
ATOM     22  C   UNL     1      -2.058  -0.819  -3.734  0.00  0.00    +0.089 C 
BRANCH  22  23
ATOM     23  C   UNL     1      -3.547  -0.587  -3.752  0.00  0.00    +0.170 C 
ATOM     24  O   UNL     1      -4.112  -0.188  -2.754  0.00  0.00    -0.291 OA
BRANCH  23  25
ATOM     25  C   UNL     1      -4.286  -0.832  -4.931  0.00  0.00    +0.055 A 
ATOM     26  C   UNL     1      -5.651  -0.679  -5.159  0.00  0.00    +0.019 A 
ATOM     27  C   UNL     1      -6.082  -1.001  -6.420  0.00  0.00    +0.008 A 
ATOM     28  C   UNL     1      -5.179  -1.436  -7.337  0.00  0.00    +0.046 A 
ATOM     29  S   UNL     1      -3.714  -1.413  -6.516  0.00  0.00    -0.094 S 
ENDBRANCH  23  25
ENDBRANCH  22  23
ENDBRANCH  21  22
ENDBRANCH  17  21
ENDBRANCH   1  16
TORSDOF 8
