REMARK  Name = ZINC05457841
REMARK  10 active torsions:
REMARK  status: ('A' for Active; 'I' for Inactive)
REMARK    1  A    between atoms: C_1  and  C_2
REMARK    2  A    between atoms: C_2  and  C_3
REMARK    3  A    between atoms: C_3  and  O_4
REMARK    4  A    between atoms: O_4  and  C_5
REMARK    5  A    between atoms: C_8  and  C_11
REMARK    6  A    between atoms: C_18  and  N_32
REMARK    7  A    between atoms: C_19  and  C_30
REMARK    8  A    between atoms: C_20  and  C_22
REMARK    9  A    between atoms: C_25  and  S_28
REMARK   10  A    between atoms: S_28  and  C_29
REMARK                            x       y       z     vdW  Elec       q    Type
REMARK                         _______ _______ _______ _____ _____    ______ ____
ROOT
ATOM      1  C   UNL     1      -6.380  -4.579   0.038  0.00  0.00    +0.100 A 
ATOM      2  C   UNL     1      -6.680  -5.783  -0.605  0.00  0.00    +0.054 A 
ATOM      3  C   UNL     1      -7.987  -6.082  -0.353  0.00  0.00    +0.223 A 
ATOM      4  N   UNL     1      -8.492  -5.099   0.420  0.00  0.00    -0.246 N 
ATOM      5  H   UNL     1      -9.401  -5.046   0.755  0.00  0.00    +0.192 HD
ATOM      6  N   UNL     1      -7.469  -4.168   0.660  0.00  0.00    -0.171 NA
ATOM      7  O   UNL     1      -8.589  -7.198  -0.837  0.00  0.00    -0.423 OA
ATOM      8  C   UNL     1      -7.799  -8.161  -1.353  0.00  0.00    +0.200 C 
ATOM      9  C   UNL     1      -6.494  -7.980  -1.655  0.00  0.00    +0.098 C 
ATOM     10  C   UNL     1      -5.790  -6.662  -1.445  0.00  0.00    +0.102 C 
ENDROOT
BRANCH   1  14
ATOM     11  C   UNL     1      -2.616  -2.596   0.013  0.00  0.00    +0.121 A 
ATOM     12  C   UNL     1      -3.790  -1.854   0.022  0.00  0.00    +0.046 A 
ATOM     13  C   UNL     1      -5.011  -2.494   0.031  0.00  0.00    +0.013 A 
ATOM     14  C   UNL     1      -5.067  -3.887   0.029  0.00  0.00    +0.003 A 
ATOM     15  C   UNL     1      -3.887  -4.629   0.019  0.00  0.00    +0.013 A 
ATOM     16  C   UNL     1      -2.668  -3.983   0.006  0.00  0.00    +0.046 A 
BRANCH  11  17
ATOM     17  O   UNL     1      -1.414  -1.962   0.005  0.00  0.00    -0.492 OA
BRANCH  17  18
ATOM     18  C   UNL     1      -1.433  -0.534   0.013  0.00  0.00    +0.229 C 
BRANCH  18  20
ATOM     19  C   UNL     1      -0.019   1.526   0.010  0.00  0.00    +0.007 C 
ATOM     20  C   UNL     1       0.002  -0.004   0.002  0.00  0.00    +0.038 C 
ENDBRANCH  18  20
ENDBRANCH  17  18
ENDBRANCH  11  17
ENDBRANCH   1  14
BRANCH  10  21
ATOM     21  C   UNL     1      -5.535  -6.004  -2.776  0.00  0.00    -0.034 A 
ATOM     22  C   UNL     1      -6.596  -5.703  -3.611  0.00  0.00    +0.005 A 
ATOM     23  C   UNL     1      -6.366  -5.099  -4.832  0.00  0.00    +0.015 A 
ATOM     24  C   UNL     1      -5.067  -4.795  -5.221  0.00  0.00    +0.008 A 
ATOM     25  C   UNL     1      -4.004  -5.098  -4.379  0.00  0.00    +0.015 A 
ATOM     26  C   UNL     1      -4.242  -5.697  -3.158  0.00  0.00    +0.005 A 
BRANCH  24  27
ATOM     27  S   UNL     1      -4.769  -4.025  -6.778  0.00  0.00    -0.129 S 
ATOM     28  C   UNL     1      -2.966  -3.833  -6.834  0.00  0.00    +0.090 C 
ENDBRANCH  24  27
ENDBRANCH  10  21
BRANCH   8  29
ATOM     29  N   UNL     1      -8.351  -9.396  -1.584  0.00  0.00    -0.328 N 
ATOM     30  H   UNL     1      -9.285  -9.556  -1.377  0.00  0.00    +0.145 HD
ATOM     31  H   UNL     1      -7.807 -10.109  -1.955  0.00  0.00    +0.145 HD
ENDBRANCH   8  29
BRANCH   9  32
ATOM     32  C   UNL     1      -5.752  -9.080  -2.194  0.00  0.00    +0.101 C 
ATOM     33  N   UNL     1      -5.164  -9.953  -2.622  0.00  0.00    -0.191 NA
ENDBRANCH   9  32
TORSDOF 8
