REMARK  Name = ZINC13032503
REMARK  7 active torsions:
REMARK  status: ('A' for Active; 'I' for Inactive)
REMARK    1  A    between atoms: C_1  and  C_2
REMARK    2  A    between atoms: C_4  and  C_30
REMARK    3  A    between atoms: C_6  and  S_9
REMARK    4  A    between atoms: C_7  and  C_8
REMARK    5  A    between atoms: S_9  and  N_12
REMARK    6  A    between atoms: C_15  and  C_18
REMARK    7  A    between atoms: C_21  and  N_24
REMARK                            x       y       z     vdW  Elec       q    Type
REMARK                         _______ _______ _______ _____ _____    ______ ____
ROOT
ATOM      1  N   UNL     1       0.247   1.042   0.228  0.00  0.00    -0.194 N 
ATOM      2  C   UNL     1       0.406  -0.335   0.219  0.00  0.00    +0.178 A 
ATOM      3  N   UNL     1      -0.491  -1.280   0.433  0.00  0.00    -0.224 NA
ATOM      4  C   UNL     1      -0.158  -2.568   0.383  0.00  0.00    +0.080 A 
ATOM      5  C   UNL     1       1.133  -2.915   0.106  0.00  0.00    +0.077 A 
ATOM      6  S   UNL     1       1.877  -1.301  -0.093  0.00  0.00    -0.059 S 
ATOM      7  H   UNL     1      -0.636   1.427   0.335  0.00  0.00    +0.176 HD
ENDROOT
BRANCH   4   8
ATOM      8  C   UNL     1      -1.180  -3.616   0.626  0.00  0.00    +0.001 A 
ATOM      9  C   UNL     1      -0.826  -4.963   0.566  0.00  0.00    +0.012 A 
ATOM     10  C   UNL     1      -1.776  -5.935   0.798  0.00  0.00    +0.024 A 
ATOM     11  C   UNL     1      -3.088  -5.573   1.079  0.00  0.00    +0.036 A 
ATOM     12  C   UNL     1      -3.444  -4.231   1.133  0.00  0.00    +0.024 A 
ATOM     13  C   UNL     1      -2.497  -3.255   0.908  0.00  0.00    +0.012 A 
BRANCH  11  14
ATOM     14  N   UNL     1      -4.051  -6.561   1.309  0.00  0.00    -0.271 N 
ATOM     15  C   UNL     1      -5.483  -6.295   1.491  0.00  0.00    +0.114 C 
ATOM     16  C   UNL     1      -6.062  -7.575   2.133  0.00  0.00    +0.029 C 
ATOM     17  C   UNL     1      -5.057  -8.650   1.655  0.00  0.00    +0.098 C 
ATOM     18  C   UNL     1      -3.785  -7.877   1.385  0.00  0.00    +0.220 C 
ATOM     19  O   UNL     1      -2.685  -8.371   1.258  0.00  0.00    -0.275 OA
ENDBRANCH  11  14
ENDBRANCH   4   8
BRANCH   1  20
ATOM     20  S   UNL     1       1.565   2.028   0.051  0.00  0.00    +0.074 S 
ATOM     21  O   UNL     1       1.081   3.364   0.086  0.00  0.00    -0.150 OA
ATOM     22  O   UNL     1       2.554   1.552   0.955  0.00  0.00    -0.150 OA
BRANCH  20  28
ATOM     23  C   UNL     1       1.092   2.291  -5.147  0.00  0.00    +0.044 C 
ATOM     24  C   UNL     1       1.928   1.909  -3.953  0.00  0.00    -0.045 A 
ATOM     25  C   UNL     1       3.179   1.357  -4.136  0.00  0.00    +0.018 A 
ATOM     26  C   UNL     1       3.952   1.004  -3.028  0.00  0.00    +0.065 A 
ATOM     27  C   UNL     1       3.451   1.212  -1.741  0.00  0.00    +0.044 A 
ATOM     28  C   UNL     1       2.199   1.765  -1.572  0.00  0.00    +0.112 A 
ATOM     29  C   UNL     1       1.436   2.107  -2.675  0.00  0.00    -0.021 A 
ATOM     30  C   UNL     1       0.066   2.705  -2.483  0.00  0.00    +0.046 C 
BRANCH  26  31
ATOM     31  C   UNL     1       5.292   0.413  -3.216  0.00  0.00    +0.387 C 
ATOM     32  O   UNL     1       5.962   0.106  -2.250  0.00  0.00    -0.241 OA
ATOM     33  O   UNL     1       5.772   0.213  -4.459  0.00  0.00    -0.241 OA
ENDBRANCH  26  31
ENDBRANCH  20  28
ENDBRANCH   1  20
TORSDOF 5
