REMARK  Name = ZINC39587539
REMARK  8 active torsions:
REMARK  status: ('A' for Active; 'I' for Inactive)
REMARK    1  A    between atoms: C_1  and  C_2
REMARK    2  A    between atoms: C_2  and  C_4
REMARK    3  A    between atoms: C_2  and  O_19
REMARK    4  A    between atoms: N_6  and  C_7
REMARK    5  A    between atoms: C_10  and  N_13
REMARK    6  A    between atoms: O_19  and  C_20
REMARK    7  A    between atoms: C_20  and  C_22
REMARK    8  A    between atoms: C_27  and  O_28
REMARK                            x       y       z     vdW  Elec       q    Type
REMARK                         _______ _______ _______ _____ _____    ______ ____
ROOT
ATOM      1  C   UNL     1       0.712  -0.480  -1.238  0.00  0.00    +0.258 C 
ATOM      2  O   UNL     1       1.768  -1.070  -1.143  0.00  0.00    -0.271 OA
ATOM      3  N   UNL     1       0.176  -0.250  -2.453  0.00  0.00    -0.282 N 
ATOM      4  H   UNL     1      -0.698   0.163  -2.527  0.00  0.00    +0.155 HD
ENDROOT
BRANCH   3   5
ATOM      5  C   UNL     1       0.882  -0.609  -3.610  0.00  0.00    +0.034 A 
ATOM      6  C   UNL     1       0.795   0.181  -4.749  0.00  0.00    +0.025 A 
ATOM      7  C   UNL     1       1.491  -0.172  -5.888  0.00  0.00    +0.025 A 
ATOM      8  C   UNL     1       2.278  -1.317  -5.894  0.00  0.00    +0.030 A 
ATOM      9  C   UNL     1       2.364  -2.106  -4.755  0.00  0.00    +0.025 A 
ATOM     10  C   UNL     1       1.673  -1.750  -3.614  0.00  0.00    +0.025 A 
BRANCH   8  11
ATOM     11  N   UNL     1       2.982  -1.675  -7.049  0.00  0.00    -0.326 N 
ATOM     12  C   UNL     1       3.006  -0.792  -8.226  0.00  0.00    +0.133 C 
ATOM     13  C   UNL     1       4.465  -0.601  -8.657  0.00  0.00    +0.178 C 
ATOM     14  O   UNL     1       5.082  -1.881  -8.811  0.00  0.00    -0.377 OA
ATOM     15  C   UNL     1       5.145  -2.648  -7.606  0.00  0.00    +0.178 C 
ATOM     16  C   UNL     1       3.726  -2.942  -7.119  0.00  0.00    +0.133 C 
ENDBRANCH   8  11
ENDBRANCH   3   5
BRANCH   1  18
ATOM     17  C   UNL     1      -0.045   1.526   0.008  0.00  0.00    +0.062 C 
ATOM     18  C   UNL     1       0.000  -0.004   0.002  0.00  0.00    +0.259 C 
BRANCH  18  19
ATOM     19  O   UNL     1       0.700  -0.464   1.159  0.00  0.00    -0.449 OA
BRANCH  19  20
ATOM     20  C   UNL     1      -0.033  -0.695   2.266  0.00  0.00    +0.343 C 
ATOM     21  O   UNL     1      -1.234  -0.510   2.249  0.00  0.00    -0.245 OA
BRANCH  20  22
ATOM     22  C   UNL     1       0.621  -1.171   3.498  0.00  0.00    +0.101 A 
ATOM     23  C   UNL     1       2.003  -1.380   3.524  0.00  0.00    +0.034 A 
ATOM     24  C   UNL     1       2.609  -1.825   4.680  0.00  0.00    +0.019 A 
ATOM     25  C   UNL     1       1.853  -2.068   5.817  0.00  0.00    +0.019 A 
ATOM     26  C   UNL     1       0.487  -1.865   5.804  0.00  0.00    +0.047 A 
ATOM     27  C   UNL     1      -0.138  -1.413   4.652  0.00  0.00    +0.131 A 
ATOM     28 BR   UNL     1       4.478  -2.108   4.714  0.00  0.00    -0.050 Br
BRANCH  27  29
ATOM     29  O   UNL     1      -1.479  -1.208   4.640  0.00  0.00    -0.506 OA
ATOM     30  H   UNL     1      -1.993  -1.985   4.379  0.00  0.00    +0.292 HD
ENDBRANCH  27  29
ENDBRANCH  20  22
ENDBRANCH  19  20
ENDBRANCH  18  19
ENDBRANCH   1  18
TORSDOF 7
