REMARK  Name = ZINC62524010
REMARK  5 active torsions:
REMARK  status: ('A' for Active; 'I' for Inactive)
REMARK    1  A    between atoms: C_3  and  N_18
REMARK    2  A    between atoms: C_6  and  N_7
REMARK    3  A    between atoms: C_8  and  C_10
REMARK    4  A    between atoms: C_11  and  C_12
REMARK    5  A    between atoms: N_21  and  C_22
REMARK                            x       y       z     vdW  Elec       q    Type
REMARK                         _______ _______ _______ _____ _____    ______ ____
ROOT
ATOM      1  C   UNL     1      -0.174   1.395  -0.162  0.00  0.00    +0.025 A 
ATOM      2  C   UNL     1       0.974   2.156  -0.245  0.00  0.00    +0.025 A 
ATOM      3  C   UNL     1       2.213   1.570  -0.021  0.00  0.00    +0.035 A 
ATOM      4  C   UNL     1       2.296   0.218   0.286  0.00  0.00    +0.025 A 
ATOM      5  C   UNL     1       1.148  -0.543   0.368  0.00  0.00    +0.025 A 
ATOM      6  C   UNL     1      -0.091   0.043   0.145  0.00  0.00    +0.034 A 
ENDROOT
BRANCH   3   7
ATOM      7  N   UNL     1       3.379   2.342  -0.105  0.00  0.00    -0.269 N 
ATOM      8  C   UNL     1       3.371   3.623   0.314  0.00  0.00    +0.308 C 
ATOM      9  O   UNL     1       2.332   4.134   0.686  0.00  0.00    -0.252 OA
ATOM     10  N   UNL     1       4.513   4.337   0.320  0.00  0.00    -0.269 N 
ATOM     11  H   UNL     1       4.192   1.955  -0.465  0.00  0.00    +0.156 HD
ATOM     12  H   UNL     1       5.326   3.956  -0.048  0.00  0.00    +0.156 HD
BRANCH  10  13
ATOM     13  C   UNL     1       4.528   5.630   0.857  0.00  0.00    +0.035 A 
ATOM     14  C   UNL     1       3.710   5.944   1.935  0.00  0.00    +0.025 A 
ATOM     15  C   UNL     1       3.726   7.220   2.463  0.00  0.00    +0.022 A 
ATOM     16  C   UNL     1       4.556   8.185   1.919  0.00  0.00    +0.041 A 
ATOM     17  C   UNL     1       5.372   7.874   0.846  0.00  0.00    +0.022 A 
ATOM     18  C   UNL     1       5.365   6.598   0.318  0.00  0.00    +0.025 A 
ATOM     19 CL   UNL     1       4.574   9.788   2.585  0.00  0.00    -0.084 Cl
ENDBRANCH  10  13
ENDBRANCH   3   7
BRANCH   6  20
ATOM     20  N   UNL     1      -1.256  -0.728   0.229  0.00  0.00    -0.282 N 
ATOM     21  C   UNL     1      -2.307  -0.451  -0.568  0.00  0.00    +0.241 C 
ATOM     22  O   UNL     1      -2.211   0.406  -1.425  0.00  0.00    -0.270 OA
ATOM     23  H   UNL     1      -1.307  -1.462   0.862  0.00  0.00    +0.155 HD
BRANCH  21  24
ATOM     24  C   UNL     1      -3.567  -1.183  -0.401  0.00  0.00    +0.070 C 
ATOM     25  C   UNL     1      -4.617  -0.906  -1.198  0.00  0.00    +0.034 C 
BRANCH  25  26
ATOM     26  C   UNL     1      -5.882  -1.642  -1.030  0.00  0.00    +0.082 A 
ATOM     27  C   UNL     1      -6.973  -1.361  -1.860  0.00  0.00    +0.138 A 
ATOM     28  N   UNL     1      -8.104  -2.023  -1.704  0.00  0.00    -0.260 NA
ATOM     29  C   UNL     1      -8.206  -2.951  -0.768  0.00  0.00    +0.130 A 
ATOM     30  C   UNL     1      -7.128  -3.233   0.057  0.00  0.00    +0.131 A 
ATOM     31  N   UNL     1      -5.991  -2.582  -0.092  0.00  0.00    -0.253 NA
ENDBRANCH  25  26
ENDBRANCH  21  24
ENDBRANCH   6  20
TORSDOF 5
