REMARK  Name = ZINC20581945
REMARK  8 active torsions:
REMARK  status: ('A' for Active; 'I' for Inactive)
REMARK    1  A    between atoms: C_1  and  C_2
REMARK    2  A    between atoms: C_5  and  C_34
REMARK    3  A    between atoms: C_6  and  N_8
REMARK    4  A    between atoms: C_9  and  C_11
REMARK    5  A    between atoms: C_14  and  C_17
REMARK    6  A    between atoms: C_17  and  N_18
REMARK    7  A    between atoms: N_18  and  S_19
REMARK    8  A    between atoms: S_19  and  C_22
REMARK                            x       y       z     vdW  Elec       q    Type
REMARK                         _______ _______ _______ _____ _____    ______ ____
ROOT
ATOM      1  C   UNL     1      -4.689  -0.136   2.441  0.00  0.00    +0.109 C 
ENDROOT
BRANCH   1   5
ATOM      2  C   UNL     1      -7.694  -0.638   5.514  0.00  0.00    +0.075 C 
ATOM      3  C   UNL     1      -6.361   0.001   5.907  0.00  0.00    +0.013 C 
ATOM      4  C   UNL     1      -5.652   0.516   4.652  0.00  0.00    +0.005 C 
ATOM      5  C   UNL     1      -5.397  -0.651   3.695  0.00  0.00    +0.005 C 
ATOM      6  C   UNL     1      -6.731  -1.289   3.303  0.00  0.00    +0.005 C 
ATOM      7  C   UNL     1      -7.439  -1.804   4.557  0.00  0.00    +0.013 C 
BRANCH   2   9
ATOM      8  N   UNL     1      -9.791   0.051   4.397  0.00  0.00    -0.285 N 
ATOM      9  C   UNL     1      -8.562   0.389   4.833  0.00  0.00    +0.220 C 
ATOM     10  O   UNL     1      -8.154   1.521   4.677  0.00  0.00    -0.275 OA
ATOM     11  H   UNL     1     -10.127  -0.995   4.456  0.00  0.00    +0.155 HD
BRANCH   8  17
ATOM     12  C   UNL     1     -11.155   4.766   4.117  0.00  0.00    +0.044 C 
ATOM     13  C   UNL     1     -11.325   3.323   3.717  0.00  0.00    -0.049 A 
ATOM     14  C   UNL     1     -12.322   2.965   2.828  0.00  0.00    +0.004 A 
ATOM     15  C   UNL     1     -12.480   1.642   2.459  0.00  0.00    +0.005 A 
ATOM     16  C   UNL     1     -11.639   0.674   2.973  0.00  0.00    -0.029 A 
ATOM     17  C   UNL     1     -10.641   1.029   3.870  0.00  0.00    +0.037 A 
ATOM     18  C   UNL     1     -10.484   2.359   4.239  0.00  0.00    +0.027 A 
ATOM     19  C   UNL     1     -11.809  -0.767   2.565  0.00  0.00    +0.045 C 
ENDBRANCH   8  17
ENDBRANCH   2   9
ENDBRANCH   1   5
BRANCH   1  20
ATOM     20  N   UNL     1      -4.338  -1.268   1.579  0.00  0.00    -0.190 NA
ATOM     21  H   UNL     1      -4.202  -2.269   2.014  0.00  0.00    +0.148 HD
BRANCH  20  22
ATOM     22  S   UNL     1      -3.904  -1.005   0.003  0.00  0.00    +0.058 S 
ATOM     23  O   UNL     1      -4.892  -0.147  -0.553  0.00  0.00    -0.153 OA
ATOM     24  O   UNL     1      -3.601  -2.277  -0.553  0.00  0.00    -0.153 OA
BRANCH  22  25
ATOM     25  C   UNL     1      -2.397  -0.092   0.022  0.00  0.00    +0.106 A 
ATOM     26  C   UNL     1      -2.420   1.292   0.029  0.00  0.00    +0.030 A 
ATOM     27  C   UNL     1      -1.236   1.988   0.040  0.00  0.00    +0.025 A 
ATOM     28  C   UNL     1       0.004   1.327   0.042  0.00  0.00    +0.037 A 
ATOM     29  C   UNL     1       0.020  -0.051   0.044  0.00  0.00    -0.024 A 
ATOM     30  C   UNL     1      -1.189  -0.748   0.030  0.00  0.00    +0.034 A 
ATOM     31  C   UNL     1       1.250  -0.899   0.064  0.00  0.00    +0.037 C 
ATOM     32  C   UNL     1       2.396  -0.364   0.865  0.00  0.00    +0.014 C 
ATOM     33  C   UNL     1       3.155   0.739   0.169  0.00  0.00    +0.096 C 
ATOM     34  C   UNL     1       2.391   2.014   0.154  0.00  0.00    +0.217 C 
ATOM     35  O   UNL     1       3.039   3.033   0.263  0.00  0.00    -0.275 OA
ATOM     36  N   UNL     1       1.101   2.157   0.036  0.00  0.00    -0.285 N 
ATOM     37  H   UNL     1       0.970   3.241  -0.097  0.00  0.00    +0.155 HD
ENDBRANCH  22  25
ENDBRANCH  20  22
ENDBRANCH   1  20
TORSDOF 6
