REMARK  Name = ZINC21002287
REMARK  4 active torsions:
REMARK  status: ('A' for Active; 'I' for Inactive)
REMARK    1  A    between atoms: C_7  and  C_11
REMARK    2  A    between atoms: N_12  and  C_13
REMARK    3  A    between atoms: C_16  and  C_19
REMARK    4  A    between atoms: C_22  and  C_24
REMARK                            x       y       z     vdW  Elec       q    Type
REMARK                         _______ _______ _______ _____ _____    ______ ____
ROOT
ATOM      1  C   UNL     1       1.087   3.495   0.011  0.00  0.00    +0.064 A 
ATOM      2  C   UNL     1       0.217   4.188  -0.838  0.00  0.00    +0.028 A 
ATOM      3  C   UNL     1       0.195   5.553  -0.827  0.00  0.00    +0.015 A 
ATOM      4  C   UNL     1       1.050   6.259   0.025  0.00  0.00    +0.039 A 
ATOM      5  C   UNL     1       1.924   5.567   0.870  0.00  0.00    +0.015 A 
ATOM      6  C   UNL     1       1.942   4.202   0.863  0.00  0.00    +0.028 A 
ENDROOT
BRANCH   4   7
ATOM      7  C   UNL     1       1.030   7.734   0.033  0.00  0.00    +0.249 A 
ATOM      8  N   UNL     1       1.777   8.518   0.779  0.00  0.00    -0.107 NA
ATOM      9  N   UNL     1       1.495   9.747   0.524  0.00  0.00    -0.104 NA
ATOM     10  C   UNL     1       0.555   9.798  -0.397  0.00  0.00    +0.284 A 
ATOM     11  O   UNL     1       0.247   8.526  -0.729  0.00  0.00    -0.413 OA
BRANCH  10  12
ATOM     12  C   UNL     1      -0.043  11.014  -0.962  0.00  0.00    +0.191 A 
ATOM     13  C   UNL     1       0.277  12.296  -0.624  0.00  0.00    +0.055 A 
ATOM     14  C   UNL     1      -0.536  13.136  -1.408  0.00  0.00    +0.042 A 
ATOM     15  C   UNL     1      -1.305  12.338  -2.177  0.00  0.00    +0.196 A 
ATOM     16  O   UNL     1      -1.001  11.058  -1.910  0.00  0.00    -0.458 OA
ENDBRANCH  10  12
ENDBRANCH   4   7
BRANCH   1  18
ATOM     17  C   UNL     1      -0.018   1.460   0.010  0.00  0.00    +0.121 C 
ATOM     18  N   UNL     1       1.105   2.130   0.003  0.00  0.00    -0.255 NA
BRANCH  17  25
ATOM     19  C   UNL     1       3.447  -1.688  -0.039  0.00  0.00    +0.001 A 
ATOM     20  C   UNL     1       2.973  -2.992  -0.042  0.00  0.00    +0.002 A 
ATOM     21  C   UNL     1       1.619  -3.246  -0.030  0.00  0.00    +0.026 A 
ATOM     22  C   UNL     1       0.714  -2.190  -0.017  0.00  0.00    +0.047 A 
ATOM     23  C   UNL     1       1.195  -0.871  -0.014  0.00  0.00    +0.008 A 
ATOM     24  C   UNL     1       2.567  -0.628  -0.025  0.00  0.00    +0.010 A 
ATOM     25  C   UNL     1       0.002  -0.004   0.002  0.00  0.00    +0.018 A 
ATOM     26  C   UNL     1      -1.080  -0.837   0.014  0.00  0.00    +0.093 A 
ATOM     27  N   UNL     1      -0.664  -2.128  -0.003  0.00  0.00    -0.360 N 
ATOM     28  H   UNL     1      -1.256  -3.055  -0.007  0.00  0.00    +0.165 HD
ENDBRANCH  17  25
ENDBRANCH   1  18
TORSDOF 4
