REMARK  Name = ZINC09598377
REMARK  9 active torsions:
REMARK  status: ('A' for Active; 'I' for Inactive)
REMARK    1  A    between atoms: C_1  and  C_2
REMARK    2  A    between atoms: C_4  and  N_29
REMARK    3  A    between atoms: C_8  and  N_11
REMARK    4  A    between atoms: C_12  and  C_14
REMARK    5  A    between atoms: C_14  and  C_15
REMARK    6  A    between atoms: C_15  and  C_16
REMARK    7  A    between atoms: N_18  and  C_19
REMARK    8  A    between atoms: C_31  and  C_38
REMARK    9  A    between atoms: C_34  and  C_37
REMARK                            x       y       z     vdW  Elec       q    Type
REMARK                         _______ _______ _______ _____ _____    ______ ____
ROOT
ATOM      1  C   UNL     1       6.731 -11.559   1.100  0.00  0.00    +0.044 C 
ATOM      2  C   UNL     1       8.056 -10.840   1.073  0.00  0.00    -0.038 A 
ATOM      3  C   UNL     1       9.224 -11.522   1.231  0.00  0.00    +0.045 A 
ATOM      4  C   UNL     1      10.445 -10.833   1.202  0.00  0.00    +0.099 A 
ATOM      5  C   UNL     1       9.381  -8.806   0.864  0.00  0.00    +0.048 A 
ATOM      6  C   UNL     1       8.117  -9.444   0.883  0.00  0.00    +0.003 A 
ATOM      7  C   UNL     1       6.951  -8.682   0.716  0.00  0.00    +0.033 A 
ATOM      8  C   UNL     1       7.052  -7.320   0.533  0.00  0.00    +0.034 A 
ATOM      9  C   UNL     1       8.304  -6.696   0.509  0.00  0.00    +0.025 A 
ATOM     10  C   UNL     1       9.446  -7.414   0.675  0.00  0.00    +0.028 A 
ATOM     11  N   UNL     1      10.564  -9.494   1.023  0.00  0.00    -0.343 N 
ATOM     12  H   UNL     1      11.477  -9.024   1.007  0.00  0.00    +0.167 HD
ENDROOT
BRANCH   4  13
ATOM     13  N   UNL     1      11.627 -11.541   1.364  0.00  0.00    -0.316 N 
ATOM     14  C   UNL     1      11.613 -12.309   2.616  0.00  0.00    +0.109 C 
ATOM     15  C   UNL     1      12.864 -13.187   2.691  0.00  0.00    +0.004 C 
ATOM     16  C   UNL     1      14.110 -12.299   2.629  0.00  0.00    +0.009 C 
ATOM     17  C   UNL     1      14.075 -11.475   1.339  0.00  0.00    +0.004 C 
ATOM     18  C   UNL     1      12.789 -10.646   1.303  0.00  0.00    +0.109 C 
ATOM     19  C   UNL     1      14.112 -12.414   0.132  0.00  0.00    +0.009 C 
ATOM     20  C   UNL     1      12.860 -13.970   4.005  0.00  0.00    +0.009 C 
ENDBRANCH   4  13
BRANCH   8  21
ATOM     21  N   UNL     1       5.891  -6.555   0.366  0.00  0.00    -0.285 N 
ATOM     22  C   UNL     1       5.824  -5.311   0.880  0.00  0.00    +0.218 C 
ATOM     23  O   UNL     1       6.797  -4.823   1.416  0.00  0.00    -0.275 OA
ATOM     24  H   UNL     1       5.136  -6.920  -0.121  0.00  0.00    +0.155 HD
BRANCH  22  25
ATOM     25  C   UNL     1       4.541  -4.527   0.790  0.00  0.00    +0.105 C 
BRANCH  25  26
ATOM     26  C   UNL     1       4.733  -3.157   1.446  0.00  0.00    +0.105 C 
BRANCH  26  27
ATOM     27  C   UNL     1       3.449  -2.373   1.355  0.00  0.00    +0.218 C 
ATOM     28  O   UNL     1       2.477  -2.861   0.819  0.00  0.00    -0.275 OA
ATOM     29  N   UNL     1       3.382  -1.129   1.870  0.00  0.00    -0.285 N 
ATOM     30  H   UNL     1       4.178  -0.711   2.232  0.00  0.00    +0.155 HD
BRANCH  29  31
ATOM     31  C   UNL     1       2.162  -0.441   1.882  0.00  0.00    +0.037 A 
ATOM     32  C   UNL     1       0.972  -1.138   2.046  0.00  0.00    +0.027 A 
ATOM     33  C   UNL     1      -0.231  -0.460   2.057  0.00  0.00    +0.051 A 
ATOM     34  C   UNL     1      -0.256   0.918   1.903  0.00  0.00    +0.162 A 
ATOM     35  C   UNL     1       0.933   1.619   1.742  0.00  0.00    +0.164 A 
ATOM     36  C   UNL     1       2.141   0.938   1.729  0.00  0.00    +0.072 A 
ATOM     37  O   UNL     1       0.930   2.973   1.598  0.00  0.00    -0.485 OA
ATOM     38  C   UNL     1      -0.317   3.579   1.241  0.00  0.00    +0.270 C 
ATOM     39  C   UNL     1      -1.415   2.983   2.132  0.00  0.00    +0.270 C 
ATOM     40  O   UNL     1      -1.452   1.568   1.908  0.00  0.00    -0.485 OA
ENDBRANCH  29  31
ENDBRANCH  26  27
ENDBRANCH  25  26
ENDBRANCH  22  25
ENDBRANCH   8  21
TORSDOF 6
