REMARK  Name = ZINC20692711
REMARK  9 active torsions:
REMARK  status: ('A' for Active; 'I' for Inactive)
REMARK    1  A    between atoms: C_1  and  C_2
REMARK    2  A    between atoms: C_2  and  N_3
REMARK    3  A    between atoms: N_3  and  C_4
REMARK    4  A    between atoms: N_3  and  S_10
REMARK    5  A    between atoms: S_10  and  C_13
REMARK    6  A    between atoms: C_26  and  C_29
REMARK    7  A    between atoms: C_32  and  O_37
REMARK    8  A    between atoms: C_33  and  O_35
REMARK    9  A    between atoms: O_35  and  C_36
REMARK                            x       y       z     vdW  Elec       q    Type
REMARK                         _______ _______ _______ _____ _____    ______ ____
ROOT
ATOM      1  C   UNL     1       4.100   3.009  -6.521  0.00  0.00    +0.109 A 
ATOM      2  C   UNL     1       4.424   1.755  -7.006  0.00  0.00    +0.030 A 
ATOM      3  C   UNL     1       4.309   0.653  -6.183  0.00  0.00    +0.025 A 
ATOM      4  C   UNL     1       3.868   0.805  -4.874  0.00  0.00    +0.031 A 
ATOM      5  C   UNL     1       3.541   2.060  -4.384  0.00  0.00    -0.018 A 
ATOM      6  C   UNL     1       3.662   3.161  -5.221  0.00  0.00    +0.034 A 
ATOM      7  C   UNL     1       3.063   2.272  -2.982  0.00  0.00    +0.049 C 
ATOM      8  C   UNL     1       1.555   2.523  -2.912  0.00  0.00    -0.023 C 
ATOM      9  C   UNL     1       1.046   1.964  -1.842  0.00  0.00    -0.030 C 
ATOM     10  C   UNL     1       2.129   1.269  -1.040  0.00  0.00    +0.033 C 
ATOM     11  C   UNL     1       3.257   1.033  -2.087  0.00  0.00    +0.029 C 
ATOM     12  C   UNL     1       2.898  -0.236  -2.865  0.00  0.00    +0.105 C 
ATOM     13  N   UNL     1       3.739  -0.312  -4.064  0.00  0.00    -0.336 N 
ATOM     14  H   UNL     1       4.260  -1.248  -4.313  0.00  0.00    +0.147 HD
ENDROOT
BRANCH  12  15
ATOM     15  C   UNL     1       1.447  -0.187  -3.269  0.00  0.00    -0.023 A 
ATOM     16  C   UNL     1       1.062   0.556  -4.370  0.00  0.00    +0.009 A 
ATOM     17  C   UNL     1      -0.267   0.605  -4.744  0.00  0.00    +0.049 A 
ATOM     18  C   UNL     1      -1.218  -0.092  -4.016  0.00  0.00    +0.158 A 
ATOM     19  C   UNL     1      -0.832  -0.834  -2.904  0.00  0.00    +0.162 A 
ATOM     20  C   UNL     1       0.504  -0.884  -2.538  0.00  0.00    +0.054 A 
BRANCH  19  21
ATOM     21  O   UNL     1      -1.762  -1.515  -2.182  0.00  0.00    -0.491 OA
ATOM     22  C   UNL     1      -1.293  -2.256  -1.054  0.00  0.00    +0.277 C 
ENDBRANCH  19  21
BRANCH  18  23
ATOM     23  O   UNL     1      -2.527  -0.045  -4.382  0.00  0.00    -0.503 OA
ATOM     24  H   UNL     1      -3.281  -0.598  -3.803  0.00  0.00    +0.292 HD
ENDBRANCH  18  23
ENDBRANCH  12  15
BRANCH   1  25
ATOM     25  S   UNL     1       4.246   4.419  -7.567  0.00  0.00    +0.075 S 
ATOM     26  O   UNL     1       4.285   3.932  -8.901  0.00  0.00    -0.150 OA
ATOM     27  O   UNL     1       3.273   5.355  -7.125  0.00  0.00    -0.150 OA
BRANCH  25  28
ATOM     28  N   UNL     1       5.727   5.099  -7.268  0.00  0.00    -0.203 N 
BRANCH  28  29
ATOM     29  C   UNL     1       6.854   4.648  -7.959  0.00  0.00    +0.051 A 
ATOM     30  C   UNL     1       7.259   3.324  -7.842  0.00  0.00    +0.025 A 
ATOM     31  C   UNL     1       8.371   2.881  -8.530  0.00  0.00    +0.002 A 
ATOM     32  C   UNL     1       9.088   3.756  -9.326  0.00  0.00    +0.000 A 
ATOM     33  C   UNL     1       8.691   5.075  -9.440  0.00  0.00    +0.002 A 
ATOM     34  C   UNL     1       7.576   5.524  -8.759  0.00  0.00    +0.025 A 
ENDBRANCH  28  29
BRANCH  28  36
ATOM     35  C   UNL     1       6.262   5.578  -4.931  0.00  0.00    +0.026 C 
ATOM     36  C   UNL     1       5.854   6.173  -6.280  0.00  0.00    +0.128 C 
ENDBRANCH  28  36
ENDBRANCH  25  28
ENDBRANCH   1  25
TORSDOF 7
