REMARK  Name = ZINC16707273
REMARK  14 active torsions:
REMARK  status: ('A' for Active; 'I' for Inactive)
REMARK    1  A    between atoms: C_1  and  C_2
REMARK    2  A    between atoms: C_2  and  C_3
REMARK    3  A    between atoms: C_3  and  C_4
REMARK    4  A    between atoms: C_4  and  N_5
REMARK    5  A    between atoms: C_6  and  N_35
REMARK    6  A    between atoms: C_7  and  N_14
REMARK    7  A    between atoms: N_14  and  C_15
REMARK    8  A    between atoms: C_15  and  C_16
REMARK    9  A    between atoms: C_16  and  C_17
REMARK   10  A    between atoms: C_18  and  C_20
REMARK   11  A    between atoms: C_20  and  C_21
REMARK   12  A    between atoms: C_21  and  C_22
REMARK   13  A    between atoms: C_23  and  C_34
REMARK   14  A    between atoms: C_27  and  C_33
REMARK                            x       y       z     vdW  Elec       q    Type
REMARK                         _______ _______ _______ _____ _____    ______ ____
ROOT
ATOM      1  N   UNL     1       4.784   0.198  -2.562  0.00  0.00    -0.264 N 
ATOM      2  C   UNL     1       4.152   0.300  -1.373  0.00  0.00    +0.220 C 
ATOM      3  O   UNL     1       4.645  -0.192  -0.380  0.00  0.00    -0.275 OA
ENDROOT
BRANCH   1   6
ATOM      4  N   UNL     1       8.370  -0.429  -2.068  0.00  0.00    -0.280 N 
ATOM      5  C   UNL     1       7.137   0.173  -1.980  0.00  0.00    +0.127 A 
ATOM      6  C   UNL     1       6.061  -0.396  -2.632  0.00  0.00    +0.140 A 
ATOM      7  C   UNL     1       6.260  -1.582  -3.364  0.00  0.00    +0.277 A 
ATOM      8  O   UNL     1       5.327  -2.109  -3.945  0.00  0.00    -0.266 OA
ATOM      9  N   UNL     1       7.491  -2.128  -3.422  0.00  0.00    -0.273 N 
ATOM     10  H   UNL     1       7.635  -2.966  -3.948  0.00  0.00    +0.173 HD
ATOM     11  C   UNL     1       8.527  -1.560  -2.780  0.00  0.00    +0.331 A 
ATOM     12  O   UNL     1       9.626  -2.077  -2.846  0.00  0.00    -0.246 OA
BRANCH   5  13
ATOM     13  N   UNL     1       6.977   1.328  -1.253  0.00  0.00    -0.343 N 
ATOM     14  H   UNL     1       6.135   1.808  -1.284  0.00  0.00    +0.144 HD
ATOM     15  H   UNL     1       7.707   1.663  -0.709  0.00  0.00    +0.144 HD
ENDBRANCH   5  13
BRANCH   4  16
ATOM     16  C   UNL     1       9.520   0.164  -1.381  0.00  0.00    +0.128 C 
BRANCH  16  17
ATOM     17  C   UNL     1       9.622  -0.412   0.033  0.00  0.00    +0.021 C 
BRANCH  17  19
ATOM     18  C   UNL     1      10.925  -0.369   2.164  0.00  0.00    +0.004 C 
ATOM     19  C   UNL     1      10.823   0.207   0.750  0.00  0.00    -0.002 C 
ENDBRANCH  17  19
ENDBRANCH  16  17
ENDBRANCH   4  16
ENDBRANCH   1   6
BRANCH   1  20
ATOM     20  C   UNL     1       4.142   0.703  -3.778  0.00  0.00    +0.113 C 
BRANCH  20  21
ATOM     21  C   UNL     1       4.579   2.149  -4.022  0.00  0.00    +0.016 C 
ATOM     22  C   UNL     1       3.909   2.677  -5.292  0.00  0.00    +0.005 C 
ENDBRANCH  20  21
ENDBRANCH   1  20
BRANCH   2  23
ATOM     23  C   UNL     1       2.834   1.026  -1.281  0.00  0.00    +0.101 C 
BRANCH  23  24
ATOM     24  C   UNL     1       2.337   0.997   0.166  0.00  0.00    +0.052 C 
BRANCH  24  25
ATOM     25  C   UNL     1       1.019   1.723   0.258  0.00  0.00    +0.041 A 
ATOM     26  C   UNL     1      -0.144   1.046   0.085  0.00  0.00    -0.030 A 
ATOM     27  C   UNL     1      -1.401   1.795   0.177  0.00  0.00    +0.021 A 
ATOM     28  C   UNL     1      -2.635   1.157   0.015  0.00  0.00    +0.012 A 
ATOM     29  C   UNL     1      -3.790   1.880   0.113  0.00  0.00    +0.004 A 
ATOM     30  C   UNL     1      -3.748   3.241   0.378  0.00  0.00    -0.047 A 
ATOM     31  C   UNL     1      -2.542   3.888   0.547  0.00  0.00    +0.050 A 
ATOM     32  C   UNL     1      -1.355   3.173   0.452  0.00  0.00    +0.140 A 
ATOM     33  O   UNL     1      -0.163   3.786   0.615  0.00  0.00    -0.422 OA
ATOM     34  C   UNL     1       0.992   3.109   0.526  0.00  0.00    +0.341 A 
ATOM     35  O   UNL     1       2.043   3.705   0.679  0.00  0.00    -0.245 OA
ATOM     36  C   UNL     1      -5.033   4.021   0.481  0.00  0.00    +0.044 C 
ATOM     37  C   UNL     1      -0.144  -0.434  -0.202  0.00  0.00    +0.045 C 
ENDBRANCH  24  25
ENDBRANCH  23  24
ENDBRANCH   2  23
TORSDOF 10
