REMARK  Name = ZINC05931328
REMARK  9 active torsions:
REMARK  status: ('A' for Active; 'I' for Inactive)
REMARK    1  A    between atoms: C_1  and  C_2
REMARK    2  A    between atoms: C_2  and  C_3
REMARK    3  A    between atoms: C_3  and  C_5
REMARK    4  A    between atoms: C_3  and  S_6
REMARK    5  A    between atoms: S_6  and  C_7
REMARK    6  A    between atoms: C_14  and  C_24
REMARK    7  A    between atoms: C_27  and  N_30
REMARK    8  A    between atoms: N_30  and  C_31
REMARK    9  A    between atoms: N_30  and  C_32
REMARK                            x       y       z     vdW  Elec       q    Type
REMARK                         _______ _______ _______ _____ _____    ______ ____
ROOT
ATOM      1  C   UNL     1       3.154  -0.528   2.698  0.00  0.00    +0.172 A 
ATOM      2  N   UNL     1       4.469  -0.293   2.969  0.00  0.00    -0.322 N 
ATOM      3  C   UNL     1       5.005  -0.691   4.166  0.00  0.00    +0.111 A 
ATOM      4  C   UNL     1       4.212  -1.318   5.076  0.00  0.00    +0.069 A 
ATOM      5  C   UNL     1       2.856  -1.547   4.754  0.00  0.00    +0.280 A 
ATOM      6  N   UNL     1       2.376  -1.132   3.572  0.00  0.00    -0.185 NA
ATOM      7  O   UNL     1       2.123  -2.115   5.550  0.00  0.00    -0.265 OA
ATOM      8  C   UNL     1       4.758  -1.758   6.402  0.00  0.00    +0.092 C 
ATOM      9  C   UNL     1       6.264  -1.808   6.385  0.00  0.00    +0.024 C 
ATOM     10  C   UNL     1       6.912  -2.536   7.399  0.00  0.00    +0.162 C 
ATOM     11  C   UNL     1       8.413  -2.613   7.467  0.00  0.00    +0.080 C 
ATOM     12  C   UNL     1       9.005  -1.346   6.840  0.00  0.00    +0.014 C 
ATOM     13  C   UNL     1       8.478  -1.222   5.409  0.00  0.00    +0.051 C 
ATOM     14  C   UNL     1       6.970  -1.171   5.428  0.00  0.00    +0.017 C 
ATOM     15  N   UNL     1       6.332  -0.463   4.445  0.00  0.00    -0.304 N 
ATOM     16  O   UNL     1       6.247  -3.114   8.236  0.00  0.00    -0.292 OA
ATOM     17  H   UNL     1       6.821   0.206   3.941  0.00  0.00    +0.153 HD
ATOM     18  H   UNL     1       5.026   0.155   2.314  0.00  0.00    +0.169 HD
ENDROOT
BRANCH   8  19
ATOM     19  C   UNL     1       4.309  -0.790   7.466  0.00  0.00    -0.035 A 
ATOM     20  C   UNL     1       4.658   0.545   7.375  0.00  0.00    +0.006 A 
ATOM     21  C   UNL     1       4.249   1.435   8.348  0.00  0.00    +0.023 A 
ATOM     22  C   UNL     1       3.485   0.988   9.419  0.00  0.00    +0.029 A 
ATOM     23  C   UNL     1       3.137  -0.353   9.508  0.00  0.00    +0.023 A 
ATOM     24  C   UNL     1       3.545  -1.237   8.528  0.00  0.00    +0.006 A 
BRANCH  22  25
ATOM     25  N   UNL     1       3.070   1.886  10.405  0.00  0.00    -0.336 N 
ATOM     26  C   UNL     1       3.439   3.300  10.311  0.00  0.00    +0.129 C 
ATOM     27  C   UNL     1       2.265   1.413  11.534  0.00  0.00    +0.129 C 
ENDBRANCH  22  25
ENDBRANCH   8  19
BRANCH   1  28
ATOM     28  S   UNL     1       2.482  -0.007   1.155  0.00  0.00    -0.085 S 
BRANCH  28  29
ATOM     29  C   UNL     1       0.742  -0.511   1.242  0.00  0.00    +0.051 C 
ATOM     30  C   UNL     1       0.655  -2.037   1.299  0.00  0.00    +0.019 C 
BRANCH  29  32
ATOM     31  C   UNL     1      -0.019   1.526   0.010  0.00  0.00    +0.005 C 
ATOM     32  C   UNL     1       0.002  -0.004   0.002  0.00  0.00    +0.011 C 
ENDBRANCH  29  32
ENDBRANCH  28  29
ENDBRANCH   1  28
TORSDOF 5
