REMARK  Name = ZINC11720014
REMARK  8 active torsions:
REMARK  status: ('A' for Active; 'I' for Inactive)
REMARK    1  A    between atoms: C_1  and  C_2
REMARK    2  A    between atoms: C_5  and  N_9
REMARK    3  A    between atoms: C_10  and  C_12
REMARK    4  A    between atoms: C_12  and  C_14
REMARK    5  A    between atoms: C_12  and  N_52
REMARK    6  A    between atoms: C_17  and  N_20
REMARK    7  A    between atoms: N_20  and  S_21
REMARK    8  A    between atoms: S_21  and  C_24
REMARK                            x       y       z     vdW  Elec       q    Type
REMARK                         _______ _______ _______ _____ _____    ______ ____
ROOT
ATOM      1  C   UNL     1      -1.644   6.805   4.389  0.00  0.00    -0.076 C 
ATOM      2  C   UNL     1      -2.656   6.134   3.458  0.00  0.00    +0.002 C 
ATOM      3  C   UNL     1      -1.913   5.231   2.470  0.00  0.00    +0.073 C 
ATOM      4  C   UNL     1      -1.092   4.199   3.249  0.00  0.00    +0.002 C 
ATOM      5  C   UNL     1      -0.126   4.927   4.187  0.00  0.00    -0.076 C 
ATOM      6  N   UNL     1      -0.905   5.760   5.128  0.00  0.00    +0.387 N 
ATOM      7  H   UNL     1      -1.578   5.163   5.622  0.00  0.00    -0.081 HD
ENDROOT
BRANCH   6   8
ATOM      8  C   UNL     1      -0.002   6.384   6.117  0.00  0.00    +0.016 C 
ATOM      9  C   UNL     1       1.064   7.227   5.414  0.00  0.00    -0.004 C 
BRANCH   8  11
ATOM     10  N   UNL     1       1.527   5.622   7.906  0.00  0.00    -0.286 N 
ATOM     11  C   UNL     1       0.666   5.298   6.920  0.00  0.00    +0.203 C 
ATOM     12  O   UNL     1       0.429   4.133   6.681  0.00  0.00    -0.277 OA
ATOM     13  H   UNL     1       1.767   6.550   8.055  0.00  0.00    +0.155 HD
BRANCH  10  18
ATOM     14  C   UNL     1       3.748   1.555  11.180  0.00  0.00    +0.044 C 
ATOM     15  C   UNL     1       3.158   2.635  10.311  0.00  0.00    -0.049 A 
ATOM     16  C   UNL     1       2.906   2.385   8.974  0.00  0.00    +0.005 A 
ATOM     17  C   UNL     1       2.365   3.373   8.175  0.00  0.00    +0.024 A 
ATOM     18  C   UNL     1       2.075   4.619   8.713  0.00  0.00    +0.047 A 
ATOM     19  C   UNL     1       2.335   4.870  10.055  0.00  0.00    +0.039 A 
ATOM     20  C   UNL     1       2.871   3.875  10.851  0.00  0.00    +0.020 A 
ATOM     21 BR   UNL     1       1.949   6.568  10.792  0.00  0.00    -0.048 Br
ENDBRANCH  10  18
ENDBRANCH   8  11
ENDBRANCH   6   8
BRANCH   3  22
ATOM     22  N   UNL     1      -2.880   4.540   1.614  0.00  0.00    -0.187 NA
ATOM     23  H   UNL     1      -3.738   4.266   1.974  0.00  0.00    +0.148 HD
BRANCH  22  24
ATOM     24  S   UNL     1      -2.510   4.228   0.030  0.00  0.00    +0.065 S 
ATOM     25  O   UNL     1      -2.024   5.444  -0.521  0.00  0.00    -0.153 OA
ATOM     26  O   UNL     1      -3.623   3.535  -0.518  0.00  0.00    -0.153 OA
BRANCH  24  27
ATOM     27  C   UNL     1      -1.159   3.096   0.024  0.00  0.00    +0.142 A 
ATOM     28  C   UNL     1      -1.181   1.741   0.016  0.00  0.00    +0.036 A 
ATOM     29  C   UNL     1       0.017   1.052   0.016  0.00  0.00    +0.010 A 
ATOM     30  C   UNL     1       1.178   1.751   0.013  0.00  0.00    +0.047 A 
ATOM     31  S   UNL     1       0.593   3.438   0.018  0.00  0.00    -0.077 S 
ENDBRANCH  24  27
ENDBRANCH  22  24
ENDBRANCH   3  22
TORSDOF 6
