REMARK  Name = ZINC05926193
REMARK  9 active torsions:
REMARK  status: ('A' for Active; 'I' for Inactive)
REMARK    1  A    between atoms: C_1  and  C_2
REMARK    2  A    between atoms: C_2  and  N_3
REMARK    3  A    between atoms: N_3  and  C_4
REMARK    4  A    between atoms: N_3  and  C_6
REMARK    5  A    between atoms: C_4  and  C_5
REMARK    6  A    between atoms: C_9  and  C_12
REMARK    7  A    between atoms: C_19  and  S_30
REMARK    8  A    between atoms: S_30  and  C_31
REMARK    9  A    between atoms: C_31  and  C_32
REMARK                            x       y       z     vdW  Elec       q    Type
REMARK                         _______ _______ _______ _____ _____    ______ ____
ROOT
ATOM      1  C   UNL     1      -2.530   1.168   0.040  0.00  0.00    +0.092 C 
ATOM      2  C   UNL     1      -1.228   1.913   0.018  0.00  0.00    +0.069 A 
ATOM      3  C   UNL     1      -0.015   1.217   0.009  0.00  0.00    +0.258 A 
ATOM      4  O   UNL     1       0.002  -0.004   0.002  0.00  0.00    -0.267 OA
ATOM      5  N   UNL     1       1.138   1.920   0.002  0.00  0.00    -0.302 N 
ATOM      6  H   UNL     1       2.103   1.393  -0.011  0.00  0.00    +0.171 HD
ATOM      7  C   UNL     1       1.107   3.282   0.009  0.00  0.00    +0.171 A 
ATOM      8  N   UNL     1      -0.033   3.942   0.022  0.00  0.00    -0.208 NA
ATOM      9  C   UNL     1      -1.204   3.297   0.028  0.00  0.00    +0.135 A 
ATOM     10  N   UNL     1      -2.392   4.002   0.036  0.00  0.00    -0.302 N 
ATOM     11  C   UNL     1      -3.561   3.402  -0.347  0.00  0.00    +0.017 C 
ATOM     12  C   UNL     1      -3.676   2.058  -0.370  0.00  0.00    +0.024 C 
ATOM     13  C   UNL     1      -4.871   1.441  -0.780  0.00  0.00    +0.162 C 
ATOM     14  O   UNL     1      -4.945   0.228  -0.783  0.00  0.00    -0.292 OA
ATOM     15  C   UNL     1      -6.060   2.252  -1.217  0.00  0.00    +0.080 C 
ATOM     16  C   UNL     1      -5.570   3.583  -1.796  0.00  0.00    +0.014 C 
ATOM     17  C   UNL     1      -4.719   4.288  -0.737  0.00  0.00    +0.051 C 
ATOM     18  H   UNL     1      -2.404   5.055   0.352  0.00  0.00    +0.153 HD
ENDROOT
BRANCH   1  22
ATOM     19  C   UNL     1      -3.246  -0.310   3.985  0.00  0.00    +0.030 A 
ATOM     20  C   UNL     1      -3.107  -1.196   2.925  0.00  0.00    +0.023 A 
ATOM     21  C   UNL     1      -2.876  -0.715   1.651  0.00  0.00    +0.006 A 
ATOM     22  C   UNL     1      -2.782   0.647   1.431  0.00  0.00    -0.035 A 
ATOM     23  C   UNL     1      -2.914   1.532   2.486  0.00  0.00    +0.006 A 
ATOM     24  C   UNL     1      -3.151   1.058   3.761  0.00  0.00    +0.023 A 
BRANCH  19  25
ATOM     25  N   UNL     1      -3.480  -0.793   5.275  0.00  0.00    -0.330 N 
BRANCH  25  27
ATOM     26  C   UNL     1      -5.098   0.529   6.546  0.00  0.00    +0.024 C 
ATOM     27  C   UNL     1      -3.626   0.143   6.393  0.00  0.00    +0.102 C 
ENDBRANCH  25  27
BRANCH  25  28
ATOM     28  C   UNL     1      -3.579  -2.235   5.510  0.00  0.00    +0.102 C 
ATOM     29  C   UNL     1      -2.192  -2.797   5.827  0.00  0.00    +0.024 C 
ENDBRANCH  25  28
ENDBRANCH  19  25
ENDBRANCH   1  22
BRANCH   7  30
ATOM     30  S   UNL     1       2.624   4.179   0.003  0.00  0.00    -0.088 S 
BRANCH  30  31
ATOM     31  C   UNL     1       1.987   5.873   0.017  0.00  0.00    +0.074 C 
ATOM     32  C   UNL     1       3.158   6.858   0.014  0.00  0.00    +0.016 C 
ENDBRANCH  30  31
ENDBRANCH   7  30
TORSDOF 6
