REMARK  Name = ZINC12595191
REMARK  7 active torsions:
REMARK  status: ('A' for Active; 'I' for Inactive)
REMARK    1  A    between atoms: C_4  and  O_35
REMARK    2  A    between atoms: C_5  and  C_7
REMARK    3  A    between atoms: C_7  and  O_9
REMARK    4  A    between atoms: O_9  and  C_10
REMARK    5  A    between atoms: C_10  and  C_11
REMARK    6  A    between atoms: C_14  and  C_30
REMARK    7  A    between atoms: C_22  and  C_23
REMARK                            x       y       z     vdW  Elec       q    Type
REMARK                         _______ _______ _______ _____ _____    ______ ____
ROOT
ATOM      1  C   UNL     1      -0.718   1.572   1.248  0.00  0.00    +0.273 C 
ATOM      2  O   UNL     1      -1.715   2.256   1.150  0.00  0.00    -0.270 OA
ATOM      3  N   UNL     1      -0.242   1.246   2.466  0.00  0.00    -0.179 N 
ATOM      4  C   UNL     1      -0.823   1.647   3.767  0.00  0.00    +0.176 C 
ATOM      5  C   UNL     1       0.387   1.499   4.706  0.00  0.00    +0.069 C 
ATOM      6  C   UNL     1      -0.001   0.839   6.031  0.00  0.00    +0.012 C 
ATOM      7  C   UNL     1       1.277   0.567   6.821  0.00  0.00    +0.005 C 
ATOM      8  C   UNL     1       2.210  -0.411   6.134  0.00  0.00    +0.037 C 
ATOM      9  C   UNL     1       2.187  -0.335   4.638  0.00  0.00    -0.021 C 
ATOM     10  C   UNL     1       3.074  -1.062   3.918  0.00  0.00    +0.051 C 
ATOM     11  C   UNL     1       1.252   0.485   3.967  0.00  0.00    +0.068 C 
ATOM     12  N   UNL     1       0.888   0.463   2.728  0.00  0.00    -0.181 NA
ENDROOT
BRANCH  10  13
ATOM     13  C   UNL     1       4.046  -1.914   4.602  0.00  0.00    +0.128 A 
ATOM     14  C   UNL     1       4.992  -2.696   4.000  0.00  0.00    +0.049 A 
ATOM     15  C   UNL     1       5.701  -3.337   5.031  0.00  0.00    +0.042 A 
ATOM     16  C   UNL     1       5.165  -2.925   6.199  0.00  0.00    +0.195 A 
ATOM     17  O   UNL     1       4.170  -2.062   5.937  0.00  0.00    -0.464 OA
ENDBRANCH  10  13
BRANCH   4  18
ATOM     18  C   UNL     1      -1.305   3.074   3.727  0.00  0.00    +0.128 A 
ATOM     19  C   UNL     1      -2.422   3.543   4.311  0.00  0.00    +0.046 A 
ATOM     20  C   UNL     1      -2.486   4.926   4.020  0.00  0.00    +0.041 A 
ATOM     21  C   UNL     1      -1.404   5.218   3.276  0.00  0.00    +0.195 A 
ATOM     22  O   UNL     1      -0.689   4.094   3.107  0.00  0.00    -0.466 OA
ENDBRANCH   4  18
BRANCH   1  23
ATOM     23  C   UNL     1      -0.013   1.086   0.008  0.00  0.00    +0.330 C 
BRANCH  23  24
ATOM     24  O   UNL     1      -0.715   1.567  -1.168  0.00  0.00    -0.452 OA
BRANCH  24  25
ATOM     25  C   UNL     1      -0.209   1.218  -2.368  0.00  0.00    +0.343 C 
ATOM     26  O   UNL     1       0.791   0.531  -2.429  0.00  0.00    -0.245 OA
BRANCH  25  31
ATOM     27  C   UNL     1      -2.634   2.879  -4.700  0.00  0.00    +0.001 A 
ATOM     28  C   UNL     1      -2.114   2.521  -5.934  0.00  0.00    +0.004 A 
ATOM     29  C   UNL     1      -0.978   1.741  -6.014  0.00  0.00    +0.046 A 
ATOM     30  C   UNL     1      -0.347   1.310  -4.856  0.00  0.00    +0.131 A 
ATOM     31  C   UNL     1      -0.870   1.670  -3.606  0.00  0.00    +0.100 A 
ATOM     32  C   UNL     1      -2.024   2.456  -3.540  0.00  0.00    +0.018 A 
BRANCH  30  33
ATOM     33  O   UNL     1       0.769   0.544  -4.932  0.00  0.00    -0.506 OA
ATOM     34  H   UNL     1       0.593  -0.407  -4.953  0.00  0.00    +0.292 HD
ENDBRANCH  30  33
ENDBRANCH  25  31
ENDBRANCH  24  25
ENDBRANCH  23  24
ENDBRANCH   1  23
TORSDOF 7
