REMARK  Name = ZINC36586819
REMARK  14 active torsions:
REMARK  status: ('A' for Active; 'I' for Inactive)
REMARK    1  A    between atoms: C_1  and  C_2
REMARK    2  A    between atoms: C_2  and  C_3
REMARK    3  A    between atoms: C_3  and  C_4
REMARK    4  A    between atoms: C_4  and  N_5
REMARK    5  A    between atoms: C_6  and  C_8
REMARK    6  A    between atoms: C_8  and  C_10
REMARK    7  A    between atoms: C_8  and  N_17
REMARK    8  A    between atoms: N_17  and  C_28
REMARK    9  A    between atoms: C_18  and  C_20
REMARK   10  A    between atoms: C_21  and  O_27
REMARK   11  A    between atoms: C_25  and  O_26
REMARK   12  A    between atoms: C_28  and  C_29
REMARK   13  A    between atoms: C_28  and  C_30
REMARK   14  A    between atoms: C_28  and  C_31
REMARK                            x       y       z     vdW  Elec       q    Type
REMARK                         _______ _______ _______ _____ _____    ______ ____
ROOT
ATOM      1  N   UNL     1       2.425  -5.536   4.069  0.00  0.00    -0.277 N 
ATOM      2  C   UNL     1       1.265  -4.865   4.210  0.00  0.00    +0.255 C 
ATOM      3  O   UNL     1       1.266  -3.736   4.663  0.00  0.00    -0.270 OA
ENDROOT
BRANCH   2   4
ATOM      4  C   UNL     1      -0.004  -5.499   3.816  0.00  0.00    +0.119 A 
ATOM      5  C   UNL     1      -0.782  -6.175   4.767  0.00  0.00    +0.133 A 
ATOM      6  C   UNL     1      -1.975  -6.767   4.385  0.00  0.00    +0.046 A 
ATOM      7  C   UNL     1      -2.399  -6.693   3.071  0.00  0.00    +0.007 A 
ATOM      8  C   UNL     1      -1.640  -6.030   2.125  0.00  0.00    +0.046 A 
ATOM      9  C   UNL     1      -0.447  -5.426   2.487  0.00  0.00    +0.133 A 
BRANCH   9  10
ATOM     10  O   UNL     1       0.293  -4.771   1.558  0.00  0.00    -0.506 OA
ATOM     11  H   UNL     1       0.939  -5.329   1.103  0.00  0.00    +0.292 HD
ENDBRANCH   9  10
BRANCH   5  12
ATOM     12  O   UNL     1      -0.368  -6.248   6.057  0.00  0.00    -0.506 OA
ATOM     13  H   UNL     1      -0.677  -5.519   6.612  0.00  0.00    +0.292 HD
ENDBRANCH   5  12
ENDBRANCH   2   4
BRANCH   1  14
ATOM     14  C   UNL     1       2.414  -6.938   3.646  0.00  0.00    +0.030 C 
ATOM     15  C   UNL     1       3.832  -7.507   3.727  0.00  0.00    +0.031 C 
ATOM     16  C   UNL     1       1.489  -7.741   4.563  0.00  0.00    +0.031 C 
ATOM     17  C   UNL     1       1.909  -7.032   2.204  0.00  0.00    +0.031 C 
ENDBRANCH   1  14
BRANCH   1  18
ATOM     18  C   UNL     1       3.698  -4.863   4.340  0.00  0.00    +0.193 C 
BRANCH  18  19
ATOM     19  C   UNL     1       3.790  -4.533   5.808  0.00  0.00    -0.018 A 
ATOM     20  C   UNL     1       2.665  -4.621   6.607  0.00  0.00    +0.007 A 
ATOM     21  C   UNL     1       2.748  -4.319   7.953  0.00  0.00    +0.020 A 
ATOM     22  C   UNL     1       3.958  -3.929   8.501  0.00  0.00    +0.041 A 
ATOM     23  C   UNL     1       5.083  -3.841   7.700  0.00  0.00    +0.020 A 
ATOM     24  C   UNL     1       5.000  -4.149   6.355  0.00  0.00    +0.007 A 
ATOM     25 CL   UNL     1       4.063  -3.548  10.191  0.00  0.00    -0.084 Cl
ENDBRANCH  18  19
BRANCH  18  27
ATOM     26  N   UNL     1       4.851  -2.788   3.646  0.00  0.00    -0.313 N 
ATOM     27  C   UNL     1       3.776  -3.592   3.534  0.00  0.00    +0.238 C 
ATOM     28  O   UNL     1       2.871  -3.293   2.784  0.00  0.00    -0.273 OA
ATOM     29  H   UNL     1       5.575  -3.026   4.246  0.00  0.00    +0.149 HD
BRANCH  26  30
ATOM     30  C   UNL     1       4.927  -1.552   2.863  0.00  0.00    +0.104 C 
BRANCH  30  31
ATOM     31  C   UNL     1       6.239  -0.830   3.174  0.00  0.00    +0.018 C 
BRANCH  31  33
ATOM     32  C   UNL     1       7.630   1.183   2.667  0.00  0.00    +0.004 C 
ATOM     33  C   UNL     1       6.318   0.461   2.356  0.00  0.00    -0.002 C 
ENDBRANCH  31  33
ENDBRANCH  30  31
ENDBRANCH  26  30
ENDBRANCH  18  27
ENDBRANCH   1  18
TORSDOF 10
