REMARK  Name = ZINC48797179
REMARK  1 active torsions:
REMARK  status: ('A' for Active; 'I' for Inactive)
REMARK    1  A    between atoms: C_8  and  C_9
REMARK                            x       y       z     vdW  Elec       q    Type
REMARK                         _______ _______ _______ _____ _____    ______ ____
ROOT
ATOM      1  C   UNL     1      -0.017   1.384  -0.008  0.00  0.00    +0.031 A 
ATOM      2  C   UNL     1       1.209   2.083  -0.018  0.00  0.00    +0.037 A 
ATOM      3  C   UNL     1       2.412   1.398  -0.017  0.00  0.00    +0.030 A 
ATOM      4  N   UNL     1       2.432   0.050  -0.016  0.00  0.00    -0.325 N 
ATOM      5  H   UNL     1       3.287  -0.408  -0.022  0.00  0.00    +0.169 HD
ATOM      6  C   UNL     1       1.303  -0.678  -0.007  0.00  0.00    +0.261 A 
ATOM      7  O   UNL     1       1.361  -1.894  -0.004  0.00  0.00    -0.267 OA
ATOM      8  C   UNL     1       0.002  -0.004  -0.002  0.00  0.00    +0.102 A 
ATOM      9  C   UNL     1       3.731   2.128  -0.007  0.00  0.00    +0.054 C 
ATOM     10  C   UNL     1       3.588   3.541  -0.562  0.00  0.00    +0.014 C 
ATOM     11  C   UNL     1       2.494   4.283   0.217  0.00  0.00    +0.080 C 
ATOM     12  C   UNL     1       1.190   3.556  -0.037  0.00  0.00    +0.165 C 
ATOM     13  O   UNL     1       0.164   4.166  -0.249  0.00  0.00    -0.292 OA
ENDROOT
BRANCH   8  14
ATOM     14  C   UNL     1      -1.250  -0.777   0.011  0.00  0.00    +0.255 C 
ATOM     15  O   UNL     1      -2.317  -0.204   0.121  0.00  0.00    -0.270 OA
ATOM     16  N   UNL     1      -1.214  -2.120  -0.098  0.00  0.00    -0.259 N 
ATOM     17  C   UNL     1      -2.397  -2.841  -0.194  0.00  0.00    +0.188 A 
ATOM     18  N   UNL     1      -3.655  -2.421  -0.203  0.00  0.00    -0.126 NA
ATOM     19  N   UNL     1      -4.624  -3.222  -0.298  0.00  0.00    -0.148 NA
ATOM     20  C   UNL     1      -4.450  -4.525  -0.393  0.00  0.00    +0.183 A 
ATOM     21  S   UNL     1      -2.662  -4.606  -0.347  0.00  0.00    -0.039 S 
ATOM     22  H   UNL     1      -0.361  -2.583  -0.110  0.00  0.00    +0.157 HD
ENDBRANCH   8  14
TORSDOF 1
