REMARK  Name = ZINC33766834
REMARK  17 active torsions:
REMARK  status: ('A' for Active; 'I' for Inactive)
REMARK    1  A    between atoms: C_1  and  C_2
REMARK    2  A    between atoms: C_2  and  C_42
REMARK    3  A    between atoms: C_7  and  C_11
REMARK    4  A    between atoms: C_11  and  O_12
REMARK    5  A    between atoms: O_12  and  C_13
REMARK    6  A    between atoms: C_13  and  C_14
REMARK    7  A    between atoms: C_14  and  C_16
REMARK    8  A    between atoms: C_14  and  O_41
REMARK    9  A    between atoms: C_16  and  N_17
REMARK   10  A    between atoms: N_17  and  C_18
REMARK   11  A    between atoms: C_18  and  C_19
REMARK   12  A    between atoms: C_19  and  C_21
REMARK   13  A    between atoms: C_19  and  C_31
REMARK   14  A    between atoms: C_25  and  O_29
REMARK   15  A    between atoms: C_26  and  O_27
REMARK   16  A    between atoms: O_27  and  C_28
REMARK   17  A    between atoms: O_29  and  C_30
REMARK                            x       y       z     vdW  Elec       q    Type
REMARK                         _______ _______ _______ _____ _____    ______ ____
ROOT
ATOM      1  C   UNL     1       3.504   7.806   0.503  0.00  0.00    +0.038 C 
ENDROOT
BRANCH   1   2
ATOM      2  C   UNL     1       4.850   8.483   0.496  0.00  0.00    -0.017 A 
ATOM      3  C   UNL     1       5.845   8.290   1.376  0.00  0.00    +0.087 A 
ATOM      4  N   UNL     1       6.916   9.076   1.048  0.00  0.00    -0.360 N 
ATOM      5  H   UNL     1       7.830   9.043   1.659  0.00  0.00    +0.165 HD
ATOM      6  C   UNL     1       6.625   9.821  -0.073  0.00  0.00    +0.047 A 
ATOM      7  C   UNL     1       5.318   9.482  -0.468  0.00  0.00    +0.003 A 
ATOM      8  C   UNL     1       4.750  10.089  -1.589  0.00  0.00    +0.010 A 
ATOM      9  C   UNL     1       5.468  11.011  -2.299  0.00  0.00    +0.001 A 
ATOM     10  C   UNL     1       6.757  11.349  -1.912  0.00  0.00    +0.002 A 
ATOM     11  C   UNL     1       7.337  10.762  -0.809  0.00  0.00    +0.026 A 
ENDBRANCH   1   2
BRANCH   1  12
ATOM     12  C   UNL     1       2.794   8.111   1.796  0.00  0.00    +0.004 A 
ATOM     13  C   UNL     1       3.359   7.733   3.001  0.00  0.00    +0.008 A 
ATOM     14  C   UNL     1       2.713   8.017   4.189  0.00  0.00    +0.004 A 
ATOM     15  C   UNL     1       1.494   8.670   4.179  0.00  0.00    +0.049 A 
ATOM     16  C   UNL     1       0.920   9.046   2.976  0.00  0.00    +0.162 A 
ATOM     17  C   UNL     1       1.573   8.765   1.779  0.00  0.00    +0.165 A 
BRANCH  17  18
ATOM     18  O   UNL     1       1.014   9.133   0.595  0.00  0.00    -0.491 OA
ATOM     19  C   UNL     1       0.147   8.187  -0.034  0.00  0.00    +0.277 C 
ENDBRANCH  17  18
BRANCH  16  20
ATOM     20  O   UNL     1      -0.278   9.689   2.964  0.00  0.00    -0.491 OA
ATOM     21  C   UNL     1      -0.890   9.944   4.230  0.00  0.00    +0.277 C 
ENDBRANCH  16  20
ENDBRANCH   1  12
BRANCH   1  22
ATOM     22  C   UNL     1       3.693   6.293   0.370  0.00  0.00    -0.069 C 
BRANCH  22  23
ATOM     23  N   UNL     1       2.381   5.644   0.256  0.00  0.00    +0.381 N 
ATOM     24  H   UNL     1       1.866   6.042  -0.631  0.00  0.00    -0.086 HD
ATOM     25  H   UNL     1       1.793   5.876   1.156  0.00  0.00    -0.086 HD
BRANCH  23  26
ATOM     26  C   UNL     1       2.523   4.187   0.126  0.00  0.00    -0.049 C 
BRANCH  26  27
ATOM     27  C   UNL     1       1.139   3.547   0.010  0.00  0.00    +0.123 C 
BRANCH  27  28
ATOM     28  O   UNL     1       0.516   3.975  -1.203  0.00  0.00    -0.391 OA
ATOM     29  H   UNL     1       0.330   5.045  -1.377  0.00  0.00    +0.210 HD
ENDBRANCH  27  28
BRANCH  27  30
ATOM     30  C   UNL     1       1.280   2.024   0.001  0.00  0.00    +0.189 C 
BRANCH  30  31
ATOM     31  O   UNL     1      -0.017   1.425   0.010  0.00  0.00    -0.373 OA
BRANCH  31  32
ATOM     32  C   UNL     1       0.002  -0.004   0.002  0.00  0.00    +0.190 C 
BRANCH  32  38
ATOM     33  C   UNL     1      -2.991  -3.862  -1.240  0.00  0.00    +0.012 C 
ATOM     34  C   UNL     1      -2.829  -2.362  -0.985  0.00  0.00    -0.025 C 
ATOM     35  C   UNL     1      -3.781  -1.805   0.092  0.00  0.00    -0.000 C 
ATOM     36  C   UNL     1      -3.841  -0.272   0.029  0.00  0.00    +0.031 C 
ATOM     37  C   UNL     1      -2.440   0.291   0.027  0.00  0.00    -0.025 C 
ATOM     38  C   UNL     1      -1.412  -0.526   0.013  0.00  0.00    -0.045 C 
ATOM     39  C   UNL     1      -1.703  -2.016   0.001  0.00  0.00    +0.023 C 
ATOM     40  C   UNL     1      -2.768  -2.320   1.129  0.00  0.00    +0.013 C 
ATOM     41  C   UNL     1      -2.798  -1.536  -2.272  0.00  0.00    +0.012 C 
ENDBRANCH  32  38
ENDBRANCH  31  32
ENDBRANCH  30  31
ENDBRANCH  27  30
ENDBRANCH  26  27
ENDBRANCH  23  26
ENDBRANCH  22  23
ENDBRANCH   1  22
TORSDOF 13
