REMARK  Name = ZINC02720652
REMARK  5 active torsions:
REMARK  status: ('A' for Active; 'I' for Inactive)
REMARK    1  A    between atoms: C_4  and  N_7
REMARK    2  A    between atoms: C_21  and  S_22
REMARK    3  A    between atoms: S_22  and  C_23
REMARK    4  A    between atoms: C_23  and  C_24
REMARK    5  A    between atoms: N_26  and  C_27
REMARK                            x       y       z     vdW  Elec       q    Type
REMARK                         _______ _______ _______ _____ _____    ______ ____
ROOT
ATOM      1  N   UNL     1       3.535   3.390  -0.162  0.00  0.00    -0.254 N 
ATOM      2  C   UNL     1       2.636   2.383  -0.178  0.00  0.00    +0.283 A 
ATOM      3  O   UNL     1       3.005   1.220  -0.207  0.00  0.00    -0.265 OA
ATOM      4  C   UNL     1       1.263   2.702  -0.162  0.00  0.00    +0.132 A 
ATOM      5  C   UNL     1       0.893   4.046  -0.130  0.00  0.00    +0.104 A 
ATOM      6  C   UNL     1      -0.576   4.074  -0.118  0.00  0.00    +0.026 A 
ATOM      7  C   UNL     1      -1.517   5.105  -0.089  0.00  0.00    +0.012 A 
ATOM      8  C   UNL     1      -2.851   4.809  -0.086  0.00  0.00    +0.001 A 
ATOM      9  C   UNL     1      -3.278   3.489  -0.112  0.00  0.00    +0.002 A 
ATOM     10  C   UNL     1      -2.367   2.457  -0.142  0.00  0.00    +0.026 A 
ATOM     11  C   UNL     1      -1.002   2.736  -0.151  0.00  0.00    +0.049 A 
ATOM     12  N   UNL     1       0.114   1.927  -0.171  0.00  0.00    -0.349 N 
ATOM     13  H   UNL     1       0.098   0.957  -0.192  0.00  0.00    +0.166 HD
ATOM     14  N   UNL     1       1.838   5.000  -0.115  0.00  0.00    -0.221 NA
ATOM     15  C   UNL     1       3.115   4.690  -0.131  0.00  0.00    +0.177 A 
ENDROOT
BRANCH   1  19
ATOM     16  C   UNL     1       7.613   2.531  -0.207  0.00  0.00    +0.000 A 
ATOM     17  C   UNL     1       7.034   3.182  -1.280  0.00  0.00    +0.002 A 
ATOM     18  C   UNL     1       5.682   3.468  -1.269  0.00  0.00    +0.026 A 
ATOM     19  C   UNL     1       4.906   3.101  -0.177  0.00  0.00    +0.052 A 
ATOM     20  C   UNL     1       5.492   2.452   0.901  0.00  0.00    +0.026 A 
ATOM     21  C   UNL     1       6.843   2.164   0.881  0.00  0.00    +0.002 A 
ENDBRANCH   1  19
BRANCH  15  22
ATOM     22  S   UNL     1       4.314   5.981  -0.110  0.00  0.00    -0.078 S 
BRANCH  22  23
ATOM     23  C   UNL     1       3.222   7.423  -0.071  0.00  0.00    +0.173 C 
BRANCH  23  24
ATOM     24  C   UNL     1       4.051   8.681  -0.049  0.00  0.00    +0.227 C 
ATOM     25  O   UNL     1       5.262   8.609  -0.058  0.00  0.00    -0.275 OA
ATOM     26  N   UNL     1       3.448   9.886  -0.018  0.00  0.00    -0.285 N 
ATOM     27  H   UNL     1       2.484   9.944   0.070  0.00  0.00    +0.155 HD
BRANCH  26  28
ATOM     28  C   UNL     1       4.213  11.054  -0.113  0.00  0.00    +0.033 A 
ATOM     29  C   UNL     1       3.830  12.195   0.580  0.00  0.00    +0.025 A 
ATOM     30  C   UNL     1       4.589  13.345   0.488  0.00  0.00    +0.022 A 
ATOM     31  C   UNL     1       5.725  13.365  -0.303  0.00  0.00    +0.041 A 
ATOM     32  C   UNL     1       6.105  12.231  -0.999  0.00  0.00    +0.022 A 
ATOM     33  C   UNL     1       5.353  11.077  -0.906  0.00  0.00    +0.025 A 
ATOM     34 CL   UNL     1       6.673  14.814  -0.421  0.00  0.00    -0.084 Cl
ENDBRANCH  26  28
ENDBRANCH  23  24
ENDBRANCH  22  23
ENDBRANCH  15  22
TORSDOF 5
