REMARK  Name = ZINC06884490
REMARK  8 active torsions:
REMARK  status: ('A' for Active; 'I' for Inactive)
REMARK    1  A    between atoms: C_5  and  C_7
REMARK    2  A    between atoms: N_9  and  N_10
REMARK    3  A    between atoms: N_10  and  C_11
REMARK    4  A    between atoms: C_11  and  N_13
REMARK    5  A    between atoms: C_14  and  C_16
REMARK    6  A    between atoms: C_16  and  O_17
REMARK    7  A    between atoms: O_17  and  C_18
REMARK    8  A    between atoms: C_21  and  N_24
REMARK                            x       y       z     vdW  Elec       q    Type
REMARK                         _______ _______ _______ _____ _____    ______ ____
ROOT
ATOM      1  C   UNL     1       2.369   1.025  -0.015  0.00  0.00    +0.153 C 
ATOM      2  S   UNL     1       3.840   1.901  -0.024  0.00  0.00    -0.017 S 
ENDROOT
BRANCH   1   3
ATOM      3  N   UNL     1       2.387  -0.323  -0.022  0.00  0.00    -0.264 N 
ATOM      4  C   UNL     1       3.563  -0.981  -0.037  0.00  0.00    +0.256 C 
ATOM      5  O   UNL     1       4.605  -0.360  -0.044  0.00  0.00    -0.272 OA
ATOM      6  H   UNL     1       1.554  -0.819  -0.017  0.00  0.00    +0.157 HD
BRANCH   4   7
ATOM      7  C   UNL     1       3.584  -2.487  -0.045  0.00  0.00    +0.324 C 
BRANCH   7   8
ATOM      8  O   UNL     1       4.937  -2.946  -0.061  0.00  0.00    -0.483 OA
BRANCH   8   9
ATOM      9  C   UNL     1       5.133  -4.290  -0.070  0.00  0.00    +0.121 A 
ATOM     10  C   UNL     1       4.046  -5.151  -0.058  0.00  0.00    +0.048 A 
ATOM     11  C   UNL     1       4.248  -6.518  -0.072  0.00  0.00    +0.036 A 
ATOM     12  C   UNL     1       5.533  -7.028  -0.088  0.00  0.00    +0.126 A 
ATOM     13  C   UNL     1       6.619  -6.171  -0.094  0.00  0.00    +0.036 A 
ATOM     14  C   UNL     1       6.422  -4.804  -0.085  0.00  0.00    +0.048 A 
BRANCH  12  15
ATOM     15  N   UNL     1       5.747  -8.492  -0.097  0.00  0.00    +0.056 N 
ATOM     16  O   UNL     1       6.879  -8.942  -0.111  0.00  0.00    -0.126 OA
ATOM     17  O   UNL     1       4.791  -9.247  -0.092  0.00  0.00    -0.126 OA
ENDBRANCH  12  15
ENDBRANCH   8   9
ENDBRANCH   7   8
ENDBRANCH   4   7
ENDBRANCH   1   3
BRANCH   1  18
ATOM     18  N   UNL     1       1.193   1.683  -0.000  0.00  0.00    -0.245 N 
ATOM     19  H   UNL     1       1.179   2.653   0.005  0.00  0.00    +0.172 HD
BRANCH  18  22
ATOM     20  C   UNL     1      -1.187   1.624   0.017  0.00  0.00    +0.262 C 
ATOM     21  O   UNL     1      -1.204   2.839   0.023  0.00  0.00    -0.269 OA
ATOM     22  N   UNL     1      -0.011   0.966   0.007  0.00  0.00    -0.231 N 
ATOM     23  H   UNL     1       0.002  -0.004   0.002  0.00  0.00    +0.173 HD
BRANCH  20  28
ATOM     24  C   UNL     1      -3.630  -1.228   0.012  0.00  0.00    +0.001 A 
ATOM     25  C   UNL     1      -4.837  -0.550   0.022  0.00  0.00    +0.001 A 
ATOM     26  C   UNL     1      -4.861   0.832   0.030  0.00  0.00    +0.021 A 
ATOM     27  C   UNL     1      -3.678   1.546   0.028  0.00  0.00    +0.053 A 
ATOM     28  C   UNL     1      -2.457   0.868   0.018  0.00  0.00    +0.056 A 
ATOM     29  C   UNL     1      -2.442  -0.528   0.005  0.00  0.00    +0.014 A 
ATOM     30 CL   UNL     1      -3.709   3.282   0.037  0.00  0.00    -0.083 Cl
ENDBRANCH  20  28
ENDBRANCH  18  22
ENDBRANCH   1  18
TORSDOF 8
