REMARK  Name = ZINC45259057
REMARK  6 active torsions:
REMARK  status: ('A' for Active; 'I' for Inactive)
REMARK    1  A    between atoms: C_1  and  C_2
REMARK    2  A    between atoms: C_2  and  N_3
REMARK    3  A    between atoms: C_11  and  C_13
REMARK    4  A    between atoms: C_20  and  C_30
REMARK    5  A    between atoms: C_21  and  C_22
REMARK    6  A    between atoms: C_26  and  O_28
REMARK                            x       y       z     vdW  Elec       q    Type
REMARK                         _______ _______ _______ _____ _____    ______ ____
ROOT
ATOM      1  C   UNL     1       3.392  -2.138   4.311  0.00  0.00    +0.050 A 
ATOM      2  C   UNL     1       4.417  -2.957   4.650  0.00  0.00    +0.043 A 
ATOM      3  C   UNL     1       4.685  -3.203   6.004  0.00  0.00    +0.115 A 
ATOM      4  N   UNL     1       3.947  -2.643   6.936  0.00  0.00    -0.236 NA
ATOM      5  C   UNL     1       2.933  -1.833   6.613  0.00  0.00    +0.164 A 
ATOM      6  N   UNL     1       2.643  -1.565   5.300  0.00  0.00    -0.217 N 
ATOM      7  N   UNL     1       1.550  -0.692   5.265  0.00  0.00    -0.164 NA
ATOM      8  C   UNL     1       1.173  -0.421   6.501  0.00  0.00    +0.103 A 
ATOM      9  C   UNL     1       2.010  -1.124   7.389  0.00  0.00    +0.054 A 
ENDROOT
BRANCH   1  16
ATOM     10  N   UNL     1       1.317  -0.399   1.077  0.00  0.00    +0.383 N 
ATOM     11  C   UNL     1       2.764  -0.065   1.156  0.00  0.00    -0.068 C 
ATOM     12  C   UNL     1       3.444  -1.095   0.225  0.00  0.00    -0.017 C 
ATOM     13  C   UNL     1       2.479  -2.299   0.197  0.00  0.00    -0.017 C 
ATOM     14  C   UNL     1       1.304  -1.886   1.113  0.00  0.00    -0.068 C 
ATOM     15  C   UNL     1       1.656  -2.310   2.548  0.00  0.00    -0.006 C 
ATOM     16  C   UNL     1       3.085  -1.858   2.863  0.00  0.00    +0.035 C 
ATOM     17  C   UNL     1       3.219  -0.342   2.598  0.00  0.00    -0.006 C 
ATOM     18  H   UNL     1       0.819  -0.021   1.869  0.00  0.00    -0.081 HD
BRANCH  10  20
ATOM     19  C   UNL     1       0.652   1.620  -0.138  0.00  0.00    -0.017 C 
ATOM     20  C   UNL     1       0.740   0.093  -0.180  0.00  0.00    -0.081 C 
ENDBRANCH  10  20
ENDBRANCH   1  16
BRANCH   9  21
ATOM     21  C   UNL     1       1.936  -1.103   8.867  0.00  0.00    -0.009 A 
ATOM     22  C   UNL     1       0.840  -1.666   9.521  0.00  0.00    +0.012 A 
ATOM     23  C   UNL     1       0.773  -1.646  10.900  0.00  0.00    +0.043 A 
ATOM     24  C   UNL     1       1.793  -1.068  11.637  0.00  0.00    +0.165 A 
ATOM     25  C   UNL     1       2.889  -0.506  10.993  0.00  0.00    +0.152 A 
ATOM     26  C   UNL     1       2.966  -0.527   9.611  0.00  0.00    +0.057 A 
ATOM     27  F   UNL     1       1.722  -1.051  12.986  0.00  0.00    -0.202 F 
BRANCH  25  28
ATOM     28  O   UNL     1       3.888   0.060  11.721  0.00  0.00    -0.504 OA
ATOM     29  H   UNL     1       4.595  -0.554  11.963  0.00  0.00    +0.292 HD
ENDBRANCH  25  28
ENDBRANCH   9  21
BRANCH   8  30
ATOM     30  C   UNL     1       0.050   0.466   6.888  0.00  0.00    +0.006 A 
ATOM     31  C   UNL     1       0.172   1.351   7.963  0.00  0.00    +0.030 A 
ATOM     32  C   UNL     1      -0.898   2.159   8.289  0.00  0.00    +0.111 A 
ATOM     33  N   UNL     1      -2.023   2.103   7.602  0.00  0.00    -0.263 NA
ATOM     34  C   UNL     1      -2.179   1.282   6.582  0.00  0.00    +0.111 A 
ATOM     35  C   UNL     1      -1.159   0.443   6.185  0.00  0.00    +0.030 A 
ENDBRANCH   8  30
TORSDOF 5
