REMARK  Name = ZINC64024359
REMARK  10 active torsions:
REMARK  status: ('A' for Active; 'I' for Inactive)
REMARK    1  A    between atoms: C_1  and  C_2
REMARK    2  A    between atoms: C_4  and  C_21
REMARK    3  A    between atoms: C_7  and  C_10
REMARK    4  A    between atoms: C_15  and  N_16
REMARK    5  A    between atoms: N_16  and  S_17
REMARK    6  A    between atoms: S_17  and  C_20
REMARK    7  A    between atoms: C_21  and  N_22
REMARK    8  A    between atoms: N_22  and  C_23
REMARK    9  A    between atoms: N_22  and  C_24
REMARK   10  A    between atoms: C_24  and  C_25
REMARK                            x       y       z     vdW  Elec       q    Type
REMARK                         _______ _______ _______ _____ _____    ______ ____
ROOT
ATOM      1  C   UNL     1       1.320   0.514   0.257  0.00  0.00    +0.039 C 
ATOM      2  C   UNL     1       0.720  -0.810  -0.217  0.00  0.00    +0.133 C 
ATOM      3  C   UNL     1       0.977  -1.001  -1.725  0.00  0.00    +0.068 C 
ATOM      4  N   UNL     1       1.804  -2.231  -1.813  0.00  0.00    -0.284 NA
ATOM      5  C   UNL     1       2.421  -2.334  -0.465  0.00  0.00    +0.220 C 
ATOM      6  O   UNL     1       1.373  -1.915   0.439  0.00  0.00    -0.353 OA
ATOM      7  H   UNL     1       1.231  -3.038  -2.010  0.00  0.00    +0.125 HD
ENDROOT
BRANCH   5   8
ATOM      8  C   UNL     1       2.830  -3.756  -0.179  0.00  0.00    +0.020 A 
ATOM      9  C   UNL     1       2.342  -4.786  -0.959  0.00  0.00    +0.009 A 
ATOM     10  C   UNL     1       2.716  -6.091  -0.697  0.00  0.00    +0.001 A 
ATOM     11  C   UNL     1       3.580  -6.369   0.346  0.00  0.00    +0.002 A 
ATOM     12  C   UNL     1       4.072  -5.344   1.130  0.00  0.00    +0.027 A 
ATOM     13  C   UNL     1       3.702  -4.031   0.866  0.00  0.00    +0.081 A 
BRANCH  13  14
ATOM     14  N   UNL     1       4.202  -2.992   1.654  0.00  0.00    -0.102 NA
BRANCH  14  15
ATOM     15  S   UNL     1       5.242  -3.323   2.899  0.00  0.00    +0.059 S 
ATOM     16  O   UNL     1       4.480  -4.104   3.810  0.00  0.00    -0.154 OA
ATOM     17  O   UNL     1       6.398  -3.862   2.273  0.00  0.00    -0.154 OA
ATOM     18  C   UNL     1       5.623  -1.707   3.630  0.00  0.00    +0.220 C 
ENDBRANCH  14  15
ENDBRANCH  13  14
ENDBRANCH   5   8
BRANCH   3  19
ATOM     19  C   UNL     1      -0.344  -1.189  -2.472  0.00  0.00    -0.058 C 
BRANCH  19  20
ATOM     20  N   UNL     1      -0.071  -1.488  -3.884  0.00  0.00    +0.381 N 
ATOM     21  C   UNL     1       0.570  -0.326  -4.514  0.00  0.00    -0.096 C 
ATOM     22  H   UNL     1       0.544  -2.286  -3.946  0.00  0.00    -0.082 HD
BRANCH  20  23
ATOM     23  C   UNL     1      -1.332  -1.786  -4.575  0.00  0.00    -0.032 C 
BRANCH  23  24
ATOM     24  C   UNL     1      -1.032  -2.320  -5.976  0.00  0.00    +0.157 C 
ATOM     25  N   UNL     1      -0.057  -3.416  -5.900  0.00  0.00    -0.365 N 
ATOM     26  C   UNL     1       0.991  -3.053  -6.582  0.00  0.00    +0.060 A 
ATOM     27  C   UNL     1       2.273  -3.712  -6.869  0.00  0.00    +0.027 A 
ATOM     28  C   UNL     1       3.192  -3.078  -7.623  0.00  0.00    +0.002 A 
ATOM     29  C   UNL     1       2.980  -1.795  -8.158  0.00  0.00    +0.002 A 
ATOM     30  C   UNL     1       1.842  -1.102  -7.955  0.00  0.00    +0.027 A 
ATOM     31  C   UNL     1       0.766  -1.695  -7.148  0.00  0.00    +0.060 A 
ATOM     32  N   UNL     1      -0.412  -1.270  -6.794  0.00  0.00    -0.365 N 
ATOM     33  H   UNL     1      -0.173  -4.255  -5.428  0.00  0.00    +0.162 HD
ATOM     34  H   UNL     1      -0.808  -0.416  -7.028  0.00  0.00    +0.162 HD
ENDBRANCH  23  24
ENDBRANCH  20  23
ENDBRANCH  19  20
ENDBRANCH   3  19
TORSDOF 7
