REMARK  Name = ZINC36541317
REMARK  10 active torsions:
REMARK  status: ('A' for Active; 'I' for Inactive)
REMARK    1  A    between atoms: C_1  and  O_2
REMARK    2  A    between atoms: O_2  and  C_3
REMARK    3  A    between atoms: C_3  and  C_5
REMARK    4  A    between atoms: C_3  and  C_11
REMARK    5  A    between atoms: N_13  and  C_14
REMARK    6  A    between atoms: N_13  and  C_21
REMARK    7  A    between atoms: C_21  and  C_23
REMARK    8  A    between atoms: C_21  and  C_30
REMARK    9  A    between atoms: C_26  and  O_29
REMARK   10  A    between atoms: N_32  and  C_33
REMARK                            x       y       z     vdW  Elec       q    Type
REMARK                         _______ _______ _______ _____ _____    ______ ____
ROOT
ATOM      1  C   UNL     1      -1.438  -1.578   1.801  0.00  0.00    +0.254 C 
ATOM      2  O   UNL     1      -0.872  -2.633   1.993  0.00  0.00    -0.272 OA
ATOM      3  N   UNL     1      -2.686  -1.386   2.271  0.00  0.00    -0.252 N 
ENDROOT
BRANCH   3   4
ATOM      4  C   UNL     1      -3.376  -0.208   1.965  0.00  0.00    +0.056 A 
ATOM      5  C   UNL     1      -4.049  -0.090   0.756  0.00  0.00    +0.025 A 
ATOM      6  C   UNL     1      -4.730   1.074   0.457  0.00  0.00    +0.002 A 
ATOM      7  C   UNL     1      -4.741   2.122   1.360  0.00  0.00    +0.002 A 
ATOM      8  C   UNL     1      -4.072   2.009   2.564  0.00  0.00    +0.022 A 
ATOM      9  C   UNL     1      -3.394   0.845   2.872  0.00  0.00    +0.062 A 
ATOM     10 CL   UNL     1      -2.560   0.700   4.388  0.00  0.00    -0.082 Cl
ENDBRANCH   3   4
BRANCH   1  11
ATOM     11  C   UNL     1      -0.744  -0.480   1.035  0.00  0.00    +0.234 C 
BRANCH  11  12
ATOM     12  C   UNL     1      -1.068  -0.609  -0.431  0.00  0.00    -0.010 A 
ATOM     13  C   UNL     1      -0.465  -1.597  -1.188  0.00  0.00    +0.006 A 
ATOM     14  C   UNL     1      -0.762  -1.715  -2.533  0.00  0.00    +0.000 A 
ATOM     15  C   UNL     1      -1.661  -0.845  -3.121  0.00  0.00    +0.000 A 
ATOM     16  C   UNL     1      -2.264   0.142  -2.364  0.00  0.00    +0.000 A 
ATOM     17  C   UNL     1      -1.971   0.257  -1.018  0.00  0.00    +0.006 A 
ENDBRANCH  11  12
BRANCH  11  19
ATOM     18  C   UNL     1       1.163   0.147   2.344  0.00  0.00    +0.195 C 
ATOM     19  O   UNL     1       0.668  -0.588   1.223  0.00  0.00    -0.366 OA
ENDBRANCH  11  19
ENDBRANCH   1  11
BRANCH   3  20
ATOM     20  C   UNL     1      -3.320  -2.412   3.103  0.00  0.00    +0.197 C 
BRANCH  20  21
ATOM     21  C   UNL     1      -3.490  -3.676   2.300  0.00  0.00    -0.018 A 
ATOM     22  C   UNL     1      -3.798  -3.602   0.954  0.00  0.00    +0.009 A 
ATOM     23  C   UNL     1      -3.955  -4.759   0.216  0.00  0.00    +0.046 A 
ATOM     24  C   UNL     1      -3.803  -5.996   0.826  0.00  0.00    +0.117 A 
ATOM     25  C   UNL     1      -3.494  -6.067   2.177  0.00  0.00    +0.046 A 
ATOM     26  C   UNL     1      -3.333  -4.907   2.910  0.00  0.00    +0.009 A 
BRANCH  24  27
ATOM     27  O   UNL     1      -3.958  -7.136   0.102  0.00  0.00    -0.507 OA
ATOM     28  H   UNL     1      -3.141  -7.457  -0.304  0.00  0.00    +0.292 HD
ENDBRANCH  24  27
ENDBRANCH  20  21
BRANCH  20  29
ATOM     29  C   UNL     1      -4.670  -1.922   3.562  0.00  0.00    +0.239 C 
ATOM     30  O   UNL     1      -5.388  -1.316   2.795  0.00  0.00    -0.273 OA
ATOM     31  N   UNL     1      -5.079  -2.159   4.824  0.00  0.00    -0.311 N 
ATOM     32  H   UNL     1      -4.505  -2.644   5.437  0.00  0.00    +0.149 HD
BRANCH  31  33
ATOM     33  C   UNL     1      -6.391  -1.683   5.269  0.00  0.00    +0.073 C 
ATOM     34  C   UNL     1      -6.276  -0.230   5.735  0.00  0.00    +0.022 C 
ATOM     35  C   UNL     1      -7.646   0.267   6.200  0.00  0.00    +0.002 C 
ATOM     36  C   UNL     1      -8.137  -0.602   7.360  0.00  0.00    +0.000 C 
ATOM     37  C   UNL     1      -8.252  -2.055   6.894  0.00  0.00    +0.002 C 
ATOM     38  C   UNL     1      -6.882  -2.552   6.429  0.00  0.00    +0.022 C 
ENDBRANCH  31  33
ENDBRANCH  20  29
ENDBRANCH   3  20
TORSDOF 9
