REMARK  Name = ZINC06263218
REMARK  9 active torsions:
REMARK  status: ('A' for Active; 'I' for Inactive)
REMARK    1  A    between atoms: C_1  and  C_2
REMARK    2  A    between atoms: C_2  and  C_3
REMARK    3  A    between atoms: C_2  and  C_4
REMARK    4  A    between atoms: C_7  and  O_10
REMARK    5  A    between atoms: O_10  and  C_11
REMARK    6  A    between atoms: C_11  and  C_12
REMARK    7  A    between atoms: N_14  and  N_15
REMARK    8  A    between atoms: C_16  and  C_18
REMARK    9  A    between atoms: C_19  and  C_20
REMARK                            x       y       z     vdW  Elec       q    Type
REMARK                         _______ _______ _______ _____ _____    ______ ____
ROOT
ATOM      1  N   UNL     1       3.070   7.820   0.013  0.00  0.00    -0.231 N 
ATOM      2  C   UNL     1       4.130   8.653   0.007  0.00  0.00    +0.253 C 
ATOM      3  O   UNL     1       5.260   8.201  -0.005  0.00  0.00    -0.269 OA
ATOM      4  H   UNL     1       2.170   8.180   0.024  0.00  0.00    +0.173 HD
ENDROOT
BRANCH   1   7
ATOM      5  C   UNL     1       2.211   5.600   0.010  0.00  0.00    +0.267 C 
ATOM      6  O   UNL     1       1.085   6.051   0.023  0.00  0.00    -0.271 OA
ATOM      7  N   UNL     1       3.270   6.433   0.004  0.00  0.00    -0.231 N 
ATOM      8  H   UNL     1       4.171   6.073  -0.006  0.00  0.00    +0.173 HD
BRANCH   5   9
ATOM      9  C   UNL     1       2.426   4.108   0.001  0.00  0.00    +0.326 C 
BRANCH   9  10
ATOM     10  O   UNL     1       1.160   3.445   0.009  0.00  0.00    -0.483 OA
BRANCH  10  14
ATOM     11  C   UNL     1       1.208  -0.680  -0.013  0.00  0.00    -0.045 A 
ATOM     12  C   UNL     1       0.002  -0.004   0.002  0.00  0.00    +0.007 A 
ATOM     13  C   UNL     1      -0.017   1.377   0.010  0.00  0.00    +0.046 A 
ATOM     14  C   UNL     1       1.176   2.086   0.002  0.00  0.00    +0.121 A 
ATOM     15  C   UNL     1       2.385   1.405  -0.013  0.00  0.00    +0.046 A 
ATOM     16  C   UNL     1       2.398   0.024  -0.021  0.00  0.00    +0.007 A 
BRANCH  11  18
ATOM     17  C   UNL     1       1.940  -2.682  -1.280  0.00  0.00    +0.012 C 
ATOM     18  C   UNL     1       1.226  -2.187  -0.021  0.00  0.00    +0.013 C 
ATOM     19  C   UNL     1       1.965  -2.695   1.219  0.00  0.00    +0.012 C 
ENDBRANCH  11  18
ENDBRANCH  10  14
ENDBRANCH   9  10
ENDBRANCH   5   9
ENDBRANCH   1   7
BRANCH   2  20
ATOM     20  C   UNL     1       3.921  10.101   0.017  0.00  0.00    +0.069 C 
ATOM     21  C   UNL     1       4.983  10.937   0.011  0.00  0.00    +0.013 C 
BRANCH  21  22
ATOM     22  C   UNL     1       4.774  12.389   0.020  0.00  0.00    -0.017 A 
ATOM     23  C   UNL     1       3.488  12.922   0.029  0.00  0.00    +0.008 A 
ATOM     24  C   UNL     1       3.295  14.296   0.044  0.00  0.00    +0.001 A 
ATOM     25  C   UNL     1       4.340  15.169   0.038  0.00  0.00    +0.008 A 
ATOM     26  C   UNL     1       5.665  14.702   0.023  0.00  0.00    -0.017 A 
ATOM     27  C   UNL     1       5.912  13.308   0.014  0.00  0.00    -0.011 A 
ATOM     28  C   UNL     1       7.230  12.839   0.001  0.00  0.00    +0.009 A 
ATOM     29  C   UNL     1       8.262  13.730  -0.004  0.00  0.00    +0.001 A 
ATOM     30  C   UNL     1       8.023  15.102   0.004  0.00  0.00    +0.001 A 
ATOM     31  C   UNL     1       6.753  15.592   0.018  0.00  0.00    +0.008 A 
ENDBRANCH  21  22
ENDBRANCH   2  20
TORSDOF 7
