REMARK  Name = ZINC39667549
REMARK  7 active torsions:
REMARK  status: ('A' for Active; 'I' for Inactive)
REMARK    1  A    between atoms: C_1  and  C_2
REMARK    2  A    between atoms: C_6  and  C_9
REMARK    3  A    between atoms: C_7  and  C_8
REMARK    4  A    between atoms: C_9  and  N_10
REMARK    5  A    between atoms: C_11  and  C_13
REMARK    6  A    between atoms: C_24  and  C_26
REMARK    7  A    between atoms: C_26  and  C_32
REMARK                            x       y       z     vdW  Elec       q    Type
REMARK                         _______ _______ _______ _____ _____    ______ ____
ROOT
ATOM      1  C   UNL     1      -3.518  -3.476   4.724  0.00  0.00    +0.100 C 
ATOM      2  C   UNL     1      -4.201  -4.269   3.588  0.00  0.00    +0.121 C 
ATOM      3  N   UNL     1      -4.200  -5.674   4.060  0.00  0.00    -0.300 N 
ATOM      4  C   UNL     1      -4.502  -5.577   5.508  0.00  0.00    +0.115 C 
ATOM      5  C   UNL     1      -3.721  -4.335   5.983  0.00  0.00    -0.004 C 
ATOM      6  C   UNL     1      -2.372  -4.752   6.562  0.00  0.00    -0.010 C 
ATOM      7  C   UNL     1      -2.599  -5.558   7.844  0.00  0.00    -0.082 C 
ATOM      8  N   UNL     1      -3.338  -4.740   8.813  0.00  0.00    +0.379 N 
ATOM      9  C   UNL     1      -4.671  -4.421   8.287  0.00  0.00    -0.082 C 
ATOM     10  C   UNL     1      -4.531  -3.568   7.023  0.00  0.00    -0.010 C 
ATOM     11  C   UNL     1      -3.977  -6.789   3.335  0.00  0.00    +0.222 C 
ATOM     12  O   UNL     1      -3.664  -6.700   2.167  0.00  0.00    -0.275 OA
ATOM     13  H   UNL     1      -3.433  -5.250   9.679  0.00  0.00    -0.086 HD
ATOM     14  H   UNL     1      -2.832  -3.884   8.985  0.00  0.00    -0.086 HD
ENDROOT
BRANCH  11  15
ATOM     15  C   UNL     1      -4.116  -8.145   3.978  0.00  0.00    +0.044 C 
ATOM     16  C   UNL     1      -3.024  -8.323   5.034  0.00  0.00    +0.016 C 
ATOM     17  C   UNL     1      -1.650  -8.212   4.371  0.00  0.00    +0.001 C 
ATOM     18  C   UNL     1      -1.509  -9.298   3.303  0.00  0.00    +0.000 C 
ATOM     19  C   UNL     1      -2.601  -9.120   2.247  0.00  0.00    +0.001 C 
ATOM     20  C   UNL     1      -3.975  -9.232   2.910  0.00  0.00    +0.016 C 
ATOM     21  C   UNL     1      -5.491  -8.257   4.641  0.00  0.00    +0.021 C 
ENDBRANCH  11  15
BRANCH   1  23
ATOM     22  N   UNL     1      -1.391  -2.225   4.902  0.00  0.00    -0.311 N 
ATOM     23  C   UNL     1      -2.049  -3.305   4.436  0.00  0.00    +0.218 C 
ATOM     24  O   UNL     1      -1.457  -4.141   3.786  0.00  0.00    -0.275 OA
ATOM     25  H   UNL     1      -1.864  -1.556   5.422  0.00  0.00    +0.149 HD
BRANCH  22  26
ATOM     26  C   UNL     1       0.037  -2.059   4.622  0.00  0.00    +0.139 C 
BRANCH  26  32
ATOM     27  C   UNL     1       1.590   0.478   8.646  0.00  0.00    +0.044 C 
ATOM     28  C   UNL     1       1.269   0.435   7.174  0.00  0.00    -0.047 A 
ATOM     29  C   UNL     1       1.424   1.569   6.399  0.00  0.00    +0.003 A 
ATOM     30  C   UNL     1       1.130   1.529   5.049  0.00  0.00    +0.001 A 
ATOM     31  C   UNL     1       0.681   0.355   4.474  0.00  0.00    +0.005 A 
ATOM     32  C   UNL     1       0.527  -0.779   5.248  0.00  0.00    -0.027 A 
ATOM     33  C   UNL     1       0.825  -0.741   6.598  0.00  0.00    -0.043 A 
ATOM     34  C   UNL     1       0.662  -1.978   7.441  0.00  0.00    +0.044 C 
ENDBRANCH  26  32
ENDBRANCH  22  26
ENDBRANCH   1  23
TORSDOF 4
