REMARK  Name = ZINC20530343
REMARK  7 active torsions:
REMARK  status: ('A' for Active; 'I' for Inactive)
REMARK    1  A    between atoms: C_6  and  C_7
REMARK    2  A    between atoms: C_7  and  N_8
REMARK    3  A    between atoms: C_9  and  C_11
REMARK    4  A    between atoms: C_11  and  C_12
REMARK    5  A    between atoms: C_12  and  N_13
REMARK    6  A    between atoms: N_13  and  S_14
REMARK    7  A    between atoms: S_14  and  C_17
REMARK                            x       y       z     vdW  Elec       q    Type
REMARK                         _______ _______ _______ _____ _____    ______ ____
ROOT
ATOM      1  N   UNL     1      -6.209  -1.275   4.456  0.00  0.00    -0.189 NA
ATOM      2  H   UNL     1      -5.457  -1.301   5.258  0.00  0.00    +0.148 HD
ENDROOT
BRANCH   1   3
ATOM      3  S   UNL     1      -7.755  -1.771   4.780  0.00  0.00    +0.058 S 
ATOM      4  O   UNL     1      -7.835  -1.960   6.186  0.00  0.00    -0.153 OA
ATOM      5  O   UNL     1      -8.620  -0.888   4.080  0.00  0.00    -0.153 OA
BRANCH   3   6
ATOM      6  C   UNL     1      -7.957  -3.361   4.046  0.00  0.00    +0.106 A 
ATOM      7  C   UNL     1      -7.655  -4.500   4.779  0.00  0.00    +0.030 A 
ATOM      8  C   UNL     1      -7.806  -5.753   4.226  0.00  0.00    +0.028 A 
ATOM      9  C   UNL     1      -8.264  -5.880   2.918  0.00  0.00    +0.049 A 
ATOM     10  C   UNL     1      -8.569  -4.722   2.178  0.00  0.00    +0.000 A 
ATOM     11  C   UNL     1      -8.414  -3.461   2.763  0.00  0.00    +0.038 A 
ATOM     12  C   UNL     1      -9.050  -4.865   0.803  0.00  0.00    +0.015 A 
ATOM     13  C   UNL     1      -9.186  -6.113   0.291  0.00  0.00    +0.071 A 
ATOM     14  C   UNL     1      -8.867  -7.242   1.076  0.00  0.00    +0.249 A 
ATOM     15  O   UNL     1      -8.996  -8.355   0.596  0.00  0.00    -0.268 OA
ATOM     16  N   UNL     1      -8.424  -7.120   2.340  0.00  0.00    -0.322 N 
ATOM     17  H   UNL     1      -8.189  -8.029   2.913  0.00  0.00    +0.169 HD
ENDBRANCH   3   6
ENDBRANCH   1   3
BRANCH   1  18
ATOM     18  C   UNL     1      -5.797  -1.017   3.074  0.00  0.00    +0.115 C 
BRANCH  18  19
ATOM     19  C   UNL     1      -4.484  -0.231   3.072  0.00  0.00    +0.112 C 
BRANCH  19  21
ATOM     20  N   UNL     1      -2.925   0.717   1.402  0.00  0.00    -0.311 N 
ATOM     21  C   UNL     1      -4.060   0.034   1.650  0.00  0.00    +0.215 C 
ATOM     22  O   UNL     1      -4.741  -0.366   0.730  0.00  0.00    -0.276 OA
ATOM     23  H   UNL     1      -2.307   1.080   2.237  0.00  0.00    +0.149 HD
BRANCH  20  24
ATOM     24  C   UNL     1      -2.512   0.975   0.020  0.00  0.00    +0.139 C 
BRANCH  24  30
ATOM     25  C   UNL     1      -0.013   1.076   0.008  0.00  0.00    +0.009 A 
ATOM     26  C   UNL     1       1.176   1.782   0.000  0.00  0.00    +0.050 A 
ATOM     27  C   UNL     1       1.160   3.167   0.008  0.00  0.00    +0.166 A 
ATOM     28  C   UNL     1      -0.057   3.845   0.023  0.00  0.00    +0.167 A 
ATOM     29  C   UNL     1      -1.244   3.132   0.030  0.00  0.00    +0.054 A 
ATOM     30  C   UNL     1      -1.220   1.749   0.017  0.00  0.00    -0.027 A 
ATOM     31  O   UNL     1       0.193   5.187   0.028  0.00  0.00    -0.453 OA
ATOM     32  C   UNL     1       1.562   5.326  -0.396  0.00  0.00    +0.466 C 
ATOM     33  O   UNL     1       2.171   4.084   0.004  0.00  0.00    -0.453 OA
ENDBRANCH  24  30
ENDBRANCH  20  24
ENDBRANCH  19  21
ENDBRANCH  18  19
ENDBRANCH   1  18
TORSDOF 7
