REMARK  Name = ZINC12375820
REMARK  7 active torsions:
REMARK  status: ('A' for Active; 'I' for Inactive)
REMARK    1  A    between atoms: C_4  and  N_7
REMARK    2  A    between atoms: C_8  and  C_9
REMARK    3  A    between atoms: C_12  and  O_32
REMARK    4  A    between atoms: C_16  and  N_31
REMARK    5  A    between atoms: C_17  and  C_29
REMARK    6  A    between atoms: C_18  and  C_20
REMARK    7  A    between atoms: C_25  and  N_26
REMARK                            x       y       z     vdW  Elec       q    Type
REMARK                         _______ _______ _______ _____ _____    ______ ____
ROOT
ATOM      1  C   UNL     1       0.857  -0.669  -0.677  0.00  0.00    +0.036 A 
ATOM      2  C   UNL     1       1.593  -1.783  -0.257  0.00  0.00    +0.016 A 
ATOM      3  C   UNL     1       1.146  -2.541   0.800  0.00  0.00    +0.046 A 
ATOM      4  C   UNL     1      -0.035  -2.203   1.454  0.00  0.00    +0.124 A 
ATOM      5  C   UNL     1      -0.773  -1.099   1.046  0.00  0.00    +0.049 A 
ATOM      6  C   UNL     1      -0.333  -0.326  -0.011  0.00  0.00    +0.146 A 
ATOM      7  O   UNL     1      -1.034   0.757  -0.421  0.00  0.00    -0.440 OA
ATOM      8  C   UNL     1      -2.328   0.887  -0.082  0.00  0.00    +0.199 C 
ATOM      9  C   UNL     1      -2.868   0.201   0.953  0.00  0.00    +0.098 C 
ATOM     10  C   UNL     1      -2.048  -0.753   1.769  0.00  0.00    +0.104 C 
ENDROOT
BRANCH  10  11
ATOM     11  C   UNL     1      -1.713  -0.099   3.085  0.00  0.00    -0.004 A 
ATOM     12  C   UNL     1      -0.962   1.061   3.109  0.00  0.00    +0.007 A 
ATOM     13  C   UNL     1      -0.655   1.661   4.316  0.00  0.00    +0.000 A 
ATOM     14  C   UNL     1      -1.100   1.101   5.499  0.00  0.00    +0.002 A 
ATOM     15  C   UNL     1      -1.852  -0.059   5.475  0.00  0.00    +0.033 A 
ATOM     16  C   UNL     1      -2.162  -0.656   4.268  0.00  0.00    +0.130 A 
BRANCH  16  17
ATOM     17  N   UNL     1      -2.972  -1.895   4.242  0.00  0.00    +0.057 N 
ATOM     18  O   UNL     1      -3.863  -2.052   5.043  0.00  0.00    -0.126 OA
ATOM     19  O   UNL     1      -2.741  -2.751   3.419  0.00  0.00    -0.126 OA
ENDBRANCH  16  17
ENDBRANCH  10  11
BRANCH   8  20
ATOM     20  N   UNL     1      -3.124   1.740  -0.804  0.00  0.00    -0.328 N 
ATOM     21  H   UNL     1      -2.735   2.299  -1.495  0.00  0.00    +0.145 HD
ATOM     22  H   UNL     1      -4.076   1.785  -0.624  0.00  0.00    +0.145 HD
ENDBRANCH   8  20
BRANCH   1  24
ATOM     23  N   UNL     1       2.609   0.334  -1.981  0.00  0.00    -0.255 NA
ATOM     24  C   UNL     1       1.330   0.142  -1.806  0.00  0.00    +0.123 C 
BRANCH  23  28
ATOM     25  C   UNL     1       5.339  -1.487   0.539  0.00  0.00    +0.000 A 
ATOM     26  C   UNL     1       5.284  -1.851  -0.794  0.00  0.00    +0.002 A 
ATOM     27  C   UNL     1       4.376  -1.249  -1.640  0.00  0.00    +0.028 A 
ATOM     28  C   UNL     1       3.512  -0.269  -1.147  0.00  0.00    +0.064 A 
ATOM     29  C   UNL     1       3.573   0.094   0.200  0.00  0.00    +0.028 A 
ATOM     30  C   UNL     1       4.486  -0.517   1.034  0.00  0.00    +0.002 A 
ENDBRANCH  23  28
ENDBRANCH   1  24
BRANCH   9  31
ATOM     31  C   UNL     1      -4.254   0.380   1.267  0.00  0.00    +0.101 C 
ATOM     32  N   UNL     1      -5.353   0.522   1.517  0.00  0.00    -0.191 NA
ENDBRANCH   9  31
BRANCH   4  33
ATOM     33  O   UNL     1      -0.468  -2.957   2.496  0.00  0.00    -0.506 OA
ATOM     34  H   UNL     1      -0.138  -2.664   3.357  0.00  0.00    +0.292 HD
ENDBRANCH   4  33
TORSDOF 7
