REMARK  Name = ZINC06089391
REMARK  11 active torsions:
REMARK  status: ('A' for Active; 'I' for Inactive)
REMARK    1  A    between atoms: C_1  and  C_2
REMARK    2  A    between atoms: C_2  and  O_3
REMARK    3  A    between atoms: O_3  and  C_4
REMARK    4  A    between atoms: C_4  and  C_6
REMARK    5  A    between atoms: C_6  and  C_7
REMARK    6  A    between atoms: C_13  and  C_15
REMARK    7  A    between atoms: C_15  and  S_16
REMARK    8  A    between atoms: S_16  and  C_17
REMARK    9  A    between atoms: C_23  and  C_32
REMARK   10  A    between atoms: C_25  and  C_31
REMARK   11  A    between atoms: C_28  and  C_30
REMARK                            x       y       z     vdW  Elec       q    Type
REMARK                         _______ _______ _______ _____ _____    ______ ____
ROOT
ATOM      1  S   UNL     1      -2.534   0.162  -0.146  0.00  0.00    -0.076 S 
ENDROOT
BRANCH   1   2
ATOM      2  C   UNL     1      -3.759   1.411  -0.355  0.00  0.00    +0.197 A 
ATOM      3  N   UNL     1      -3.491   2.686  -0.576  0.00  0.00    -0.122 NA
ATOM      4  N   UNL     1      -4.575   3.327  -0.811  0.00  0.00    -0.129 NA
ATOM      5  C   UNL     1      -5.589   2.484  -0.801  0.00  0.00    +0.162 A 
ATOM      6  N   UNL     1      -5.111   1.285  -0.296  0.00  0.00    -0.270 N 
ATOM      7  C   UNL     1      -6.019   0.337   0.146  0.00  0.00    +0.061 A 
ATOM      8  C   UNL     1      -5.697  -0.669   1.042  0.00  0.00    -0.026 A 
ATOM      9  C   UNL     1      -6.549  -1.743   1.222  0.00  0.00    +0.008 A 
ATOM     10  C   UNL     1      -7.782  -1.778   0.595  0.00  0.00    -0.050 A 
ATOM     11  C   UNL     1      -8.190  -0.712  -0.175  0.00  0.00    +0.013 A 
ATOM     12  C   UNL     1      -7.342   0.384  -0.349  0.00  0.00    +0.002 A 
ATOM     13  C   UNL     1      -7.798   1.588  -1.049  0.00  0.00    -0.038 A 
ATOM     14  C   UNL     1      -6.937   2.619  -1.198  0.00  0.00    +0.052 A 
ATOM     15  C   UNL     1      -9.210   1.710  -1.559  0.00  0.00    +0.044 C 
ATOM     16  C   UNL     1      -8.678  -2.978   0.753  0.00  0.00    +0.044 C 
ATOM     17  C   UNL     1      -4.476  -0.593   1.922  0.00  0.00    +0.046 C 
ENDBRANCH   1   2
BRANCH   1  18
ATOM     18  C   UNL     1      -1.034   1.159  -0.324  0.00  0.00    +0.173 C 
BRANCH  18  25
ATOM     19  C   UNL     1       4.752  -0.598  -0.069  0.00  0.00    +0.061 A 
ATOM     20  C   UNL     1       4.384  -1.883   0.154  0.00  0.00    +0.072 A 
ATOM     21  S   UNL     1       2.604  -1.725   0.143  0.00  0.00    -0.060 S 
ATOM     22  C   UNL     1       2.531  -0.015  -0.149  0.00  0.00    +0.165 A 
ATOM     23  N   UNL     1       3.807   0.309  -0.222  0.00  0.00    -0.229 NA
ATOM     24  N   UNL     1       1.413   0.802  -0.279  0.00  0.00    -0.264 N 
ATOM     25  C   UNL     1       0.177   0.274  -0.177  0.00  0.00    +0.229 C 
ATOM     26  O   UNL     1       0.040  -0.913   0.028  0.00  0.00    -0.275 OA
ATOM     27  H   UNL     1       1.523   1.752  -0.442  0.00  0.00    +0.157 HD
BRANCH  19  28
ATOM     28  C   UNL     1       6.207  -0.215  -0.147  0.00  0.00    +0.176 C 
BRANCH  28  29
ATOM     29  C   UNL     1       6.472   0.492  -1.451  0.00  0.00    +0.313 C 
ATOM     30  O   UNL     1       5.571   0.668  -2.237  0.00  0.00    -0.250 OA
BRANCH  29  31
ATOM     31  O   UNL     1       7.708   0.928  -1.740  0.00  0.00    -0.465 OA
BRANCH  31  33
ATOM     32  C   UNL     1       9.353   2.021  -3.165  0.00  0.00    +0.048 C 
ATOM     33  C   UNL     1       7.889   1.601  -3.014  0.00  0.00    +0.229 C 
ENDBRANCH  31  33
ENDBRANCH  29  31
ENDBRANCH  28  29
ENDBRANCH  19  28
ENDBRANCH  18  25
ENDBRANCH   1  18
TORSDOF 7
