REMARK  Name = ZINC00844166
REMARK  13 active torsions:
REMARK  status: ('A' for Active; 'I' for Inactive)
REMARK    1  A    between atoms: C_1  and  C_2
REMARK    2  A    between atoms: C_2  and  O_3
REMARK    3  A    between atoms: O_3  and  C_4
REMARK    4  A    between atoms: C_6  and  C_12
REMARK    5  A    between atoms: C_9  and  O_10
REMARK    6  A    between atoms: C_17  and  C_21
REMARK    7  A    between atoms: C_17  and  C_22
REMARK    8  A    between atoms: C_24  and  C_32
REMARK    9  A    between atoms: C_25  and  C_26
REMARK   10  A    between atoms: C_26  and  O_28
REMARK   11  A    between atoms: O_28  and  C_29
REMARK   12  A    between atoms: C_29  and  C_30
REMARK   13  A    between atoms: C_29  and  C_31
REMARK                            x       y       z     vdW  Elec       q    Type
REMARK                         _______ _______ _______ _____ _____    ______ ____
ROOT
ATOM      1  C   UNL     1       2.480   1.042   0.112  0.00  0.00    +0.092 C 
ATOM      2  C   UNL     1       2.589   0.309  -1.202  0.00  0.00    +0.024 C 
ATOM      3  C   UNL     1       2.393  -1.023  -1.267  0.00  0.00    +0.016 C 
ATOM      4  C   UNL     1       2.506  -1.763  -2.577  0.00  0.00    +0.058 C 
ATOM      5  C   UNL     1       2.096  -0.842  -3.724  0.00  0.00    -0.023 C 
ATOM      6  C   UNL     1       3.003   0.393  -3.702  0.00  0.00    +0.086 C 
ATOM      7  C   UNL     1       2.897   1.053  -2.354  0.00  0.00    +0.162 C 
ATOM      8  O   UNL     1       3.081   2.251  -2.260  0.00  0.00    -0.292 OA
ATOM      9  C   UNL     1       0.639  -0.413  -3.545  0.00  0.00    +0.011 C 
ATOM     10  C   UNL     1       2.257  -1.573  -5.059  0.00  0.00    +0.011 C 
ATOM     11  N   UNL     1       2.090  -1.737  -0.138  0.00  0.00    -0.321 N 
ATOM     12  C   UNL     1       2.366  -1.229   1.101  0.00  0.00    +0.016 C 
ATOM     13  C   UNL     1       2.563   0.090   1.268  0.00  0.00    +0.065 C 
ATOM     14  C   UNL     1       2.449  -2.155   2.287  0.00  0.00    +0.061 C 
ATOM     15  H   UNL     1       1.621  -2.728  -0.224  0.00  0.00    +0.152 HD
ENDROOT
BRANCH   1  18
ATOM     16  C   UNL     1      -0.075   3.817   0.338  0.00  0.00    +0.163 A 
ATOM     17  C   UNL     1       1.137   3.146   0.289  0.00  0.00    +0.054 A 
ATOM     18  C   UNL     1       1.161   1.770   0.164  0.00  0.00    -0.030 A 
ATOM     19  C   UNL     1      -0.022   1.058   0.088  0.00  0.00    +0.023 A 
ATOM     20  C   UNL     1      -1.235   1.722   0.131  0.00  0.00    +0.063 A 
ATOM     21  C   UNL     1      -1.266   3.102   0.262  0.00  0.00    +0.173 A 
ATOM     22 BR   UNL     1      -2.851   0.746   0.019  0.00  0.00    -0.046 Br
BRANCH  21  23
ATOM     23  O   UNL     1      -2.458   3.755   0.309  0.00  0.00    -0.503 OA
ATOM     24  H   UNL     1      -3.399   3.189   0.249  0.00  0.00    +0.292 HD
ENDBRANCH  21  23
BRANCH  16  25
ATOM     25  O   UNL     1      -0.100   5.171   0.461  0.00  0.00    -0.489 OA
BRANCH  25  27
ATOM     26  C   UNL     1       0.933   7.346   0.668  0.00  0.00    +0.048 C 
ATOM     27  C   UNL     1       1.161   5.839   0.534  0.00  0.00    +0.226 C 
ENDBRANCH  25  27
ENDBRANCH  16  25
ENDBRANCH   1  18
BRANCH  13  28
ATOM     28  C   UNL     1       2.856   0.589   2.558  0.00  0.00    +0.338 C 
ATOM     29  O   UNL     1       2.822  -0.155   3.521  0.00  0.00    -0.245 OA
BRANCH  28  30
ATOM     30  O   UNL     1       3.172   1.891   2.723  0.00  0.00    -0.459 OA
BRANCH  30  31
ATOM     31  C   UNL     1       3.456   2.327   4.053  0.00  0.00    +0.171 C 
ATOM     32  C   UNL     1       4.952   2.168   4.334  0.00  0.00    +0.052 C 
ATOM     33  C   UNL     1       3.063   3.798   4.203  0.00  0.00    +0.052 C 
ENDBRANCH  30  31
ENDBRANCH  28  30
ENDBRANCH  13  28
TORSDOF 7
