REMARK  Name = ZINC64590532
REMARK  7 active torsions:
REMARK  status: ('A' for Active; 'I' for Inactive)
REMARK    1  A    between atoms: C_4  and  N_18
REMARK    2  A    between atoms: C_5  and  C_7
REMARK    3  A    between atoms: C_7  and  C_8
REMARK    4  A    between atoms: C_8  and  C_9
REMARK    5  A    between atoms: C_19  and  C_21
REMARK    6  A    between atoms: N_26  and  S_28
REMARK    7  A    between atoms: S_28  and  N_31
REMARK                            x       y       z     vdW  Elec       q    Type
REMARK                         _______ _______ _______ _____ _____    ______ ____
ROOT
ATOM      1  C   UNL     1      -0.015   1.381   0.042  0.00  0.00    +0.000 A 
ATOM      2  C   UNL     1       1.104   1.946   0.627  0.00  0.00    +0.002 A 
ATOM      3  C   UNL     1       2.311   1.275   0.602  0.00  0.00    +0.023 A 
ATOM      4  C   UNL     1       2.400   0.031  -0.011  0.00  0.00    +0.037 A 
ATOM      5  C   UNL     1       1.275  -0.533  -0.597  0.00  0.00    -0.026 A 
ATOM      6  C   UNL     1       0.071   0.144  -0.569  0.00  0.00    +0.005 A 
ENDROOT
BRANCH   4   7
ATOM      7  N   UNL     1       3.622  -0.651  -0.037  0.00  0.00    -0.285 N 
ATOM      8  C   UNL     1       4.775   0.037  -0.147  0.00  0.00    +0.222 C 
ATOM      9  O   UNL     1       4.761   1.250  -0.141  0.00  0.00    -0.275 OA
ATOM     10  H   UNL     1       3.638  -1.619   0.023  0.00  0.00    +0.155 HD
BRANCH   8  11
ATOM     11  C   UNL     1       6.083  -0.701  -0.278  0.00  0.00    +0.091 C 
ATOM     12  C   UNL     1       6.053  -1.573  -1.535  0.00  0.00    +0.015 C 
ATOM     13  C   UNL     1       7.368  -2.348  -1.652  0.00  0.00    +0.018 C 
ATOM     14  C   UNL     1       8.530  -1.358  -1.778  0.00  0.00    +0.110 C 
ATOM     15  N   UNL     1       8.479  -0.422  -0.646  0.00  0.00    -0.166 NA
ATOM     16  C   UNL     1       7.231   0.308  -0.388  0.00  0.00    +0.123 C 
BRANCH  15  17
ATOM     17  S   UNL     1       9.804  -0.196   0.322  0.00  0.00    +0.100 S 
ATOM     18  O   UNL     1       9.318   0.273   1.572  0.00  0.00    -0.141 OA
ATOM     19  O   UNL     1      10.598  -1.368   0.204  0.00  0.00    -0.141 OA
BRANCH  17  20
ATOM     20  N   UNL     1      10.685   1.042  -0.338  0.00  0.00    -0.166 NA
ATOM     21  C   UNL     1      11.751   0.895  -1.339  0.00  0.00    +0.110 C 
ATOM     22  C   UNL     1      12.300   2.307  -1.634  0.00  0.00    +0.018 C 
ATOM     23  C   UNL     1      11.900   3.107  -0.366  0.00  0.00    +0.018 C 
ATOM     24  C   UNL     1      10.527   2.473  -0.021  0.00  0.00    +0.110 C 
ENDBRANCH  17  20
ENDBRANCH  15  17
ENDBRANCH   8  11
ENDBRANCH   4   7
BRANCH   5  25
ATOM     25  C   UNL     1       1.367  -1.881  -1.263  0.00  0.00    +0.041 C 
BRANCH  25  26
ATOM     26  C   UNL     1       1.192  -2.981  -0.214  0.00  0.00    +0.051 C 
BRANCH  26  27
ATOM     27  C   UNL     1       1.286  -4.351  -0.891  0.00  0.00    +0.174 C 
ATOM     28  N   UNL     1       0.192  -4.511  -1.857  0.00  0.00    -0.363 N 
ATOM     29  C   UNL     1      -0.518  -5.534  -1.477  0.00  0.00    +0.060 A 
ATOM     30  C   UNL     1      -1.719  -6.176  -2.028  0.00  0.00    +0.027 A 
ATOM     31  C   UNL     1      -2.247  -7.248  -1.402  0.00  0.00    +0.002 A 
ATOM     32  C   UNL     1      -1.693  -7.789  -0.229  0.00  0.00    +0.002 A 
ATOM     33  C   UNL     1      -0.593  -7.277   0.359  0.00  0.00    +0.027 A 
ATOM     34  C   UNL     1       0.069  -6.107  -0.235  0.00  0.00    +0.060 A 
ATOM     35  N   UNL     1       1.119  -5.417   0.105  0.00  0.00    -0.363 N 
ATOM     36  H   UNL     1       0.028  -3.957  -2.636  0.00  0.00    +0.162 HD
ATOM     37  H   UNL     1       1.687  -5.578   0.875  0.00  0.00    +0.162 HD
ENDBRANCH  26  27
ENDBRANCH  25  26
ENDBRANCH   5  25
TORSDOF 7
