REMARK  Name = ZINC39623300
REMARK  7 active torsions:
REMARK  status: ('A' for Active; 'I' for Inactive)
REMARK    1  A    between atoms: C_1  and  C_2
REMARK    2  A    between atoms: C_2  and  C_3
REMARK    3  A    between atoms: C_3  and  C_4
REMARK    4  A    between atoms: C_4  and  C_5
REMARK    5  A    between atoms: C_5  and  N_6
REMARK    6  A    between atoms: C_7  and  C_9
REMARK    7  A    between atoms: C_20  and  C_22
REMARK                            x       y       z     vdW  Elec       q    Type
REMARK                         _______ _______ _______ _____ _____    ______ ____
ROOT
ATOM      1  C   UNL     1       1.702  -5.852   3.879  0.00  0.00    +0.100 C 
ATOM      2  C   UNL     1       0.386  -6.660   3.849  0.00  0.00    +0.121 C 
ATOM      3  N   UNL     1       0.668  -7.866   4.663  0.00  0.00    -0.296 N 
ATOM      4  C   UNL     1       1.487  -7.364   5.793  0.00  0.00    +0.115 C 
ATOM      5  C   UNL     1       2.422  -6.316   5.156  0.00  0.00    -0.004 C 
ATOM      6  C   UNL     1       3.764  -6.950   4.805  0.00  0.00    -0.010 C 
ATOM      7  C   UNL     1       4.486  -7.352   6.095  0.00  0.00    -0.082 C 
ATOM      8  N   UNL     1       4.687  -6.166   6.935  0.00  0.00    +0.379 N 
ATOM      9  C   UNL     1       3.389  -5.616   7.345  0.00  0.00    -0.082 C 
ATOM     10  C   UNL     1       2.621  -5.141   6.109  0.00  0.00    -0.010 C 
ATOM     11  C   UNL     1       0.270  -9.132   4.430  0.00  0.00    +0.247 C 
ATOM     12  O   UNL     1      -0.293  -9.410   3.389  0.00  0.00    -0.270 OA
ATOM     13  H   UNL     1       5.216  -6.422   7.755  0.00  0.00    -0.086 HD
ATOM     14  H   UNL     1       5.197  -5.468   6.414  0.00  0.00    -0.086 HD
ENDROOT
BRANCH  11  15
ATOM     15  C   UNL     1       0.518 -10.182   5.440  0.00  0.00    +0.038 A 
ATOM     16  C   UNL     1       0.752  -9.833   6.771  0.00  0.00    +0.014 A 
ATOM     17  C   UNL     1       0.982 -10.817   7.709  0.00  0.00    +0.022 A 
ATOM     18  C   UNL     1       0.983 -12.150   7.333  0.00  0.00    +0.059 A 
ATOM     19  C   UNL     1       0.751 -12.504   6.014  0.00  0.00    +0.060 A 
ATOM     20  C   UNL     1       0.513 -11.528   5.067  0.00  0.00    +0.034 A 
ATOM     21 CL   UNL     1       0.753 -14.177   5.551  0.00  0.00    -0.082 Cl
ATOM     22 CL   UNL     1       1.275 -13.383   8.520  0.00  0.00    -0.082 Cl
ENDBRANCH  11  15
BRANCH   1  24
ATOM     23  N   UNL     1       2.266  -3.491   3.401  0.00  0.00    -0.315 N 
ATOM     24  C   UNL     1       1.409  -4.375   3.950  0.00  0.00    +0.218 C 
ATOM     25  O   UNL     1       0.402  -3.982   4.500  0.00  0.00    -0.275 OA
ATOM     26  H   UNL     1       3.071  -3.805   2.962  0.00  0.00    +0.149 HD
BRANCH  23  27
ATOM     27  C   UNL     1       1.982  -2.056   3.470  0.00  0.00    +0.104 C 
BRANCH  27  28
ATOM     28  C   UNL     1       3.104  -1.280   2.777  0.00  0.00    +0.019 C 
BRANCH  28  29
ATOM     29  C   UNL     1       2.806   0.219   2.848  0.00  0.00    +0.001 C 
BRANCH  29  31
ATOM     30  C   UNL     1       3.631   2.494   2.227  0.00  0.00    +0.004 C 
ATOM     31  C   UNL     1       3.928   0.995   2.156  0.00  0.00    -0.003 C 
ENDBRANCH  29  31
ENDBRANCH  28  29
ENDBRANCH  27  28
ENDBRANCH  23  27
ENDBRANCH   1  24
TORSDOF 6
