REMARK  Name = ZINC14847389
REMARK  7 active torsions:
REMARK  status: ('A' for Active; 'I' for Inactive)
REMARK    1  A    between atoms: C_4  and  N_7
REMARK    2  A    between atoms: C_8  and  C_10
REMARK    3  A    between atoms: C_10  and  N_61
REMARK    4  A    between atoms: C_13  and  N_16
REMARK    5  A    between atoms: C_17  and  C_19
REMARK    6  A    between atoms: N_24  and  C_26
REMARK    7  A    between atoms: C_26  and  C_27
REMARK                            x       y       z     vdW  Elec       q    Type
REMARK                         _______ _______ _______ _____ _____    ______ ____
ROOT
ATOM      1  N   UNL     1      -2.101  -0.323   0.494  0.00  0.00    -0.309 N 
ATOM      2  C   UNL     1      -2.301  -1.546  -0.037  0.00  0.00    +0.246 C 
ATOM      3  O   UNL     1      -1.352  -2.221  -0.385  0.00  0.00    -0.270 OA
ATOM      4  H   UNL     1      -2.859   0.215   0.771  0.00  0.00    +0.149 HD
ENDROOT
BRANCH   1   7
ATOM      5  C   UNL     1       0.647   2.256   0.887  0.00  0.00    -0.076 C 
ATOM      6  C   UNL     1      -0.770   1.724   0.662  0.00  0.00    +0.004 C 
ATOM      7  C   UNL     1      -0.739   0.193   0.651  0.00  0.00    +0.070 C 
ATOM      8  C   UNL     1      -0.152  -0.307   1.974  0.00  0.00    +0.004 C 
ATOM      9  C   UNL     1       1.247   0.284   2.161  0.00  0.00    -0.076 C 
ATOM     10  N   UNL     1       1.146   1.758   2.187  0.00  0.00    +0.386 N 
ATOM     11  H   UNL     1       0.486   2.034   2.924  0.00  0.00    -0.081 HD
BRANCH  10  12
ATOM     12  C   UNL     1       2.467   2.350   2.481  0.00  0.00    +0.019 C 
BRANCH  12  14
ATOM     13  N   UNL     1       3.363   4.590   3.025  0.00  0.00    -0.287 N 
ATOM     14  C   UNL     1       2.295   3.828   2.718  0.00  0.00    +0.201 C 
ATOM     15  O   UNL     1       1.195   4.332   2.632  0.00  0.00    -0.278 OA
ATOM     16  H   UNL     1       4.229   4.177   3.168  0.00  0.00    +0.155 HD
BRANCH  13  20
ATOM     17  C   UNL     1       2.947   8.722   3.361  0.00  0.00    +0.000 A 
ATOM     18  C   UNL     1       1.921   7.890   3.771  0.00  0.00    +0.002 A 
ATOM     19  C   UNL     1       2.056   6.519   3.661  0.00  0.00    +0.023 A 
ATOM     20  C   UNL     1       3.224   5.978   3.138  0.00  0.00    +0.033 A 
ATOM     21  C   UNL     1       4.254   6.816   2.733  0.00  0.00    +0.023 A 
ATOM     22  C   UNL     1       4.111   8.186   2.841  0.00  0.00    +0.002 A 
ENDBRANCH  13  20
ENDBRANCH  12  14
ENDBRANCH  10  12
ENDBRANCH   1   7
BRANCH   2  23
ATOM     23  C   UNL     1      -3.672  -2.065  -0.195  0.00  0.00    +0.053 A 
ATOM     24  C   UNL     1      -4.782  -1.284   0.208  0.00  0.00    +0.020 A 
ATOM     25  C   UNL     1      -6.035  -1.787   0.051  0.00  0.00    +0.071 A 
ATOM     26  C   UNL     1      -6.202  -3.069  -0.507  0.00  0.00    +0.252 A 
ATOM     27  O   UNL     1      -7.324  -3.525  -0.650  0.00  0.00    -0.268 OA
ATOM     28  N   UNL     1      -5.133  -3.794  -0.883  0.00  0.00    -0.310 N 
ATOM     29  C   UNL     1      -3.884  -3.314  -0.743  0.00  0.00    +0.102 A 
BRANCH  28  30
ATOM     30  C   UNL     1      -5.333  -5.126  -1.461  0.00  0.00    +0.161 C 
BRANCH  30  31
ATOM     31  C   UNL     1      -5.616  -4.996  -2.935  0.00  0.00    -0.009 A 
ATOM     32  C   UNL     1      -6.918  -5.048  -3.397  0.00  0.00    +0.007 A 
ATOM     33  C   UNL     1      -7.178  -4.929  -4.749  0.00  0.00    +0.000 A 
ATOM     34  C   UNL     1      -6.136  -4.758  -5.641  0.00  0.00    +0.001 A 
ATOM     35  C   UNL     1      -4.834  -4.706  -5.181  0.00  0.00    +0.020 A 
ATOM     36  C   UNL     1      -4.574  -4.820  -3.827  0.00  0.00    +0.046 A 
ATOM     37 CL   UNL     1      -2.939  -4.747  -3.248  0.00  0.00    -0.083 Cl
ENDBRANCH  30  31
ENDBRANCH  28  30
ENDBRANCH   2  23
TORSDOF 7
