REMARK  Name = ZINC11202293
REMARK  8 active torsions:
REMARK  status: ('A' for Active; 'I' for Inactive)
REMARK    1  A    between atoms: C_1  and  C_2
REMARK    2  A    between atoms: C_8  and  C_10
REMARK    3  A    between atoms: C_11  and  C_30
REMARK    4  A    between atoms: N_12  and  C_26
REMARK    5  A    between atoms: C_16  and  C_18
REMARK    6  A    between atoms: C_26  and  C_27
REMARK    7  A    between atoms: C_27  and  O_28
REMARK    8  A    between atoms: O_28  and  C_29
REMARK                            x       y       z     vdW  Elec       q    Type
REMARK                         _______ _______ _______ _____ _____    ______ ____
ROOT
ATOM      1  C   UNL     1      -1.323   3.380   0.182  0.00  0.00    +0.056 C 
ATOM      2  C   UNL     1      -1.233   2.042   0.029  0.00  0.00    +0.022 C 
ATOM      3  N   UNL     1      -0.062   1.452  -0.356  0.00  0.00    -0.257 N 
ATOM      4  C   UNL     1       1.061   2.134  -0.617  0.00  0.00    +0.307 C 
ATOM      5  O   UNL     1       2.054   1.522  -0.959  0.00  0.00    -0.252 OA
ATOM      6  N   UNL     1       1.126   3.476  -0.513  0.00  0.00    -0.288 N 
ATOM      7  C   UNL     1      -0.084   4.206  -0.099  0.00  0.00    +0.144 C 
ATOM      8  C   UNL     1      -2.443   1.183   0.292  0.00  0.00    +0.061 C 
ATOM      9  H   UNL     1       1.950   3.949  -0.707  0.00  0.00    +0.151 HD
ENDROOT
BRANCH   1  17
ATOM     10  C   UNL     1      -6.981   6.745   2.189  0.00  0.00    +0.089 C 
ATOM     11  C   UNL     1      -6.211   5.942   1.173  0.00  0.00    +0.136 A 
ATOM     12  C   UNL     1      -4.966   5.433   1.318  0.00  0.00    +0.091 A 
ATOM     13  C   UNL     1      -4.719   4.775   0.084  0.00  0.00    +0.168 A 
ATOM     14  N   UNL     1      -5.789   4.952  -0.645  0.00  0.00    -0.063 NA
ATOM     15  O   UNL     1      -6.627   5.592  -0.053  0.00  0.00    -0.358 OA
ATOM     16  N   UNL     1      -3.564   4.083  -0.278  0.00  0.00    -0.264 N 
ATOM     17  C   UNL     1      -2.534   3.991   0.586  0.00  0.00    +0.249 C 
ATOM     18  O   UNL     1      -2.646   4.433   1.715  0.00  0.00    -0.270 OA
ATOM     19  H   UNL     1      -3.502   3.668  -1.153  0.00  0.00    +0.157 HD
ENDBRANCH   1  17
BRANCH   7  20
ATOM     20  C   UNL     1      -0.423   5.196  -1.183  0.00  0.00    +0.013 A 
ATOM     21  C   UNL     1      -0.045   4.947  -2.490  0.00  0.00    +0.011 A 
ATOM     22  C   UNL     1      -0.360   5.852  -3.486  0.00  0.00    +0.039 A 
ATOM     23  C   UNL     1      -1.044   7.014  -3.174  0.00  0.00    +0.126 A 
ATOM     24  C   UNL     1      -1.419   7.268  -1.866  0.00  0.00    +0.077 A 
ATOM     25  C   UNL     1      -1.108   6.358  -0.870  0.00  0.00    +0.131 A 
ATOM     26  F   UNL     1      -1.472   6.604   0.407  0.00  0.00    -0.205 F 
ATOM     27  F   UNL     1      -1.348   7.901  -4.148  0.00  0.00    -0.205 F 
ENDBRANCH   7  20
BRANCH   3  28
ATOM     28  C   UNL     1      -0.035  -0.005  -0.497  0.00  0.00    +0.143 C 
BRANCH  28  29
ATOM     29  C   UNL     1      -0.571  -0.394  -1.877  0.00  0.00    +0.179 C 
BRANCH  29  30
ATOM     30  O   UNL     1       0.311   0.100  -2.887  0.00  0.00    -0.381 OA
ATOM     31  C   UNL     1      -0.100  -0.211  -4.220  0.00  0.00    +0.194 C 
ENDBRANCH  29  30
ENDBRANCH  28  29
ENDBRANCH   3  28
TORSDOF 5
