REMARK  Name = ZINC35288407
REMARK  6 active torsions:
REMARK  status: ('A' for Active; 'I' for Inactive)
REMARK    1  A    between atoms: C_2  and  C_3
REMARK    2  A    between atoms: C_3  and  O_4
REMARK    3  A    between atoms: O_4  and  C_5
REMARK    4  A    between atoms: C_8  and  C_11
REMARK    5  A    between atoms: C_14  and  C_18
REMARK    6  A    between atoms: C_18  and  C_19
REMARK                            x       y       z     vdW  Elec       q    Type
REMARK                         _______ _______ _______ _____ _____    ______ ____
ROOT
ATOM      1  C   UNL     1      -5.736  -5.118  -1.443  0.00  0.00    +0.145 A 
ATOM      2  N   UNL     1      -5.718  -6.148  -2.337  0.00  0.00    -0.307 N 
ATOM      3  C   UNL     1      -6.797  -6.948  -2.467  0.00  0.00    +0.259 A 
ATOM      4  C   UNL     1      -7.924  -6.698  -1.672  0.00  0.00    +0.087 A 
ATOM      5  C   UNL     1      -7.889  -5.640  -0.781  0.00  0.00    +0.281 A 
ATOM      6  N   UNL     1      -6.790  -4.883  -0.691  0.00  0.00    -0.191 NA
ATOM      7  O   UNL     1      -8.962  -5.374  -0.001  0.00  0.00    -0.265 OA
ATOM      8  O   UNL     1      -6.792  -7.873  -3.264  0.00  0.00    -0.267 OA
ATOM      9  H   UNL     1      -4.929  -6.306  -2.878  0.00  0.00    +0.170 HD
ENDROOT
BRANCH   1  13
ATOM     10  C   UNL     1      -2.317  -2.628  -1.068  0.00  0.00    +0.121 A 
ATOM     11  C   UNL     1      -3.436  -2.391  -0.280  0.00  0.00    +0.046 A 
ATOM     12  C   UNL     1      -4.547  -3.196  -0.399  0.00  0.00    +0.015 A 
ATOM     13  C   UNL     1      -4.548  -4.253  -1.313  0.00  0.00    +0.018 A 
ATOM     14  C   UNL     1      -3.420  -4.488  -2.104  0.00  0.00    +0.015 A 
ATOM     15  C   UNL     1      -2.315  -3.675  -1.983  0.00  0.00    +0.046 A 
BRANCH  10  16
ATOM     16  O   UNL     1      -1.224  -1.832  -0.949  0.00  0.00    -0.488 OA
BRANCH  16  17
ATOM     17  C   UNL     1      -1.293  -0.775   0.010  0.00  0.00    +0.256 C 
BRANCH  17  19
ATOM     18  C   UNL     1      -0.016   1.306   0.009  0.00  0.00    +0.007 C 
ATOM     19  C   UNL     1       0.002  -0.004   0.002  0.00  0.00    +0.006 C 
ENDBRANCH  17  19
ENDBRANCH  16  17
ENDBRANCH  10  16
ENDBRANCH   1  13
BRANCH   4  20
ATOM     20  C   UNL     1      -9.151  -7.566  -1.785  0.00  0.00    +0.081 C 
BRANCH  20  21
ATOM     21  C   UNL     1     -10.020  -7.063  -2.910  0.00  0.00    -0.043 A 
ATOM     22  C   UNL     1     -10.991  -6.112  -2.661  0.00  0.00    +0.005 A 
ATOM     23  C   UNL     1     -11.787  -5.651  -3.692  0.00  0.00    +0.015 A 
ATOM     24  C   UNL     1     -11.612  -6.141  -4.973  0.00  0.00    +0.018 A 
ATOM     25  C   UNL     1     -10.640  -7.093  -5.222  0.00  0.00    +0.015 A 
ATOM     26  C   UNL     1      -9.840  -7.550  -4.191  0.00  0.00    +0.005 A 
ATOM     27 BR   UNL     1     -12.701  -5.511  -6.385  0.00  0.00    -0.050 Br
ENDBRANCH  20  21
ENDBRANCH   4  20
TORSDOF 6
