REMARK  Name = ZINC04816412
REMARK  10 active torsions:
REMARK  status: ('A' for Active; 'I' for Inactive)
REMARK    1  A    between atoms: C_1  and  C_2
REMARK    2  A    between atoms: C_5  and  C_28
REMARK    3  A    between atoms: C_6  and  N_8
REMARK    4  A    between atoms: C_9  and  C_11
REMARK    5  A    between atoms: C_11  and  S_12
REMARK    6  A    between atoms: S_12  and  C_13
REMARK    7  A    between atoms: C_16  and  C_19
REMARK    8  A    between atoms: N_17  and  C_18
REMARK    9  A    between atoms: C_19  and  N_20
REMARK   10  A    between atoms: C_21  and  C_23
REMARK                            x       y       z     vdW  Elec       q    Type
REMARK                         _______ _______ _______ _____ _____    ______ ____
ROOT
ATOM      1  C   UNL     1       0.537  -2.770   7.657  0.00  0.00    +0.192 A 
ATOM      2  N   UNL     1       0.562  -4.083   7.665  0.00  0.00    -0.122 NA
ATOM      3  N   UNL     1       0.677  -4.509   8.872  0.00  0.00    -0.132 NA
ATOM      4  C   UNL     1       0.732  -3.503   9.699  0.00  0.00    +0.151 A 
ATOM      5  N   UNL     1       0.650  -2.360   8.954  0.00  0.00    -0.308 N 
ATOM      6  C   UNL     1       0.676  -0.980   9.446  0.00  0.00    +0.152 C 
ENDROOT
BRANCH   1   7
ATOM      7  S   UNL     1       0.391  -1.734   6.239  0.00  0.00    -0.077 S 
BRANCH   7   8
ATOM      8  C   UNL     1       0.280  -2.900   4.854  0.00  0.00    +0.173 C 
BRANCH   8  10
ATOM      9  N   UNL     1       0.052  -2.797   2.393  0.00  0.00    -0.285 N 
ATOM     10  C   UNL     1       0.150  -2.135   3.562  0.00  0.00    +0.227 C 
ATOM     11  O   UNL     1       0.134  -0.922   3.575  0.00  0.00    -0.275 OA
ATOM     12  H   UNL     1      -0.016  -3.765   2.388  0.00  0.00    +0.155 HD
BRANCH   9  18
ATOM     13  C   UNL     1       1.264   1.227  -0.158  0.00  0.00    +0.044 C 
ATOM     14  C   UNL     1       0.628  -0.137  -0.079  0.00  0.00    -0.049 A 
ATOM     15  C   UNL     1       0.039  -0.690  -1.201  0.00  0.00    +0.004 A 
ATOM     16  C   UNL     1      -0.546  -1.941  -1.133  0.00  0.00    +0.005 A 
ATOM     17  C   UNL     1      -0.543  -2.643   0.057  0.00  0.00    -0.029 A 
ATOM     18  C   UNL     1       0.048  -2.090   1.185  0.00  0.00    +0.037 A 
ATOM     19  C   UNL     1       0.639  -0.835   1.112  0.00  0.00    +0.027 A 
ATOM     20  C   UNL     1      -1.181  -4.006   0.131  0.00  0.00    +0.045 C 
ENDBRANCH   9  18
ENDBRANCH   8  10
ENDBRANCH   7   8
ENDBRANCH   1   7
BRANCH   4  21
ATOM     21  C   UNL     1       0.867  -3.586  11.198  0.00  0.00    +0.181 C 
BRANCH  21  22
ATOM     22  N   UNL     1       2.286  -3.586  11.561  0.00  0.00    -0.302 N 
ATOM     23  C   UNL     1       2.650  -3.653  12.857  0.00  0.00    +0.280 C 
ATOM     24  O   UNL     1       1.799  -3.714  13.726  0.00  0.00    -0.267 OA
ATOM     25  H   UNL     1       2.964  -3.537  10.869  0.00  0.00    +0.150 HD
BRANCH  23  26
ATOM     26  C   UNL     1       4.070  -3.653  13.221  0.00  0.00    +0.189 A 
ATOM     27  C   UNL     1       4.574  -3.723  14.488  0.00  0.00    +0.054 A 
ATOM     28  C   UNL     1       5.972  -3.695  14.369  0.00  0.00    +0.042 A 
ATOM     29  C   UNL     1       6.257  -3.611  13.050  0.00  0.00    +0.196 A 
ATOM     30  O   UNL     1       5.109  -3.591  12.362  0.00  0.00    -0.458 OA
ENDBRANCH  23  26
ENDBRANCH  21  22
ENDBRANCH   4  21
TORSDOF 7
