REMARK  Name = ZINC36534785
REMARK  7 active torsions:
REMARK  status: ('A' for Active; 'I' for Inactive)
REMARK    1  A    between atoms: C_1  and  N_2
REMARK    2  A    between atoms: N_2  and  C_3
REMARK    3  A    between atoms: C_3  and  C_5
REMARK    4  A    between atoms: C_3  and  C_12
REMARK    5  A    between atoms: C_8  and  O_11
REMARK    6  A    between atoms: N_14  and  C_15
REMARK    7  A    between atoms: C_21  and  C_23
REMARK                            x       y       z     vdW  Elec       q    Type
REMARK                         _______ _______ _______ _____ _____    ______ ____
ROOT
ATOM      1  C   UNL     1       0.178  -0.555   1.305  0.00  0.00    +0.192 C 
ENDROOT
BRANCH   1   2
ATOM      2  C   UNL     1       1.362   0.035   2.027  0.00  0.00    -0.018 A 
ATOM      3  C   UNL     1       2.353  -0.794   2.520  0.00  0.00    +0.009 A 
ATOM      4  C   UNL     1       3.438  -0.255   3.183  0.00  0.00    +0.046 A 
ATOM      5  C   UNL     1       3.534   1.118   3.354  0.00  0.00    +0.117 A 
ATOM      6  C   UNL     1       2.538   1.947   2.858  0.00  0.00    +0.046 A 
ATOM      7  C   UNL     1       1.457   1.404   2.192  0.00  0.00    +0.009 A 
BRANCH   5   8
ATOM      8  O   UNL     1       4.601   1.651   4.007  0.00  0.00    -0.507 OA
ATOM      9  H   UNL     1       5.345   1.869   3.430  0.00  0.00    +0.292 HD
ENDBRANCH   5   8
ENDBRANCH   1   2
BRANCH   1  11
ATOM     10  C   UNL     1      -0.030   1.507  -0.159  0.00  0.00    +0.133 C 
ATOM     11  N   UNL     1       0.065   0.051  -0.024  0.00  0.00    -0.285 N 
ATOM     12  C   UNL     1       0.048  -0.730  -1.122  0.00  0.00    +0.247 C 
ATOM     13  O   UNL     1       0.016  -1.940  -1.007  0.00  0.00    -0.270 OA
BRANCH  12  14
ATOM     14  C   UNL     1       0.070  -0.115  -2.466  0.00  0.00    +0.037 A 
ATOM     15  C   UNL     1       0.796   1.055  -2.691  0.00  0.00    +0.013 A 
ATOM     16  C   UNL     1       0.813   1.623  -3.948  0.00  0.00    +0.001 A 
ATOM     17  C   UNL     1       0.110   1.035  -4.985  0.00  0.00    +0.000 A 
ATOM     18  C   UNL     1      -0.613  -0.125  -4.769  0.00  0.00    +0.001 A 
ATOM     19  C   UNL     1      -0.632  -0.706  -3.518  0.00  0.00    +0.013 A 
ENDBRANCH  12  14
ENDBRANCH   1  11
BRANCH   1  20
ATOM     20  C   UNL     1      -1.078  -0.281   2.091  0.00  0.00    +0.238 C 
ATOM     21  O   UNL     1      -1.979   0.358   1.591  0.00  0.00    -0.273 OA
ATOM     22  N   UNL     1      -1.200  -0.747   3.350  0.00  0.00    -0.311 N 
ATOM     23  H   UNL     1      -0.479  -1.258   3.750  0.00  0.00    +0.149 HD
BRANCH  22  24
ATOM     24  C   UNL     1      -2.421  -0.480   4.114  0.00  0.00    +0.073 C 
ATOM     25  C   UNL     1      -2.313   0.890   4.787  0.00  0.00    +0.022 C 
ATOM     26  C   UNL     1      -3.589   1.168   5.585  0.00  0.00    +0.002 C 
ATOM     27  C   UNL     1      -3.768   0.087   6.654  0.00  0.00    +0.000 C 
ATOM     28  C   UNL     1      -3.876  -1.282   5.981  0.00  0.00    +0.002 C 
ATOM     29  C   UNL     1      -2.600  -1.561   5.183  0.00  0.00    +0.022 C 
ENDBRANCH  22  24
ENDBRANCH   1  20
TORSDOF 6
