REMARK  Name = ZINC64636391
REMARK  9 active torsions:
REMARK  status: ('A' for Active; 'I' for Inactive)
REMARK    1  A    between atoms: C_1  and  O_2
REMARK    2  A    between atoms: O_2  and  C_3
REMARK    3  A    between atoms: C_3  and  C_5
REMARK    4  A    between atoms: C_8  and  N_20
REMARK    5  A    between atoms: N_11  and  C_12
REMARK    6  A    between atoms: C_12  and  C_13
REMARK    7  A    between atoms: C_16  and  O_19
REMARK    8  A    between atoms: C_21  and  C_23
REMARK    9  A    between atoms: C_25  and  C_34
REMARK                            x       y       z     vdW  Elec       q    Type
REMARK                         _______ _______ _______ _____ _____    ______ ____
ROOT
ATOM      1  N   UNL     1       3.341  -4.479  -0.647  0.00  0.00    -0.309 N 
ATOM      2  C   UNL     1       4.170  -5.540  -0.598  0.00  0.00    +0.240 C 
ATOM      3  O   UNL     1       4.077  -6.421  -1.426  0.00  0.00    -0.273 OA
ATOM      4  H   UNL     1       3.366  -3.810   0.056  0.00  0.00    +0.149 HD
ENDROOT
BRANCH   2   5
ATOM      5  C   UNL     1       5.213  -5.632   0.486  0.00  0.00    +0.198 C 
ATOM      6  C   UNL     1       6.495  -4.969   0.033  0.00  0.00    -0.000 C 
ATOM      7  C   UNL     1       7.457  -5.964   0.050  0.00  0.00    +0.006 A 
ATOM      8  C   UNL     1       8.837  -5.965  -0.268  0.00  0.00    +0.030 A 
ATOM      9  C   UNL     1       9.550  -7.113  -0.158  0.00  0.00    +0.042 A 
ATOM     10  C   UNL     1       8.957  -8.310   0.265  0.00  0.00    +0.022 A 
ATOM     11  C   UNL     1       7.644  -8.383   0.584  0.00  0.00    +0.027 A 
ATOM     12  C   UNL     1       6.828  -7.223   0.495  0.00  0.00    +0.044 A 
ATOM     13  N   UNL     1       5.550  -7.035   0.744  0.00  0.00    -0.370 N 
ATOM     14 CL   UNL     1      11.241  -7.100  -0.550  0.00  0.00    -0.084 Cl
ATOM     15  H   UNL     1       4.930  -7.715   1.050  0.00  0.00    +0.161 HD
BRANCH   6  16
ATOM     16  C   UNL     1       6.680  -3.566  -0.344  0.00  0.00    -0.019 A 
ATOM     17  C   UNL     1       7.224  -3.238  -1.594  0.00  0.00    +0.008 A 
ATOM     18  C   UNL     1       7.394  -1.915  -1.941  0.00  0.00    +0.001 A 
ATOM     19  C   UNL     1       7.029  -0.912  -1.060  0.00  0.00    +0.000 A 
ATOM     20  C   UNL     1       6.490  -1.226   0.177  0.00  0.00    +0.001 A 
ATOM     21  C   UNL     1       6.308  -2.543   0.539  0.00  0.00    +0.008 A 
ENDBRANCH   6  16
ENDBRANCH   2   5
BRANCH   1  24
ATOM     22  C   UNL     1       0.703  -2.878  -2.691  0.00  0.00    +0.168 C 
ATOM     23  C   UNL     1       1.177  -3.475  -1.349  0.00  0.00    +0.054 C 
ATOM     24  C   UNL     1       2.401  -4.334  -1.762  0.00  0.00    +0.089 C 
ATOM     25  C   UNL     1       3.015  -3.479  -2.898  0.00  0.00    +0.107 C 
ATOM     26  N   UNL     1       1.849  -2.913  -3.618  0.00  0.00    -0.284 NA
BRANCH  22  27
ATOM     27  C   UNL     1       0.251  -1.455  -2.488  0.00  0.00    +0.324 C 
ATOM     28  O   UNL     1       0.817  -0.554  -3.059  0.00  0.00    -0.249 OA
BRANCH  27  30
ATOM     29  C   UNL     1      -1.156   0.183  -1.526  0.00  0.00    +0.280 C 
ATOM     30  O   UNL     1      -0.781  -1.188  -1.672  0.00  0.00    -0.467 OA
ENDBRANCH  27  30
ENDBRANCH  22  27
BRANCH  26  31
ATOM     31  C   UNL     1       1.533  -3.700  -4.817  0.00  0.00    +0.120 C 
BRANCH  31  32
ATOM     32  C   UNL     1       2.622  -3.513  -5.842  0.00  0.00    -0.033 A 
ATOM     33  C   UNL     1       2.531  -2.489  -6.766  0.00  0.00    +0.008 A 
ATOM     34  C   UNL     1       3.528  -2.316  -7.707  0.00  0.00    +0.046 A 
ATOM     35  C   UNL     1       4.620  -3.171  -7.724  0.00  0.00    +0.117 A 
ATOM     36  C   UNL     1       4.709  -4.197  -6.795  0.00  0.00    +0.046 A 
ATOM     37  C   UNL     1       3.712  -4.363  -5.853  0.00  0.00    +0.008 A 
BRANCH  35  38
ATOM     38  O   UNL     1       5.602  -3.003  -8.649  0.00  0.00    -0.507 OA
ATOM     39  H   UNL     1       6.315  -2.416  -8.363  0.00  0.00    +0.292 HD
ENDBRANCH  35  38
ENDBRANCH  31  32
ENDBRANCH  26  31
ENDBRANCH   1  24
TORSDOF 8
