REMARK  Name = ZINC48313131
REMARK  11 active torsions:
REMARK  status: ('A' for Active; 'I' for Inactive)
REMARK    1  A    between atoms: C_1  and  C_2
REMARK    2  A    between atoms: C_2  and  C_3
REMARK    3  A    between atoms: C_3  and  C_4
REMARK    4  A    between atoms: C_4  and  N_5
REMARK    5  A    between atoms: C_6  and  C_8
REMARK    6  A    between atoms: C_12  and  C_28
REMARK    7  A    between atoms: N_14  and  S_16
REMARK    8  A    between atoms: S_16  and  C_19
REMARK    9  A    between atoms: C_23  and  C_24
REMARK   10  A    between atoms: C_24  and  O_26
REMARK   11  A    between atoms: O_26  and  C_27
REMARK                            x       y       z     vdW  Elec       q    Type
REMARK                         _______ _______ _______ _____ _____    ______ ____
ROOT
ATOM      1  C   UNL     1      -4.329  -4.071   0.137  0.00  0.00    +0.091 C 
ATOM      2  C   UNL     1      -5.189  -3.681   1.342  0.00  0.00    +0.015 C 
ATOM      3  C   UNL     1      -4.544  -4.213   2.624  0.00  0.00    +0.021 C 
ATOM      4  C   UNL     1      -4.470  -5.742   2.557  0.00  0.00    +0.077 C 
ATOM      5  N   UNL     1      -3.770  -6.128   1.324  0.00  0.00    -0.173 NA
ATOM      6  C   UNL     1      -4.253  -5.598   0.041  0.00  0.00    +0.122 C 
ATOM      7  C   UNL     1      -3.705  -6.272   3.772  0.00  0.00    +0.026 C 
ENDROOT
BRANCH   1   9
ATOM      8  N   UNL     1      -2.764  -2.176   0.413  0.00  0.00    -0.315 N 
ATOM      9  C   UNL     1      -2.942  -3.507   0.305  0.00  0.00    +0.217 C 
ATOM     10  O   UNL     1      -1.985  -4.252   0.344  0.00  0.00    -0.275 OA
ATOM     11  H   UNL     1      -3.529  -1.580   0.383  0.00  0.00    +0.149 HD
BRANCH   8  12
ATOM     12  C   UNL     1      -1.415  -1.628   0.577  0.00  0.00    +0.104 C 
BRANCH  12  13
ATOM     13  C   UNL     1      -1.492  -0.103   0.674  0.00  0.00    +0.018 C 
BRANCH  13  15
ATOM     14  C   UNL     1      -0.161   1.994   0.942  0.00  0.00    +0.004 C 
ATOM     15  C   UNL     1      -0.084   0.469   0.845  0.00  0.00    -0.002 C 
ENDBRANCH  13  15
ENDBRANCH  12  13
ENDBRANCH   8  12
ENDBRANCH   1   9
BRANCH   5  16
ATOM     16  S   UNL     1      -2.461  -7.141   1.379  0.00  0.00    +0.062 S 
ATOM     17  O   UNL     1      -1.369  -6.424   0.820  0.00  0.00    -0.153 OA
ATOM     18  O   UNL     1      -2.423  -7.685   2.692  0.00  0.00    -0.153 OA
BRANCH  16  19
ATOM     19  C   UNL     1      -2.795  -8.483   0.288  0.00  0.00    +0.127 A 
ATOM     20  C   UNL     1      -2.029  -8.726  -0.827  0.00  0.00    +0.037 A 
ATOM     21  C   UNL     1      -2.341  -9.778  -1.625  0.00  0.00    +0.048 A 
ATOM     22  S   UNL     1      -3.683 -10.470  -0.888  0.00  0.00    -0.088 S 
ATOM     23  C   UNL     1      -3.844  -9.366   0.502  0.00  0.00    +0.122 A 
BRANCH  23  24
ATOM     24  C   UNL     1      -4.827  -9.384   1.586  0.00  0.00    +0.348 C 
ATOM     25  O   UNL     1      -4.732  -8.595   2.507  0.00  0.00    -0.244 OA
BRANCH  24  26
ATOM     26  O   UNL     1      -5.839 -10.276   1.564  0.00  0.00    -0.464 OA
ATOM     27  C   UNL     1      -6.762 -10.237   2.654  0.00  0.00    +0.280 C 
ENDBRANCH  24  26
ENDBRANCH  23  24
ENDBRANCH  16  19
ENDBRANCH   5  16
TORSDOF 8
