REMARK  Name = ZINC19629941
REMARK  10 active torsions:
REMARK  status: ('A' for Active; 'I' for Inactive)
REMARK    1  A    between atoms: C_1  and  C_2
REMARK    2  A    between atoms: C_5  and  C_35
REMARK    3  A    between atoms: C_6  and  C_8
REMARK    4  A    between atoms: C_9  and  C_34
REMARK    5  A    between atoms: C_11  and  N_17
REMARK    6  A    between atoms: C_12  and  C_13
REMARK    7  A    between atoms: C_13  and  O_15
REMARK    8  A    between atoms: O_15  and  C_16
REMARK    9  A    between atoms: C_18  and  C_20
REMARK   10  A    between atoms: C_27  and  C_29
REMARK                            x       y       z     vdW  Elec       q    Type
REMARK                         _______ _______ _______ _____ _____    ______ ____
ROOT
ATOM      1  C   UNL     1      -5.301  -4.399  -1.725  0.00  0.00    +0.008 A 
ATOM      2  C   UNL     1      -4.209  -4.717  -2.466  0.00  0.00    -0.003 A 
ATOM      3  S   UNL     1      -3.192  -3.261  -2.343  0.00  0.00    -0.077 S 
ATOM      4  C   UNL     1      -4.204  -2.280  -1.338  0.00  0.00    +0.087 A 
ATOM      5  C   UNL     1      -5.309  -3.087  -1.105  0.00  0.00    +0.095 A 
ATOM      6  C   UNL     1      -3.925  -5.995  -3.212  0.00  0.00    +0.052 C 
ENDROOT
BRANCH   1  12
ATOM      7  C   UNL     1      -7.478  -8.107   0.811  0.00  0.00    +0.044 C 
ATOM      8  C   UNL     1      -7.477  -7.130  -0.337  0.00  0.00    -0.050 A 
ATOM      9  C   UNL     1      -8.531  -7.118  -1.233  0.00  0.00    +0.003 A 
ATOM     10  C   UNL     1      -8.538  -6.224  -2.289  0.00  0.00    +0.004 A 
ATOM     11  C   UNL     1      -7.492  -5.339  -2.453  0.00  0.00    -0.043 A 
ATOM     12  C   UNL     1      -6.428  -5.347  -1.553  0.00  0.00    -0.013 A 
ATOM     13  C   UNL     1      -6.424  -6.254  -0.494  0.00  0.00    +0.012 A 
ATOM     14  C   UNL     1      -7.501  -4.366  -3.604  0.00  0.00    +0.044 C 
ENDBRANCH   1  12
BRANCH   4  15
ATOM     15  N   UNL     1      -3.965  -0.996  -0.873  0.00  0.00    -0.279 N 
ATOM     16  C   UNL     1      -2.822  -0.362  -1.200  0.00  0.00    +0.222 C 
ATOM     17  O   UNL     1      -2.002  -0.915  -1.902  0.00  0.00    -0.275 OA
ATOM     18  H   UNL     1      -4.709  -0.495  -0.236  0.00  0.00    +0.155 HD
BRANCH  16  19
ATOM     19  C   UNL     1      -2.562   1.033  -0.694  0.00  0.00    +0.096 C 
ATOM     20  C   UNL     1      -1.548   1.774  -1.622  0.00  0.00    +0.025 C 
ATOM     21  C   UNL     1      -0.189   1.214  -1.061  0.00  0.00    +0.016 C 
ATOM     22  C   UNL     1      -0.470   1.730   0.398  0.00  0.00    +0.027 C 
ATOM     23  C   UNL     1      -1.831   1.020   0.691  0.00  0.00    +0.121 C 
ATOM     24  C   UNL     1      -0.867   3.180   0.089  0.00  0.00    -0.027 C 
ATOM     25  C   UNL     1      -1.486   3.205  -1.074  0.00  0.00    -0.027 C 
BRANCH  23  26
ATOM     26  C   UNL     1      -1.601  -0.399   1.142  0.00  0.00    +0.360 C 
ATOM     27  O   UNL     1      -0.584  -0.975   0.833  0.00  0.00    -0.246 OA
ATOM     28  O   UNL     1      -2.526  -1.025   1.887  0.00  0.00    -0.246 OA
ENDBRANCH  23  26
ENDBRANCH  16  19
ENDBRANCH   4  15
BRANCH   5  29
ATOM     29  C   UNL     1      -6.429  -2.636  -0.279  0.00  0.00    +0.342 C 
ATOM     30  O   UNL     1      -7.365  -2.051  -0.790  0.00  0.00    -0.245 OA
BRANCH  29  31
ATOM     31  O   UNL     1      -6.423  -2.868   1.050  0.00  0.00    -0.464 OA
ATOM     32  C   UNL     1      -7.566  -2.392   1.808  0.00  0.00    +0.280 C 
ENDBRANCH  29  31
ENDBRANCH   5  29
TORSDOF 6
