REMARK  Name = ZINC39528328
REMARK  8 active torsions:
REMARK  status: ('A' for Active; 'I' for Inactive)
REMARK    1  A    between atoms: C_4  and  C_7
REMARK    2  A    between atoms: C_7  and  C_8
REMARK    3  A    between atoms: C_10  and  S_28
REMARK    4  A    between atoms: C_13  and  N_14
REMARK    5  A    between atoms: C_18  and  C_21
REMARK    6  A    between atoms: C_26  and  O_27
REMARK    7  A    between atoms: S_28  and  O_31
REMARK    8  A    between atoms: O_31  and  C_32
REMARK                            x       y       z     vdW  Elec       q    Type
REMARK                         _______ _______ _______ _____ _____    ______ ____
ROOT
ATOM      1  C   UNL     1       3.577  -0.643   1.406  0.00  0.00    -0.020 A 
ATOM      2  C   UNL     1       4.333   0.413   1.878  0.00  0.00    +0.036 A 
ATOM      3  C   UNL     1       5.184   0.231   2.952  0.00  0.00    +0.128 A 
ATOM      4  C   UNL     1       5.282  -1.009   3.558  0.00  0.00    +0.032 A 
ATOM      5  C   UNL     1       4.529  -2.069   3.092  0.00  0.00    +0.025 A 
ATOM      6  C   UNL     1       3.669  -1.887   2.016  0.00  0.00    +0.033 A 
ENDROOT
BRANCH   6   7
ATOM      7  N   UNL     1       2.902  -2.956   1.545  0.00  0.00    -0.333 N 
ATOM      8  C   UNL     1       1.627  -3.311   2.185  0.00  0.00    +0.086 C 
ATOM      9  C   UNL     1       1.635  -4.814   2.483  0.00  0.00    -0.063 C 
ATOM     10  N   UNL     1       1.921  -5.556   1.249  0.00  0.00    +0.386 N 
ATOM     11  C   UNL     1       3.275  -5.239   0.777  0.00  0.00    -0.020 C 
ATOM     12  C   UNL     1       3.345  -3.753   0.391  0.00  0.00    +0.094 C 
ATOM     13  H   UNL     1       1.852  -6.546   1.429  0.00  0.00    -0.085 HD
ATOM     14  H   UNL     1       1.250  -5.298   0.540  0.00  0.00    -0.085 HD
BRANCH  11  15
ATOM     15  C   UNL     1       3.598  -6.085  -0.427  0.00  0.00    -0.018 A 
ATOM     16  C   UNL     1       2.581  -6.552  -1.237  0.00  0.00    +0.005 A 
ATOM     17  C   UNL     1       2.878  -7.329  -2.342  0.00  0.00    +0.000 A 
ATOM     18  C   UNL     1       4.192  -7.641  -2.639  0.00  0.00    +0.004 A 
ATOM     19  C   UNL     1       5.212  -7.175  -1.832  0.00  0.00    +0.045 A 
ATOM     20  C   UNL     1       4.918  -6.391  -0.726  0.00  0.00    +0.118 A 
BRANCH  20  21
ATOM     21  O   UNL     1       5.920  -5.928   0.066  0.00  0.00    -0.507 OA
ATOM     22  H   UNL     1       6.207  -6.554   0.744  0.00  0.00    +0.292 HD
ENDBRANCH  20  21
ENDBRANCH  11  15
ENDBRANCH   6   7
BRANCH   3  23
ATOM     23  S   UNL     1       6.147   1.580   3.550  0.00  0.00    +0.151 S 
ATOM     24  O   UNL     1       7.268   1.015   4.215  0.00  0.00    -0.131 OA
ATOM     25  O   UNL     1       6.282   2.493   2.469  0.00  0.00    -0.131 OA
BRANCH  23  26
ATOM     26  O   UNL     1       5.319   2.286   4.615  0.00  0.00    -0.342 OA
BRANCH  26  27
ATOM     27  C   UNL     1       5.256   1.619   5.797  0.00  0.00    +0.157 A 
ATOM     28  C   UNL     1       4.245   0.696   6.021  0.00  0.00    +0.048 A 
ATOM     29  C   UNL     1       4.183   0.019   7.224  0.00  0.00    +0.004 A 
ATOM     30  C   UNL     1       5.127   0.263   8.205  0.00  0.00    +0.000 A 
ATOM     31  C   UNL     1       6.135   1.183   7.984  0.00  0.00    +0.004 A 
ATOM     32  C   UNL     1       6.205   1.858   6.781  0.00  0.00    +0.048 A 
ENDBRANCH  26  27
ENDBRANCH  23  26
ENDBRANCH   3  23
BRANCH   1  33
ATOM     33  C   UNL     1       2.650  -0.443   0.235  0.00  0.00    +0.072 C 
BRANCH  33  37
ATOM     34  C   UNL     1      -1.036   1.226   1.604  0.00  0.00    +0.000 A 
ATOM     35  C   UNL     1       0.056   2.046   1.390  0.00  0.00    +0.000 A 
ATOM     36  C   UNL     1       1.249   1.505   0.948  0.00  0.00    +0.004 A 
ATOM     37  C   UNL     1       1.350   0.146   0.719  0.00  0.00    -0.043 A 
ATOM     38  C   UNL     1       0.257  -0.674   0.933  0.00  0.00    +0.004 A 
ATOM     39  C   UNL     1      -0.936  -0.133   1.374  0.00  0.00    +0.000 A 
ENDBRANCH  33  37
ENDBRANCH   1  33
TORSDOF 8
