REMARK  Name = ZINC08582925
REMARK  6 active torsions:
REMARK  status: ('A' for Active; 'I' for Inactive)
REMARK    1  A    between atoms: C_4  and  S_7
REMARK    2  A    between atoms: S_7  and  N_10
REMARK    3  A    between atoms: C_15  and  S_17
REMARK    4  A    between atoms: S_17  and  C_18
REMARK    5  A    between atoms: C_18  and  C_19
REMARK    6  A    between atoms: N_21  and  C_22
REMARK                            x       y       z     vdW  Elec       q    Type
REMARK                         _______ _______ _______ _____ _____    ______ ____
ROOT
ATOM      1  N   UNL     1       4.387  -1.061   1.537  0.00  0.00    -0.111 NA
ATOM      2  C   UNL     1       5.512  -1.690   1.813  0.00  0.00    +0.160 A 
ATOM      3  C   UNL     1       5.909  -1.906   3.150  0.00  0.00    +0.120 A 
ATOM      4  C   UNL     1       7.093  -2.569   3.390  0.00  0.00    +0.276 A 
ATOM      5  N   UNL     1       7.847  -2.994   2.369  0.00  0.00    -0.185 NA
ATOM      6  C   UNL     1       7.492  -2.800   1.118  0.00  0.00    +0.172 A 
ATOM      7  N   UNL     1       6.330  -2.158   0.801  0.00  0.00    -0.318 N 
ATOM      8  O   UNL     1       7.497  -2.790   4.664  0.00  0.00    -0.266 OA
ATOM      9  H   UNL     1       6.082  -2.027  -0.127  0.00  0.00    +0.169 HD
ENDROOT
BRANCH   1  10
ATOM     10  S   UNL     1       3.938  -0.824  -0.040  0.00  0.00    +0.101 S 
ATOM     11  O   UNL     1       3.675  -2.110  -0.585  0.00  0.00    -0.146 OA
ATOM     12  O   UNL     1       4.893   0.063  -0.605  0.00  0.00    -0.146 OA
BRANCH  10  16
ATOM     13  C   UNL     1      -0.010   1.390   0.011  0.00  0.00    +0.000 A 
ATOM     14  C   UNL     1       1.178   2.096  -0.005  0.00  0.00    +0.002 A 
ATOM     15  C   UNL     1       2.384   1.420  -0.021  0.00  0.00    +0.029 A 
ATOM     16  C   UNL     1       2.401   0.038  -0.019  0.00  0.00    +0.113 A 
ATOM     17  C   UNL     1       1.213  -0.668  -0.002  0.00  0.00    +0.029 A 
ATOM     18  C   UNL     1       0.007   0.008   0.012  0.00  0.00    +0.002 A 
ENDBRANCH  10  16
ENDBRANCH   1  10
BRANCH   6  19
ATOM     19  S   UNL     1       8.534  -3.387  -0.176  0.00  0.00    -0.078 S 
BRANCH  19  20
ATOM     20  C   UNL     1       9.923  -4.161   0.696  0.00  0.00    +0.173 C 
BRANCH  20  21
ATOM     21  C   UNL     1      10.902  -4.712  -0.308  0.00  0.00    +0.227 C 
ATOM     22  O   UNL     1      10.684  -4.594  -1.495  0.00  0.00    -0.275 OA
ATOM     23  N   UNL     1      12.021  -5.335   0.113  0.00  0.00    -0.285 N 
ATOM     24  H   UNL     1      12.229  -5.370   1.060  0.00  0.00    +0.155 HD
BRANCH  23  25
ATOM     25  C   UNL     1      12.882  -5.932  -0.816  0.00  0.00    +0.034 A 
ATOM     26  C   UNL     1      13.547  -7.107  -0.492  0.00  0.00    +0.026 A 
ATOM     27  C   UNL     1      14.396  -7.694  -1.410  0.00  0.00    +0.040 A 
ATOM     28  C   UNL     1      14.585  -7.111  -2.652  0.00  0.00    +0.124 A 
ATOM     29  C   UNL     1      13.922  -5.939  -2.977  0.00  0.00    +0.040 A 
ATOM     30  C   UNL     1      13.068  -5.352  -2.064  0.00  0.00    +0.026 A 
ATOM     31  F   UNL     1      15.416  -7.686  -3.548  0.00  0.00    -0.205 F 
ENDBRANCH  23  25
ENDBRANCH  20  21
ENDBRANCH  19  20
ENDBRANCH   6  19
TORSDOF 6
