REMARK  Name = ZINC05252319
REMARK  4 active torsions:
REMARK  status: ('A' for Active; 'I' for Inactive)
REMARK    1  A    between atoms: C_1  and  C_2
REMARK    2  A    between atoms: C_5  and  C_8
REMARK    3  A    between atoms: N_10  and  C_11
REMARK    4  A    between atoms: C_21  and  C_23
REMARK                            x       y       z     vdW  Elec       q    Type
REMARK                         _______ _______ _______ _____ _____    ______ ____
ROOT
ATOM      1  C   UNL     1       1.411   1.827  -0.029  0.00  0.00    +0.035 A 
ATOM      2  C   UNL     1       0.266   1.041   0.014  0.00  0.00    +0.024 A 
ATOM      3  C   UNL     1      -0.979   1.634   0.054  0.00  0.00    +0.007 A 
ATOM      4  C   UNL     1      -1.099   3.014   0.063  0.00  0.00    -0.026 A 
ATOM      5  C   UNL     1       0.042   3.802   0.022  0.00  0.00    +0.041 A 
ATOM      6  C   UNL     1       1.297   3.209  -0.024  0.00  0.00    +0.047 A 
ATOM      7  N   UNL     1      -0.051   5.201   0.031  0.00  0.00    -0.271 N 
ATOM      8  C   UNL     1      -1.357   5.827  -0.216  0.00  0.00    +0.114 C 
ATOM      9  C   UNL     1      -2.405   5.067   0.608  0.00  0.00    +0.024 C 
ATOM     10  C   UNL     1      -2.475   3.625   0.107  0.00  0.00    +0.038 C 
ATOM     11  C   UNL     1       1.039   5.959   0.262  0.00  0.00    +0.223 C 
ATOM     12  O   UNL     1       2.124   5.434   0.397  0.00  0.00    -0.275 OA
ENDROOT
BRANCH   1  15
ATOM     13  C   UNL     1       2.897   0.075   0.586  0.00  0.00    +0.248 C 
ATOM     14  O   UNL     1       1.982  -0.486   1.156  0.00  0.00    -0.270 OA
ATOM     15  N   UNL     1       2.673   1.227  -0.077  0.00  0.00    -0.281 N 
ATOM     16  H   UNL     1       3.387   1.640  -0.587  0.00  0.00    +0.155 HD
BRANCH  13  21
ATOM     17  C   UNL     1       8.187  -2.187   0.717  0.00  0.00    +0.044 C 
ATOM     18  C   UNL     1       6.801  -1.595   0.682  0.00  0.00    -0.050 A 
ATOM     19  C   UNL     1       5.762  -2.236   1.332  0.00  0.00    +0.004 A 
ATOM     20  C   UNL     1       4.492  -1.699   1.304  0.00  0.00    +0.013 A 
ATOM     21  C   UNL     1       4.256  -0.506   0.619  0.00  0.00    +0.037 A 
ATOM     22  C   UNL     1       5.308   0.133  -0.039  0.00  0.00    +0.013 A 
ATOM     23  C   UNL     1       6.575  -0.412   0.001  0.00  0.00    +0.004 A 
ENDBRANCH  13  21
ENDBRANCH   1  15
BRANCH  11  24
ATOM     24  C   UNL     1       0.910   7.457   0.352  0.00  0.00    +0.076 C 
ATOM     25  C   UNL     1       1.536   8.289  -0.770  0.00  0.00    +0.013 C 
ATOM     26  C   UNL     1       2.185   8.261   0.616  0.00  0.00    +0.013 C 
ENDBRANCH  11  24
TORSDOF 3
