REMARK  Name = ZINC35894651
REMARK  10 active torsions:
REMARK  status: ('A' for Active; 'I' for Inactive)
REMARK    1  A    between atoms: C_1  and  C_2
REMARK    2  A    between atoms: C_2  and  C_3
REMARK    3  A    between atoms: C_2  and  N_4
REMARK    4  A    between atoms: C_5  and  C_7
REMARK    5  A    between atoms: C_7  and  N_8
REMARK    6  A    between atoms: C_15  and  N_30
REMARK    7  A    between atoms: C_19  and  C_24
REMARK    8  A    between atoms: N_26  and  C_27
REMARK    9  A    between atoms: C_27  and  C_28
REMARK   10  A    between atoms: C_27  and  C_29
REMARK                            x       y       z     vdW  Elec       q    Type
REMARK                         _______ _______ _______ _____ _____    ______ ____
ROOT
ATOM      1  N   UNL     1       4.185  -1.104  -2.214  0.00  0.00    +0.388 N 
ATOM      2  C   UNL     1       4.681   0.266  -2.012  0.00  0.00    -0.059 C 
ATOM      3  C   UNL     1       6.132   0.191  -1.546  0.00  0.00    +0.087 C 
ATOM      4  N   UNL     1       6.925  -0.634  -2.462  0.00  0.00    -0.329 N 
ATOM      5  C   UNL     1       8.279  -0.302  -2.623  0.00  0.00    +0.033 A 
ATOM      6  C   UNL     1       8.801   0.750  -1.878  0.00  0.00    +0.025 A 
ATOM      7  C   UNL     1      10.130   1.098  -2.012  0.00  0.00    +0.034 A 
ATOM      8  C   UNL     1      10.943   0.399  -2.886  0.00  0.00    +0.127 A 
ATOM      9  C   UNL     1      10.426  -0.645  -3.629  0.00  0.00    +0.038 A 
ATOM     10  C   UNL     1       9.094  -0.996  -3.501  0.00  0.00    -0.023 A 
ATOM     11  C   UNL     1       8.548  -2.130  -4.329  0.00  0.00    +0.051 C 
ATOM     12  C   UNL     1       7.045  -1.938  -4.529  0.00  0.00    +0.098 C 
ATOM     13  C   UNL     1       6.365  -1.779  -3.164  0.00  0.00    +0.069 C 
ATOM     14  C   UNL     1       4.862  -1.687  -3.371  0.00  0.00    -0.055 C 
ATOM     15  H   UNL     1       4.379  -1.659  -1.394  0.00  0.00    -0.081 HD
ENDROOT
BRANCH  12  16
ATOM     16  C   UNL     1       6.803  -0.703  -5.358  0.00  0.00    +0.218 C 
ATOM     17  O   UNL     1       6.151   0.214  -4.904  0.00  0.00    -0.275 OA
ATOM     18  N   UNL     1       7.311  -0.617  -6.603  0.00  0.00    -0.313 N 
ATOM     19  H   UNL     1       7.832  -1.350  -6.966  0.00  0.00    +0.149 HD
BRANCH  18  20
ATOM     20  C   UNL     1       7.075   0.583  -7.409  0.00  0.00    +0.067 C 
ATOM     21  C   UNL     1       8.125   1.642  -7.067  0.00  0.00    +0.027 C 
ATOM     22  C   UNL     1       7.174   0.228  -8.894  0.00  0.00    +0.027 C 
ENDBRANCH  18  20
ENDBRANCH  12  16
BRANCH   8  23
ATOM     23  N   UNL     1      12.369   0.771  -3.027  0.00  0.00    +0.056 N 
ATOM     24  O   UNL     1      12.822   1.685  -2.377  0.00  0.00    -0.126 OA
ATOM     25  O   UNL     1      13.080   0.161  -3.791  0.00  0.00    -0.126 OA
ENDBRANCH   8  23
BRANCH   1  26
ATOM     26  C   UNL     1       2.736  -1.073  -2.455  0.00  0.00    +0.019 C 
BRANCH  26  28
ATOM     27  N   UNL     1       0.688  -0.476  -1.203  0.00  0.00    -0.315 N 
ATOM     28  C   UNL     1       2.031  -0.587  -1.215  0.00  0.00    +0.197 C 
ATOM     29  O   UNL     1       2.672  -0.295  -0.228  0.00  0.00    -0.278 OA
ATOM     30  H   UNL     1       0.175  -0.710  -1.993  0.00  0.00    +0.149 HD
BRANCH  27  32
ATOM     31  C   UNL     1      -0.019   1.526   0.010  0.00  0.00    +0.027 C 
ATOM     32  C   UNL     1       0.002  -0.004   0.002  0.00  0.00    +0.067 C 
ATOM     33  C   UNL     1      -1.433  -0.534   0.013  0.00  0.00    +0.027 C 
ENDBRANCH  27  32
ENDBRANCH  26  28
ENDBRANCH   1  26
TORSDOF 6
