REMARK  Name = ZINC66305707
REMARK  7 active torsions:
REMARK  status: ('A' for Active; 'I' for Inactive)
REMARK    1  A    between atoms: C_1  and  C_2
REMARK    2  A    between atoms: C_8  and  C_10
REMARK    3  A    between atoms: C_13  and  N_16
REMARK    4  A    between atoms: C_17  and  C_19
REMARK    5  A    between atoms: C_22  and  O_25
REMARK    6  A    between atoms: O_25  and  C_26
REMARK    7  A    between atoms: C_26  and  C_27
REMARK                            x       y       z     vdW  Elec       q    Type
REMARK                         _______ _______ _______ _____ _____    ______ ____
ROOT
ATOM      1  C   UNL     1       2.534  -2.645  -0.045  0.00  0.00    +0.001 A 
ATOM      2  C   UNL     1       3.589  -2.121  -0.794  0.00  0.00    +0.012 A 
ATOM      3  C   UNL     1       4.812  -2.753  -0.795  0.00  0.00    +0.024 A 
ATOM      4  C   UNL     1       4.997  -3.914  -0.051  0.00  0.00    +0.034 A 
ATOM      5  C   UNL     1       3.948  -4.439   0.696  0.00  0.00    +0.024 A 
ATOM      6  C   UNL     1       2.724  -3.807   0.706  0.00  0.00    +0.012 A 
ENDROOT
BRANCH   1  14
ATOM      7  C   UNL     1      -2.071  -2.489   1.530  0.00  0.00    +0.086 C 
ATOM      8  C   UNL     1      -0.967  -1.887   0.701  0.00  0.00    +0.107 A 
ATOM      9  N   UNL     1      -1.212  -0.763  -0.003  0.00  0.00    -0.311 N 
ATOM     10  H   UNL     1      -2.091  -0.355   0.031  0.00  0.00    +0.170 HD
ATOM     11  C   UNL     1      -0.240  -0.204  -0.754  0.00  0.00    +0.252 A 
ATOM     12  O   UNL     1      -0.456   0.813  -1.393  0.00  0.00    -0.268 OA
ATOM     13  C   UNL     1       1.025  -0.815  -0.785  0.00  0.00    +0.098 A 
ATOM     14  C   UNL     1       1.218  -1.968  -0.042  0.00  0.00    +0.078 A 
ATOM     15  N   UNL     1       0.203  -2.464   0.687  0.00  0.00    -0.234 NA
ENDBRANCH   1  14
BRANCH   4  16
ATOM     16  N   UNL     1       6.238  -4.553  -0.054  0.00  0.00    -0.281 N 
ATOM     17  C   UNL     1       7.370  -3.827  -0.151  0.00  0.00    +0.250 C 
ATOM     18  O   UNL     1       7.316  -2.613  -0.139  0.00  0.00    -0.270 OA
ATOM     19  H   UNL     1       6.286  -5.519   0.013  0.00  0.00    +0.155 HD
BRANCH  17  20
ATOM     20  C   UNL     1       8.674  -4.507  -0.273  0.00  0.00    +0.055 A 
ATOM     21  C   UNL     1       9.859  -3.762  -0.368  0.00  0.00    +0.020 A 
ATOM     22  C   UNL     1      11.053  -4.442  -0.479  0.00  0.00    +0.068 A 
ATOM     23  C   UNL     1      11.045  -5.834  -0.493  0.00  0.00    +0.215 A 
ATOM     24  N   UNL     1       9.910  -6.509  -0.401  0.00  0.00    -0.221 NA
ATOM     25  C   UNL     1       8.748  -5.900  -0.287  0.00  0.00    +0.127 A 
BRANCH  23  26
ATOM     26  O   UNL     1      12.216  -6.508  -0.601  0.00  0.00    -0.476 OA
BRANCH  26  27
ATOM     27  C   UNL     1      12.144  -7.935  -0.610  0.00  0.00    +0.234 C 
BRANCH  27  28
ATOM     28  C   UNL     1      13.554  -8.516  -0.738  0.00  0.00    +0.027 C 
ATOM     29  C   UNL     1      13.871  -9.329  -1.995  0.00  0.00    +0.007 C 
ATOM     30  C   UNL     1      13.703 -10.036  -0.648  0.00  0.00    +0.007 C 
ENDBRANCH  27  28
ENDBRANCH  26  27
ENDBRANCH  23  26
ENDBRANCH  17  20
ENDBRANCH   4  16
TORSDOF 6
