REMARK  Name = ZINC62614413
REMARK  12 active torsions:
REMARK  status: ('A' for Active; 'I' for Inactive)
REMARK    1  A    between atoms: C_1  and  C_2
REMARK    2  A    between atoms: C_2  and  N_3
REMARK    3  A    between atoms: N_3  and  C_4
REMARK    4  A    between atoms: N_3  and  S_6
REMARK    5  A    between atoms: C_4  and  C_5
REMARK    6  A    between atoms: S_6  and  C_9
REMARK    7  A    between atoms: C_12  and  C_15
REMARK    8  A    between atoms: N_17  and  C_18
REMARK    9  A    between atoms: C_18  and  C_19
REMARK   10  A    between atoms: C_19  and  C_20
REMARK   11  A    between atoms: C_21  and  C_26
REMARK   12  A    between atoms: C_24  and  C_25
REMARK                            x       y       z     vdW  Elec       q    Type
REMARK                         _______ _______ _______ _____ _____    ______ ____
ROOT
ATOM      1  C   UNL     1      -2.898   0.520   2.058  0.00  0.00    +0.106 A 
ATOM      2  C   UNL     1      -2.212   1.395   2.882  0.00  0.00    +0.029 A 
ATOM      3  C   UNL     1      -2.837   2.526   3.364  0.00  0.00    +0.015 A 
ATOM      4  C   UNL     1      -4.163   2.788   3.019  0.00  0.00    +0.037 A 
ATOM      5  C   UNL     1      -4.849   1.902   2.187  0.00  0.00    +0.015 A 
ATOM      6  C   UNL     1      -4.211   0.777   1.707  0.00  0.00    +0.029 A 
ENDROOT
BRANCH   4   7
ATOM      7  C   UNL     1      -4.839   3.998   3.532  0.00  0.00    +0.244 C 
ATOM      8  O   UNL     1      -4.239   4.768   4.257  0.00  0.00    -0.270 OA
ATOM      9  N   UNL     1      -6.120   4.248   3.197  0.00  0.00    -0.311 N 
ATOM     10  H   UNL     1      -6.599   3.634   2.619  0.00  0.00    +0.149 HD
BRANCH   9  11
ATOM     11  C   UNL     1      -6.790   5.448   3.706  0.00  0.00    +0.109 C 
BRANCH  11  12
ATOM     12  C   UNL     1      -8.226   5.492   3.179  0.00  0.00    +0.059 C 
BRANCH  12  13
ATOM     13  C   UNL     1      -8.915   6.726   3.703  0.00  0.00    +0.019 A 
ATOM     14  C   UNL     1      -9.640   6.820   4.904  0.00  0.00    +0.084 A 
ATOM     15  N   UNL     1     -10.085   8.040   5.014  0.00  0.00    -0.083 NA
ATOM     16  O   UNL     1      -9.653   8.765   3.877  0.00  0.00    -0.359 OA
ATOM     17  C   UNL     1      -8.939   7.932   3.104  0.00  0.00    +0.138 A 
ATOM     18  C   UNL     1      -8.282   8.284   1.794  0.00  0.00    +0.089 C 
ATOM     19  C   UNL     1      -9.864   5.704   5.892  0.00  0.00    +0.069 C 
ENDBRANCH  12  13
ENDBRANCH  11  12
ENDBRANCH   9  11
ENDBRANCH   4   7
BRANCH   1  20
ATOM     20  S   UNL     1      -2.092  -0.923   1.446  0.00  0.00    +0.061 S 
ATOM     21  O   UNL     1      -3.116  -1.857   1.133  0.00  0.00    -0.153 OA
ATOM     22  O   UNL     1      -1.043  -1.219   2.357  0.00  0.00    -0.153 OA
BRANCH  20  23
ATOM     23  N   UNL     1      -1.372  -0.511   0.012  0.00  0.00    -0.177 NA
BRANCH  23  25
ATOM     24  C   UNL     1      -0.019   1.526   0.010  0.00  0.00    +0.022 C 
ATOM     25  C   UNL     1       0.002  -0.004   0.002  0.00  0.00    +0.106 C 
ENDBRANCH  23  25
BRANCH  23  26
ATOM     26  C   UNL     1      -2.110  -0.654  -1.245  0.00  0.00    +0.106 C 
ATOM     27  C   UNL     1      -1.773  -2.003  -1.884  0.00  0.00    +0.022 C 
ENDBRANCH  23  26
ENDBRANCH  20  23
ENDBRANCH   1  20
TORSDOF 8
