REMARK  Name = ZINC04948181
REMARK  7 active torsions:
REMARK  status: ('A' for Active; 'I' for Inactive)
REMARK    1  A    between atoms: C_1  and  C_2
REMARK    2  A    between atoms: C_2  and  C_18
REMARK    3  A    between atoms: N_3  and  N_4
REMARK    4  A    between atoms: N_4  and  C_5
REMARK    5  A    between atoms: C_8  and  S_14
REMARK    6  A    between atoms: C_10  and  N_11
REMARK    7  A    between atoms: S_14  and  N_17
REMARK                            x       y       z     vdW  Elec       q    Type
REMARK                         _______ _______ _______ _____ _____    ______ ____
ROOT
ATOM      1  C   UNL     1      -1.228   1.648   0.004  0.00  0.00    +0.079 A 
ATOM      2  C   UNL     1      -1.251   3.034   0.111  0.00  0.00    +0.029 A 
ATOM      3  C   UNL     1      -2.458   3.703   0.133  0.00  0.00    +0.030 A 
ATOM      4  C   UNL     1      -3.644   2.997   0.048  0.00  0.00    +0.107 A 
ATOM      5  C   UNL     1      -3.626   1.618  -0.058  0.00  0.00    +0.063 A 
ATOM      6  C   UNL     1      -2.422   0.942  -0.086  0.00  0.00    +0.150 A 
ENDROOT
BRANCH   6   7
ATOM      7  N   UNL     1      -2.403  -0.533  -0.206  0.00  0.00    +0.058 N 
ATOM      8  O   UNL     1      -3.442  -1.143  -0.388  0.00  0.00    -0.126 OA
ATOM      9  O   UNL     1      -1.349  -1.138  -0.123  0.00  0.00    -0.126 OA
ENDBRANCH   6   7
BRANCH   4  10
ATOM     10  S   UNL     1      -5.183   3.856   0.077  0.00  0.00    +0.056 S 
ATOM     11  O   UNL     1      -6.157   2.928   0.533  0.00  0.00    -0.153 OA
ATOM     12  O   UNL     1      -4.944   5.094   0.732  0.00  0.00    -0.153 OA
BRANCH  10  13
ATOM     13  N   UNL     1      -5.571   4.217  -1.492  0.00  0.00    -0.204 NA
ATOM     14  H   UNL     1      -6.501   4.279  -1.759  0.00  0.00    +0.144 HD
ATOM     15  H   UNL     1      -4.868   4.366  -2.143  0.00  0.00    +0.144 HD
ENDBRANCH  10  13
ENDBRANCH   4  10
BRANCH   1  16
ATOM     16  N   UNL     1      -0.010   0.968  -0.019  0.00  0.00    -0.235 N 
ATOM     17  H   UNL     1       0.004  -0.002  -0.018  0.00  0.00    +0.174 HD
BRANCH  16  20
ATOM     18  C   UNL     1       2.348  -0.454  -0.074  0.00  0.00    +0.068 C 
ATOM     19  C   UNL     1       2.326   1.053  -0.076  0.00  0.00    +0.063 C 
ATOM     20  N   UNL     1       1.192   1.686  -0.050  0.00  0.00    -0.187 NA
BRANCH  19  21
ATOM     21  C   UNL     1       3.591   1.809  -0.108  0.00  0.00    -0.001 A 
ATOM     22  C   UNL     1       4.813   1.131  -0.131  0.00  0.00    +0.010 A 
ATOM     23  C   UNL     1       5.993   1.844  -0.166  0.00  0.00    +0.002 A 
ATOM     24  C   UNL     1       5.971   3.227  -0.168  0.00  0.00    +0.020 A 
ATOM     25  C   UNL     1       4.764   3.906  -0.140  0.00  0.00    +0.042 A 
ATOM     26  C   UNL     1       3.575   3.205  -0.110  0.00  0.00    +0.029 A 
ATOM     27 CL   UNL     1       4.747   5.642  -0.143  0.00  0.00    -0.084 Cl
ENDBRANCH  19  21
ENDBRANCH  16  20
ENDBRANCH   1  16
TORSDOF 6
