REMARK  Name = ZINC29574474
REMARK  7 active torsions:
REMARK  status: ('A' for Active; 'I' for Inactive)
REMARK    1  A    between atoms: C_1  and  C_2
REMARK    2  A    between atoms: C_9  and  C_12
REMARK    3  A    between atoms: C_17  and  C_20
REMARK    4  A    between atoms: C_23  and  C_26
REMARK    5  A    between atoms: C_26  and  C_27
REMARK    6  A    between atoms: C_27  and  N_28
REMARK    7  A    between atoms: C_29  and  C_31
REMARK                            x       y       z     vdW  Elec       q    Type
REMARK                         _______ _______ _______ _____ _____    ______ ____
ROOT
ATOM      1  C   UNL     1       2.120  -4.158  -0.040  0.00  0.00    +0.266 C 
ATOM      2  O   UNL     1       0.996  -4.623  -0.032  0.00  0.00    -0.268 OA
ATOM      3  N   UNL     1       2.296  -2.822  -0.035  0.00  0.00    -0.259 N 
ATOM      4  C   UNL     1       1.195  -1.976  -0.020  0.00  0.00    +0.165 A 
ATOM      5  N   UNL     1       1.155  -0.657  -0.018  0.00  0.00    -0.225 NA
ATOM      6  C   UNL     1       0.002  -0.004   0.002  0.00  0.00    +0.080 A 
ATOM      7  C   UNL     1      -1.169  -0.710   0.009  0.00  0.00    +0.076 A 
ATOM      8  S   UNL     1      -0.545  -2.386  -0.005  0.00  0.00    -0.060 S 
ATOM      9  H   UNL     1       3.312  -2.401  -0.042  0.00  0.00    +0.157 HD
ENDROOT
BRANCH   1  18
ATOM     10  C   UNL     1       7.084  -9.706  -0.118  0.00  0.00    +0.044 C 
ATOM     11  C   UNL     1       6.485  -8.323  -0.104  0.00  0.00    -0.050 A 
ATOM     12  C   UNL     1       7.318  -7.212  -0.106  0.00  0.00    +0.005 A 
ATOM     13  C   UNL     1       6.792  -5.940  -0.094  0.00  0.00    +0.026 A 
ATOM     14  C   UNL     1       5.411  -5.762  -0.080  0.00  0.00    +0.047 A 
ATOM     15  C   UNL     1       4.568  -6.891  -0.077  0.00  0.00    +0.001 A 
ATOM     16  C   UNL     1       5.128  -8.175  -0.090  0.00  0.00    +0.013 A 
ATOM     17  C   UNL     1       3.236  -6.411  -0.062  0.00  0.00    +0.040 A 
ATOM     18  C   UNL     1       3.285  -5.053  -0.055  0.00  0.00    +0.103 A 
ATOM     19  N   UNL     1       4.606  -4.648  -0.071  0.00  0.00    -0.351 N 
ATOM     20  H   UNL     1       5.056  -3.644  -0.078  0.00  0.00    +0.166 HD
ENDBRANCH   1  18
BRANCH   6  21
ATOM     21  C   UNL     1      -0.018   1.479   0.010  0.00  0.00    +0.001 A 
ATOM     22  C   UNL     1      -1.233   2.162   0.020  0.00  0.00    +0.010 A 
ATOM     23  C   UNL     1      -1.246   3.542   0.033  0.00  0.00    +0.004 A 
ATOM     24  C   UNL     1      -0.056   4.247   0.025  0.00  0.00    -0.046 A 
ATOM     25  C   UNL     1       1.153   3.575   0.010  0.00  0.00    +0.004 A 
ATOM     26  C   UNL     1       1.178   2.195   0.003  0.00  0.00    +0.010 A 
BRANCH  24  27
ATOM     27  C   UNL     1      -0.076   5.754   0.032  0.00  0.00    +0.054 C 
BRANCH  27  28
ATOM     28  C   UNL     1      -0.097   6.271  -1.408  0.00  0.00    +0.109 C 
BRANCH  28  29
ATOM     29  N   UNL     1      -0.117   7.736  -1.400  0.00  0.00    -0.315 N 
ATOM     30  C   UNL     1      -0.137   8.415  -2.564  0.00  0.00    +0.210 C 
ATOM     31  O   UNL     1      -0.139   7.814  -3.618  0.00  0.00    -0.276 OA
ATOM     32  C   UNL     1      -0.157   9.922  -2.557  0.00  0.00    +0.109 C 
ATOM     33  H   UNL     1      -0.115   8.281  -0.445  0.00  0.00    +0.149 HD
ENDBRANCH  28  29
ENDBRANCH  27  28
ENDBRANCH  24  27
ENDBRANCH   6  21
TORSDOF 5
