REMARK  Name = ZINC12893764
REMARK  8 active torsions:
REMARK  status: ('A' for Active; 'I' for Inactive)
REMARK    1  A    between atoms: C_1  and  C_2
REMARK    2  A    between atoms: C_2  and  C_3
REMARK    3  A    between atoms: C_3  and  N_4
REMARK    4  A    between atoms: N_4  and  C_5
REMARK    5  A    between atoms: C_6  and  N_21
REMARK    6  A    between atoms: N_7  and  C_14
REMARK    7  A    between atoms: C_14  and  C_15
REMARK    8  A    between atoms: C_22  and  C_24
REMARK                            x       y       z     vdW  Elec       q    Type
REMARK                         _______ _______ _______ _____ _____    ______ ____
ROOT
ATOM      1  C   UNL     1       2.370   0.002  -0.011  0.00  0.00    +0.140 A 
ATOM      2  C   UNL     1       2.003   0.836  -1.047  0.00  0.00    +0.128 A 
ATOM      3  N   UNL     1       0.779   1.461  -1.005  0.00  0.00    -0.276 N 
ATOM      4  C   UNL     1      -0.051   1.262   0.035  0.00  0.00    +0.331 A 
ATOM      5  O   UNL     1      -1.127   1.829   0.057  0.00  0.00    -0.246 OA
ATOM      6  N   UNL     1       0.289   0.453   1.054  0.00  0.00    -0.273 N 
ATOM      7  H   UNL     1      -0.346   0.323   1.815  0.00  0.00    +0.173 HD
ATOM      8  C   UNL     1       1.477  -0.183   1.061  0.00  0.00    +0.277 A 
ATOM      9  O   UNL     1       1.776  -0.914   1.990  0.00  0.00    -0.266 OA
ENDROOT
BRANCH   1  10
ATOM     10  N   UNL     1       3.620  -0.653  -0.025  0.00  0.00    -0.261 N 
ATOM     11  C   UNL     1       3.675  -1.998  -0.122  0.00  0.00    +0.261 C 
ATOM     12  O   UNL     1       4.742  -2.569  -0.030  0.00  0.00    -0.271 OA
BRANCH  11  13
ATOM     13  C   UNL     1       2.413  -2.790  -0.344  0.00  0.00    +0.267 C 
ATOM     14  C   UNL     1       1.891  -2.532  -1.758  0.00  0.00    +0.090 C 
ATOM     15  C   UNL     1       0.780  -3.494  -2.089  0.00  0.00    -0.029 A 
ATOM     16  C   UNL     1      -0.118  -3.190  -3.093  0.00  0.00    +0.004 A 
ATOM     17  C   UNL     1      -1.138  -4.071  -3.402  0.00  0.00    +0.000 A 
ATOM     18  C   UNL     1      -1.269  -5.264  -2.713  0.00  0.00    +0.001 A 
ATOM     19  C   UNL     1      -0.379  -5.581  -1.706  0.00  0.00    +0.015 A 
ATOM     20  C   UNL     1       0.649  -4.695  -1.390  0.00  0.00    +0.062 A 
ATOM     21  C   UNL     1       1.610  -5.017  -0.310  0.00  0.00    +0.340 C 
ATOM     22  O   UNL     1       1.435  -5.961   0.434  0.00  0.00    -0.245 OA
ATOM     23  O   UNL     1       2.696  -4.211  -0.187  0.00  0.00    -0.448 OA
ENDBRANCH  11  13
BRANCH  10  24
ATOM     24  C   UNL     1       4.857   0.127   0.065  0.00  0.00    +0.114 C 
BRANCH  24  26
ATOM     25  C   UNL     1       6.404   1.315   1.627  0.00  0.00    +0.005 C 
ATOM     26  C   UNL     1       5.183   0.397   1.536  0.00  0.00    +0.016 C 
ENDBRANCH  24  26
ENDBRANCH  10  24
ENDBRANCH   1  10
BRANCH   2  27
ATOM     27  N   UNL     1       2.851   1.040  -2.109  0.00  0.00    -0.343 N 
ATOM     28  H   UNL     1       2.560   1.569  -2.868  0.00  0.00    +0.144 HD
ATOM     29  H   UNL     1       3.741   0.654  -2.100  0.00  0.00    +0.144 HD
ENDBRANCH   2  27
BRANCH   3  30
ATOM     30  C   UNL     1       0.376   2.349  -2.098  0.00  0.00    +0.163 C 
BRANCH  30  31
ATOM     31  C   UNL     1       0.825   3.755  -1.794  0.00  0.00    -0.028 A 
ATOM     32  C   UNL     1      -0.011   4.614  -1.105  0.00  0.00    +0.005 A 
ATOM     33  C   UNL     1       0.402   5.902  -0.822  0.00  0.00    +0.000 A 
ATOM     34  C   UNL     1       1.647   6.335  -1.238  0.00  0.00    +0.000 A 
ATOM     35  C   UNL     1       2.481   5.479  -1.932  0.00  0.00    +0.000 A 
ATOM     36  C   UNL     1       2.070   4.188  -2.210  0.00  0.00    +0.005 A 
ENDBRANCH  30  31
ENDBRANCH   3  30
TORSDOF 7
