REMARK  Name = ZINC64201920
REMARK  6 active torsions:
REMARK  status: ('A' for Active; 'I' for Inactive)
REMARK    1  A    between atoms: C_1  and  C_2
REMARK    2  A    between atoms: C_5  and  S_8
REMARK    3  A    between atoms: S_8  and  N_11
REMARK    4  A    between atoms: C_16  and  C_18
REMARK    5  A    between atoms: C_23  and  C_26
REMARK    6  A    between atoms: C_28  and  C_31
REMARK                            x       y       z     vdW  Elec       q    Type
REMARK                         _______ _______ _______ _____ _____    ______ ____
ROOT
ATOM      1  C   UNL     1       1.657  -4.996   2.260  0.00  0.00    +0.238 C 
ATOM      2  O   UNL     1       1.665  -3.868   2.705  0.00  0.00    -0.274 OA
ATOM      3  N   UNL     1       0.943  -5.959   2.876  0.00  0.00    -0.263 N 
ATOM      4  C   UNL     1       0.217  -5.660   4.021  0.00  0.00    +0.165 A 
ATOM      5  N   UNL     1      -0.529  -6.452   4.763  0.00  0.00    -0.225 NA
ATOM      6  C   UNL     1      -1.164  -5.994   5.843  0.00  0.00    +0.078 A 
ATOM      7  C   UNL     1      -1.030  -4.666   6.180  0.00  0.00    +0.076 A 
ATOM      8  S   UNL     1       0.058  -4.100   4.879  0.00  0.00    -0.060 S 
ATOM      9  H   UNL     1       0.937  -6.861   2.520  0.00  0.00    +0.157 HD
ENDROOT
BRANCH   1  15
ATOM     10  N   UNL     1       1.974  -4.487  -0.097  0.00  0.00    -0.165 NA
ATOM     11  C   UNL     1       2.707  -4.529  -1.370  0.00  0.00    +0.110 C 
ATOM     12  C   UNL     1       4.188  -4.248  -1.095  0.00  0.00    +0.017 C 
ATOM     13  C   UNL     1       4.702  -5.231  -0.041  0.00  0.00    +0.003 C 
ATOM     14  C   UNL     1       3.925  -5.037   1.262  0.00  0.00    +0.030 C 
ATOM     15  C   UNL     1       2.445  -5.322   1.017  0.00  0.00    +0.166 C 
BRANCH  10  16
ATOM     16  S   UNL     1       0.648  -3.511   0.081  0.00  0.00    +0.062 S 
ATOM     17  O   UNL     1      -0.128  -4.069   1.133  0.00  0.00    -0.153 OA
ATOM     18  O   UNL     1       0.123  -3.298  -1.222  0.00  0.00    -0.153 OA
BRANCH  16  23
ATOM     19  C   UNL     1       2.617   1.843   2.045  0.00  0.00    +0.044 C 
ATOM     20  C   UNL     1       2.125   0.506   1.555  0.00  0.00    -0.050 A 
ATOM     21  C   UNL     1       2.330   0.134   0.239  0.00  0.00    +0.005 A 
ATOM     22  C   UNL     1       1.879  -1.093  -0.210  0.00  0.00    +0.029 A 
ATOM     23  C   UNL     1       1.224  -1.948   0.655  0.00  0.00    +0.106 A 
ATOM     24  C   UNL     1       1.019  -1.577   1.971  0.00  0.00    +0.029 A 
ATOM     25  C   UNL     1       1.474  -0.352   2.422  0.00  0.00    +0.005 A 
ENDBRANCH  16  23
ENDBRANCH  10  16
ENDBRANCH   1  15
BRANCH   6  26
ATOM     26  C   UNL     1      -1.992  -6.890   6.657  0.00  0.00    +0.002 C 
ATOM     27  C   UNL     1      -2.696  -6.567   7.769  0.00  0.00    +0.040 C 
ATOM     28  C   UNL     1      -3.379  -7.755   8.267  0.00  0.00    +0.120 C 
ATOM     29  N   UNL     1      -3.129  -8.789   7.515  0.00  0.00    -0.274 NA
ATOM     30  C   UNL     1      -2.241  -8.364   6.426  0.00  0.00    +0.179 C 
BRANCH  28  31
ATOM     31  C   UNL     1      -4.248  -7.783   9.474  0.00  0.00    +0.259 C 
ATOM     32  O   UNL     1      -4.426  -6.768  10.117  0.00  0.00    -0.269 OA
ATOM     33  N   UNL     1      -4.837  -8.934   9.854  0.00  0.00    -0.324 N 
ATOM     34  H   UNL     1      -4.695  -9.744   9.340  0.00  0.00    +0.145 HD
ATOM     35  H   UNL     1      -5.404  -8.952  10.641  0.00  0.00    +0.145 HD
ENDBRANCH  28  31
ENDBRANCH   6  26
TORSDOF 5
