REMARK  Name = ZINC25107565
REMARK  11 active torsions:
REMARK  status: ('A' for Active; 'I' for Inactive)
REMARK    1  A    between atoms: C_1  and  O_2
REMARK    2  A    between atoms: O_2  and  C_3
REMARK    3  A    between atoms: C_5  and  C_11
REMARK    4  A    between atoms: C_7  and  O_9
REMARK    5  A    between atoms: O_9  and  C_10
REMARK    6  A    between atoms: N_13  and  C_14
REMARK    7  A    between atoms: C_14  and  C_16
REMARK    8  A    between atoms: C_14  and  C_20
REMARK    9  A    between atoms: C_16  and  C_17
REMARK   10  A    between atoms: C_17  and  S_18
REMARK   11  A    between atoms: S_18  and  C_19
REMARK                            x       y       z     vdW  Elec       q    Type
REMARK                         _______ _______ _______ _____ _____    ______ ____
ROOT
ATOM      1  C   UNL     1      -3.787  -6.298   0.059  0.00  0.00    +0.160 C 
ENDROOT
BRANCH   1   2
ATOM      2  C   UNL     1      -5.063  -6.821   0.666  0.00  0.00    +0.236 C 
ATOM      3  O   UNL     1      -6.098  -6.205   0.527  0.00  0.00    -0.274 OA
ATOM      4  N   UNL     1      -5.054  -7.974   1.363  0.00  0.00    -0.300 N 
ATOM      5  C   UNL     1      -3.791  -8.676   1.633  0.00  0.00    +0.110 C 
ATOM      6  C   UNL     1      -3.920 -10.125   1.153  0.00  0.00    +0.047 C 
ATOM      7  C   UNL     1      -5.149 -10.766   1.800  0.00  0.00    +0.064 C 
ATOM      8  C   UNL     1      -6.408 -10.004   1.386  0.00  0.00    +0.047 C 
ATOM      9  C   UNL     1      -6.306  -8.551   1.873  0.00  0.00    +0.110 C 
ATOM     10  C   UNL     1      -5.258 -12.204   1.369  0.00  0.00    +0.057 A 
ATOM     11  C   UNL     1      -4.917 -13.250   2.156  0.00  0.00    +0.039 A 
ATOM     12  N   UNL     1      -5.138 -14.372   1.470  0.00  0.00    -0.349 N 
ATOM     13  C   UNL     1      -5.602 -14.065   0.285  0.00  0.00    +0.171 A 
ATOM     14  N   UNL     1      -5.689 -12.718   0.187  0.00  0.00    -0.348 N 
ATOM     15  H   UNL     1      -6.001 -12.215  -0.582  0.00  0.00    +0.166 HD
ATOM     16  C   UNL     1      -4.383 -13.085   3.557  0.00  0.00    +0.070 C 
ATOM     17  C   UNL     1      -3.941 -11.625   3.725  0.00  0.00    +0.088 C 
ATOM     18  N   UNL     1      -5.009 -10.727   3.264  0.00  0.00    -0.305 NA
ATOM     19  H   UNL     1      -4.854  -9.784   3.588  0.00  0.00    +0.123 HD
ATOM     20  H   UNL     1      -4.980 -15.271   1.797  0.00  0.00    +0.166 HD
ENDBRANCH   1   2
BRANCH   1  23
ATOM     21  C   UNL     1      -2.784  -4.090  -0.173  0.00  0.00    +0.245 C 
ATOM     22  O   UNL     1      -1.690  -4.606  -0.050  0.00  0.00    -0.270 OA
ATOM     23  N   UNL     1      -3.896  -4.849  -0.134  0.00  0.00    -0.300 N 
ATOM     24  H   UNL     1      -4.769  -4.438  -0.232  0.00  0.00    +0.150 HD
BRANCH  21  27
ATOM     25  C   UNL     1      -1.851  -0.470  -0.591  0.00  0.00    +0.124 A 
ATOM     26  C   UNL     1      -1.743  -1.839  -0.409  0.00  0.00    +0.059 A 
ATOM     27  C   UNL     1      -2.893  -2.628  -0.367  0.00  0.00    +0.044 A 
ATOM     28  C   UNL     1      -4.148  -2.033  -0.510  0.00  0.00    +0.059 A 
ATOM     29  C   UNL     1      -4.246  -0.664  -0.692  0.00  0.00    +0.124 A 
ATOM     30  C   UNL     1      -3.100   0.117  -0.727  0.00  0.00    +0.091 A 
BRANCH  25  32
ATOM     31  C   UNL     1      -0.915   1.704  -0.817  0.00  0.00    +0.277 C 
ATOM     32  O   UNL     1      -0.731   0.299  -0.632  0.00  0.00    -0.495 OA
ENDBRANCH  25  32
BRANCH  29  33
ATOM     33  O   UNL     1      -5.467  -0.084  -0.830  0.00  0.00    -0.495 OA
ATOM     34  C   UNL     1      -5.495   1.333  -1.015  0.00  0.00    +0.277 C 
ENDBRANCH  29  33
ENDBRANCH  21  27
ENDBRANCH   1  23
BRANCH   1  35
ATOM     35  C   UNL     1      -3.550  -6.975  -1.293  0.00  0.00    +0.042 C 
BRANCH  35  36
ATOM     36  C   UNL     1      -2.183  -6.558  -1.839  0.00  0.00    +0.071 C 
BRANCH  36  37
ATOM     37  S   UNL     1      -1.901  -7.361  -3.441  0.00  0.00    -0.164 S 
ATOM     38  C   UNL     1      -0.262  -6.771  -3.946  0.00  0.00    +0.084 C 
ENDBRANCH  36  37
ENDBRANCH  35  36
ENDBRANCH   1  35
TORSDOF 8
