REMARK  Name = ZINC57458932
REMARK  7 active torsions:
REMARK  status: ('A' for Active; 'I' for Inactive)
REMARK    1  A    between atoms: C_1  and  C_2
REMARK    2  A    between atoms: C_3  and  C_21
REMARK    3  A    between atoms: C_4  and  C_11
REMARK    4  A    between atoms: N_9  and  C_10
REMARK    5  A    between atoms: C_14  and  O_20
REMARK    6  A    between atoms: C_15  and  N_17
REMARK    7  A    between atoms: N_23  and  C_24
REMARK                            x       y       z     vdW  Elec       q    Type
REMARK                         _______ _______ _______ _____ _____    ______ ____
ROOT
ATOM      1  C   UNL     1      -0.011   1.879   0.187  0.00  0.00    +0.061 C 
ATOM      2  C   UNL     1       0.078   0.385   0.013  0.00  0.00    +0.019 C 
ATOM      3  C   UNL     1      -1.042  -0.322  -0.250  0.00  0.00    +0.056 C 
ATOM      4  C   UNL     1      -0.907  -1.822  -0.418  0.00  0.00    +0.139 C 
ATOM      5  N   UNL     1       0.445  -2.389  -0.281  0.00  0.00    -0.315 N 
ATOM      6  C   UNL     1       1.468  -1.553  -0.017  0.00  0.00    +0.137 C 
ATOM      7  S   UNL     1       3.046  -2.199   0.145  0.00  0.00    -0.018 S 
ATOM      8  N   UNL     1       1.292  -0.232   0.117  0.00  0.00    -0.289 N 
ATOM      9  C   UNL     1       2.467   0.597   0.397  0.00  0.00    +0.137 C 
ATOM     10  H   UNL     1       0.595  -3.343  -0.377  0.00  0.00    +0.149 HD
ENDROOT
BRANCH   4  11
ATOM     11  C   UNL     1      -1.794  -2.485   0.603  0.00  0.00    -0.020 A 
ATOM     12  C   UNL     1      -1.412  -2.520   1.931  0.00  0.00    +0.009 A 
ATOM     13  C   UNL     1      -2.224  -3.128   2.869  0.00  0.00    +0.048 A 
ATOM     14  C   UNL     1      -3.425  -3.703   2.477  0.00  0.00    +0.147 A 
ATOM     15  C   UNL     1      -3.806  -3.667   1.144  0.00  0.00    +0.168 A 
ATOM     16  C   UNL     1      -2.992  -3.053   0.211  0.00  0.00    +0.042 A 
BRANCH  15  17
ATOM     17  N   UNL     1      -5.085  -4.280   0.722  0.00  0.00    +0.060 N 
ATOM     18  O   UNL     1      -5.417  -4.248  -0.440  0.00  0.00    -0.126 OA
ATOM     19  O   UNL     1      -5.798  -4.814   1.540  0.00  0.00    -0.126 OA
ENDBRANCH  15  17
BRANCH  14  20
ATOM     20  O   UNL     1      -4.225  -4.302   3.398  0.00  0.00    -0.504 OA
ATOM     21  H   UNL     1      -4.870  -3.708   3.804  0.00  0.00    +0.292 HD
ENDBRANCH  14  20
ENDBRANCH   4  11
BRANCH   3  22
ATOM     22  C   UNL     1      -2.300   0.317  -0.363  0.00  0.00    +0.248 C 
ATOM     23  O   UNL     1      -2.740   0.606  -1.462  0.00  0.00    -0.270 OA
ATOM     24  N   UNL     1      -3.012   0.606   0.745  0.00  0.00    -0.282 N 
ATOM     25  H   UNL     1      -2.622   0.465   1.622  0.00  0.00    +0.155 HD
BRANCH  24  26
ATOM     26  C   UNL     1      -4.312   1.110   0.629  0.00  0.00    +0.034 A 
ATOM     27  C   UNL     1      -5.117   0.722  -0.434  0.00  0.00    +0.026 A 
ATOM     28  C   UNL     1      -6.400   1.220  -0.546  0.00  0.00    +0.040 A 
ATOM     29  C   UNL     1      -6.885   2.107   0.401  0.00  0.00    +0.124 A 
ATOM     30  C   UNL     1      -6.084   2.495   1.462  0.00  0.00    +0.040 A 
ATOM     31  C   UNL     1      -4.803   1.994   1.581  0.00  0.00    +0.026 A 
ATOM     32  F   UNL     1      -8.140   2.593   0.289  0.00  0.00    -0.205 F 
ENDBRANCH  24  26
ENDBRANCH   3  22
TORSDOF 5
