REMARK  Name = ZINC66840691
REMARK  8 active torsions:
REMARK  status: ('A' for Active; 'I' for Inactive)
REMARK    1  A    between atoms: C_1  and  C_2
REMARK    2  A    between atoms: C_2  and  C_3
REMARK    3  A    between atoms: C_3  and  C_4
REMARK    4  A    between atoms: C_4  and  C_5
REMARK    5  A    between atoms: C_5  and  C_7
REMARK    6  A    between atoms: C_5  and  N_22
REMARK    7  A    between atoms: N_9  and  C_10
REMARK    8  A    between atoms: C_15  and  N_16
REMARK                            x       y       z     vdW  Elec       q    Type
REMARK                         _______ _______ _______ _____ _____    ______ ____
ROOT
ATOM      1  C   UNL     1       1.417  -4.051   2.530  0.00  0.00    +0.238 C 
ATOM      2  O   UNL     1       2.358  -4.726   2.168  0.00  0.00    -0.273 OA
ATOM      3  N   UNL     1       0.300  -4.646   2.993  0.00  0.00    -0.282 N 
ATOM      4  H   UNL     1      -0.420  -4.108   3.357  0.00  0.00    +0.155 HD
ENDROOT
BRANCH   3   5
ATOM      5  C   UNL     1       0.179  -6.040   2.949  0.00  0.00    +0.060 A 
ATOM      6  C   UNL     1       0.896  -6.770   2.012  0.00  0.00    +0.040 A 
ATOM      7  C   UNL     1       0.775  -8.147   1.970  0.00  0.00    +0.020 A 
ATOM      8  C   UNL     1      -0.060  -8.799   2.860  0.00  0.00    +0.017 A 
ATOM      9  C   UNL     1      -0.777  -8.079   3.796  0.00  0.00    +0.031 A 
ATOM     10  C   UNL     1      -0.657  -6.698   3.849  0.00  0.00    +0.087 A 
ATOM     11 BR   UNL     1       1.752  -9.141   0.692  0.00  0.00    -0.050 Br
BRANCH  10  12
ATOM     12  N   UNL     1      -1.380  -5.965   4.802  0.00  0.00    -0.238 N 
ATOM     13  C   UNL     1      -2.143  -6.482   5.791  0.00  0.00    +0.114 A 
ATOM     14  C   UNL     1      -2.666  -5.448   6.490  0.00  0.00    +0.041 A 
ATOM     15  C   UNL     1      -2.208  -4.260   5.910  0.00  0.00    +0.135 A 
ATOM     16  N   UNL     1      -1.433  -4.569   4.902  0.00  0.00    -0.175 NA
ENDBRANCH  10  12
ENDBRANCH   3   5
BRANCH   1  17
ATOM     17  C   UNL     1       1.498  -2.548   2.463  0.00  0.00    +0.161 C 
BRANCH  17  18
ATOM     18  N   UNL     1       2.903  -2.136   2.398  0.00  0.00    -0.288 N 
ATOM     19  C   UNL     1       3.680  -2.550   1.378  0.00  0.00    +0.298 C 
ATOM     20  O   UNL     1       3.215  -3.265   0.511  0.00  0.00    -0.253 OA
ATOM     21  N   UNL     1       4.972  -2.172   1.318  0.00  0.00    -0.313 N 
ATOM     22  H   UNL     1       3.274  -1.567   3.090  0.00  0.00    +0.151 HD
ATOM     23  H   UNL     1       5.343  -1.602   2.010  0.00  0.00    +0.146 HD
ATOM     24  H   UNL     1       5.531  -2.470   0.584  0.00  0.00    +0.146 HD
ENDBRANCH  17  18
BRANCH  17  25
ATOM     25  C   UNL     1       0.764  -2.053   1.215  0.00  0.00    +0.032 C 
BRANCH  25  26
ATOM     26  C   UNL     1       0.738  -0.523   1.212  0.00  0.00    +0.002 C 
BRANCH  26  28
ATOM     27  C   UNL     1      -0.022   1.502  -0.039  0.00  0.00    +0.004 C 
ATOM     28  C   UNL     1       0.004  -0.028  -0.036  0.00  0.00    -0.003 C 
ENDBRANCH  26  28
ENDBRANCH  25  26
ENDBRANCH  17  25
ENDBRANCH   1  17
TORSDOF 7
