REMARK  Name = ZINC39722498
REMARK  7 active torsions:
REMARK  status: ('A' for Active; 'I' for Inactive)
REMARK    1  A    between atoms: C_3  and  C_7
REMARK    2  A    between atoms: C_11  and  S_20
REMARK    3  A    between atoms: N_13  and  C_14
REMARK    4  A    between atoms: C_14  and  C_15
REMARK    5  A    between atoms: S_20  and  C_21
REMARK    6  A    between atoms: C_21  and  C_22
REMARK    7  A    between atoms: C_30  and  C_34
REMARK                            x       y       z     vdW  Elec       q    Type
REMARK                         _______ _______ _______ _____ _____    ______ ____
ROOT
ATOM      1  C   UNL     1       3.671   2.042   0.057  0.00  0.00    +0.051 C 
ATOM      2  N   UNL     1       3.445   3.299  -0.692  0.00  0.00    -0.267 NA
ATOM      3  N   UNL     1       4.707   3.531  -1.411  0.00  0.00    -0.262 NA
ATOM      4  C   UNL     1       5.122   2.161  -1.811  0.00  0.00    +0.078 C 
ATOM      5  N   UNL     1       4.740   1.313  -0.657  0.00  0.00    +0.415 N 
ATOM      6  H   UNL     1       3.241   4.062  -0.064  0.00  0.00    +0.139 HD
ATOM      7  H   UNL     1       4.560   4.115  -2.220  0.00  0.00    +0.140 HD
ATOM      8  H   UNL     1       4.396   0.422  -0.980  0.00  0.00    -0.075 HD
ENDROOT
BRANCH   1  11
ATOM      9  C   UNL     1       0.034   1.038   0.099  0.00  0.00    +0.020 A 
ATOM     10  C   UNL     1       1.168   1.836   0.082  0.00  0.00    +0.006 A 
ATOM     11  C   UNL     1       2.409   1.218   0.075  0.00  0.00    -0.028 A 
ATOM     12  C   UNL     1       2.474  -0.162   0.086  0.00  0.00    +0.114 A 
ATOM     13  N   UNL     1       1.374  -0.890   0.102  0.00  0.00    -0.263 NA
ATOM     14  C   UNL     1       0.177  -0.336   0.109  0.00  0.00    +0.111 A 
ENDBRANCH   1  11
BRANCH   5  15
ATOM     15  C   UNL     1       5.895   1.118   0.230  0.00  0.00    +0.003 C 
BRANCH  15  16
ATOM     16  C   UNL     1       5.498   0.234   1.384  0.00  0.00    +0.089 A 
ATOM     17  C   UNL     1       5.669  -1.099   1.449  0.00  0.00    +0.042 A 
ATOM     18  C   UNL     1       5.158  -1.517   2.699  0.00  0.00    +0.041 A 
ATOM     19  C   UNL     1       4.705  -0.415   3.323  0.00  0.00    +0.195 A 
ATOM     20  O   UNL     1       4.919   0.643   2.524  0.00  0.00    -0.470 OA
ENDBRANCH  15  16
ENDBRANCH   5  15
BRANCH   4  21
ATOM     21  S   UNL     1       6.913   2.095  -2.086  0.00  0.00    -0.152 S 
BRANCH  21  22
ATOM     22  C   UNL     1       7.144   2.927  -3.681  0.00  0.00    +0.143 C 
BRANCH  22  23
ATOM     23  C   UNL     1       8.617   3.051  -3.975  0.00  0.00    +0.120 A 
ATOM     24  N   UNL     1       8.998   3.748  -5.077  0.00  0.00    -0.310 N 
ATOM     25  H   UNL     1       8.324   4.149  -5.649  0.00  0.00    +0.170 HD
ATOM     26  C   UNL     1      10.308   3.889  -5.385  0.00  0.00    +0.259 A 
ATOM     27  O   UNL     1      10.663   4.511  -6.369  0.00  0.00    -0.267 OA
ATOM     28  C   UNL     1      11.288   3.259  -4.483  0.00  0.00    +0.065 A 
ATOM     29  C   UNL     1      12.659   3.347  -4.713  0.00  0.00    +0.016 A 
ATOM     30  C   UNL     1      13.533   2.748  -3.850  0.00  0.00    +0.016 A 
ATOM     31  C   UNL     1      13.063   2.045  -2.734  0.00  0.00    +0.065 A 
ATOM     32  C   UNL     1      11.698   1.946  -2.487  0.00  0.00    +0.043 A 
ATOM     33  C   UNL     1      10.797   2.554  -3.362  0.00  0.00    +0.079 A 
ATOM     34  N   UNL     1       9.457   2.490  -3.160  0.00  0.00    -0.233 NA
BRANCH  31  35
ATOM     35  C   UNL     1      14.024   1.404  -1.812  0.00  0.00    +0.387 C 
ATOM     36  O   UNL     1      15.225   1.488  -2.025  0.00  0.00    -0.241 OA
ATOM     37  O   UNL     1      13.619   0.789  -0.836  0.00  0.00    -0.241 OA
ENDBRANCH  31  35
ENDBRANCH  22  23
ENDBRANCH  21  22
ENDBRANCH   4  21
TORSDOF 7
