REMARK  Name = ZINC46772819
REMARK  9 active torsions:
REMARK  status: ('A' for Active; 'I' for Inactive)
REMARK    1  A    between atoms: C_1  and  C_2
REMARK    2  A    between atoms: C_2  and  C_3
REMARK    3  A    between atoms: C_2  and  C_4
REMARK    4  A    between atoms: C_7  and  C_10
REMARK    5  A    between atoms: C_12  and  C_15
REMARK    6  A    between atoms: N_17  and  N_18
REMARK    7  A    between atoms: N_18  and  C_19
REMARK    8  A    between atoms: C_19  and  N_21
REMARK    9  A    between atoms: N_21  and  C_22
REMARK                            x       y       z     vdW  Elec       q    Type
REMARK                         _______ _______ _______ _____ _____    ______ ____
ROOT
ATOM      1  C   UNL     1      -7.962  -3.892  -1.584  0.00  0.00    +0.279 C 
ATOM      2  O   UNL     1      -9.032  -4.355  -1.237  0.00  0.00    -0.267 OA
ATOM      3  N   UNL     1      -7.350  -4.365  -2.688  0.00  0.00    -0.230 N 
ATOM      4  H   UNL     1      -6.497  -3.996  -2.965  0.00  0.00    +0.173 HD
ENDROOT
BRANCH   1   7
ATOM      5  C   UNL     1      -5.644  -1.341  -0.435  0.00  0.00    +0.109 A 
ATOM      6  N   UNL     1      -6.170  -2.305  -1.168  0.00  0.00    -0.234 NA
ATOM      7  C   UNL     1      -7.335  -2.816  -0.798  0.00  0.00    +0.135 A 
ATOM      8  C   UNL     1      -7.949  -2.329   0.326  0.00  0.00    +0.080 A 
ATOM      9  S   UNL     1      -6.865  -1.154   0.852  0.00  0.00    -0.075 S 
BRANCH   5  13
ATOM     10  C   UNL     1      -1.989   0.754  -0.985  0.00  0.00    -0.045 A 
ATOM     11  C   UNL     1      -2.802   1.058   0.093  0.00  0.00    +0.004 A 
ATOM     12  C   UNL     1      -3.990   0.382   0.277  0.00  0.00    +0.011 A 
ATOM     13  C   UNL     1      -4.371  -0.611  -0.626  0.00  0.00    +0.007 A 
ATOM     14  C   UNL     1      -3.547  -0.912  -1.711  0.00  0.00    +0.011 A 
ATOM     15  C   UNL     1      -2.364  -0.225  -1.887  0.00  0.00    +0.004 A 
BRANCH  10  17
ATOM     16  C   UNL     1      -0.979   2.992  -1.334  0.00  0.00    +0.012 C 
ATOM     17  C   UNL     1      -0.692   1.497  -1.179  0.00  0.00    +0.013 C 
ATOM     18  C   UNL     1       0.211   1.274   0.035  0.00  0.00    +0.012 C 
ENDBRANCH  10  17
ENDBRANCH   5  13
ENDBRANCH   1   7
BRANCH   3  19
ATOM     19  N   UNL     1      -7.946  -5.389  -3.436  0.00  0.00    -0.245 N 
ATOM     20  H   UNL     1      -8.800  -5.758  -3.159  0.00  0.00    +0.172 HD
BRANCH  19  21
ATOM     21  C   UNL     1      -7.334  -5.861  -4.539  0.00  0.00    +0.151 C 
ATOM     22  S   UNL     1      -8.062  -7.112  -5.453  0.00  0.00    -0.017 S 
BRANCH  21  23
ATOM     23  N   UNL     1      -6.148  -5.349  -4.924  0.00  0.00    -0.295 N 
ATOM     24  H   UNL     1      -5.765  -4.598  -4.443  0.00  0.00    +0.154 HD
BRANCH  23  25
ATOM     25  C   UNL     1      -5.468  -5.900  -6.017  0.00  0.00    +0.051 A 
ATOM     26  C   UNL     1      -6.147  -6.156  -7.200  0.00  0.00    +0.026 A 
ATOM     27  C   UNL     1      -5.475  -6.700  -8.277  0.00  0.00    +0.022 A 
ATOM     28  C   UNL     1      -4.125  -6.989  -8.178  0.00  0.00    +0.042 A 
ATOM     29  C   UNL     1      -3.445  -6.735  -7.000  0.00  0.00    +0.041 A 
ATOM     30  C   UNL     1      -4.112  -6.186  -5.921  0.00  0.00    +0.063 A 
ATOM     31 CL   UNL     1      -3.258  -5.862  -4.445  0.00  0.00    -0.082 Cl
ATOM     32 CL   UNL     1      -3.283  -7.673  -9.534  0.00  0.00    -0.083 Cl
ENDBRANCH  23  25
ENDBRANCH  21  23
ENDBRANCH  19  21
ENDBRANCH   3  19
TORSDOF 7
