REMARK  Name = ZINC08430614
REMARK  10 active torsions:
REMARK  status: ('A' for Active; 'I' for Inactive)
REMARK    1  A    between atoms: C_1  and  C_2
REMARK    2  A    between atoms: C_2  and  O_3
REMARK    3  A    between atoms: O_3  and  C_4
REMARK    4  A    between atoms: C_7  and  C_12
REMARK    5  A    between atoms: C_9  and  O_10
REMARK    6  A    between atoms: O_10  and  C_11
REMARK    7  A    between atoms: C_17  and  C_27
REMARK    8  A    between atoms: C_30  and  C_33
REMARK    9  A    between atoms: C_33  and  C_34
REMARK   10  A    between atoms: C_33  and  C_35
REMARK                            x       y       z     vdW  Elec       q    Type
REMARK                         _______ _______ _______ _____ _____    ______ ____
ROOT
ATOM      1  C   UNL     1      -0.791   1.059  -0.987  0.00  0.00    +0.032 C 
ATOM      2  C   UNL     1      -0.713   2.583  -1.054  0.00  0.00    +0.059 C 
ATOM      3  C   UNL     1      -1.450   3.191   0.129  0.00  0.00    +0.017 C 
ATOM      4  C   UNL     1      -1.478   2.557   1.312  0.00  0.00    +0.036 C 
ATOM      5  C   UNL     1      -2.149   3.055   2.570  0.00  0.00    +0.136 C 
ATOM      6  N   UNL     1      -3.023   4.192   2.372  0.00  0.00    -0.331 N 
ATOM      7  C   UNL     1      -2.521   5.422   1.950  0.00  0.00    +0.049 A 
ATOM      8  C   UNL     1      -2.571   6.542   2.765  0.00  0.00    +0.025 A 
ATOM      9  C   UNL     1      -2.019   7.731   2.321  0.00  0.00    +0.002 A 
ATOM     10  C   UNL     1      -1.418   7.803   1.077  0.00  0.00    +0.002 A 
ATOM     11  C   UNL     1      -1.381   6.689   0.254  0.00  0.00    +0.025 A 
ATOM     12  C   UNL     1      -1.952   5.506   0.689  0.00  0.00    +0.052 A 
ATOM     13  N   UNL     1      -2.043   4.385  -0.127  0.00  0.00    -0.316 N 
ATOM     14  C   UNL     1      -0.837   1.302   1.466  0.00  0.00    +0.163 C 
ATOM     15  O   UNL     1      -0.855   0.761   2.554  0.00  0.00    -0.292 OA
ATOM     16  C   UNL     1      -0.141   0.615   0.329  0.00  0.00    +0.088 C 
ATOM     17  H   UNL     1      -3.974   4.096   2.535  0.00  0.00    +0.147 HD
ATOM     18  H   UNL     1      -2.570   4.461  -0.938  0.00  0.00    +0.152 HD
ENDROOT
BRANCH   1  22
ATOM     19  C   UNL     1       1.320  -0.648  -4.290  0.00  0.00    +0.162 A 
ATOM     20  C   UNL     1       1.977   0.188  -3.402  0.00  0.00    +0.050 A 
ATOM     21  C   UNL     1       1.292   0.738  -2.335  0.00  0.00    +0.008 A 
ATOM     22  C   UNL     1      -0.049   0.456  -2.151  0.00  0.00    -0.040 A 
ATOM     23  C   UNL     1      -0.709  -0.382  -3.031  0.00  0.00    +0.053 A 
ATOM     24  C   UNL     1      -0.030  -0.932  -4.106  0.00  0.00    +0.162 A 
BRANCH  24  25
ATOM     25  O   UNL     1      -0.679  -1.753  -4.974  0.00  0.00    -0.491 OA
ATOM     26  C   UNL     1      -2.064  -2.000  -4.722  0.00  0.00    +0.277 C 
ENDBRANCH  24  25
BRANCH  19  27
ATOM     27  O   UNL     1       1.993  -1.191  -5.341  0.00  0.00    -0.489 OA
BRANCH  27  29
ATOM     28  C   UNL     1       3.959  -1.554  -6.698  0.00  0.00    +0.048 C 
ATOM     29  C   UNL     1       3.376  -0.856  -5.468  0.00  0.00    +0.226 C 
ENDBRANCH  27  29
ENDBRANCH  19  27
ENDBRANCH   1  22
BRANCH   5  30
ATOM     30  C   UNL     1      -1.081   3.441   3.561  0.00  0.00    -0.023 A 
ATOM     31  C   UNL     1      -0.209   4.474   3.271  0.00  0.00    +0.006 A 
ATOM     32  C   UNL     1       0.768   4.830   4.181  0.00  0.00    +0.004 A 
ATOM     33  C   UNL     1       0.879   4.148   5.378  0.00  0.00    -0.045 A 
ATOM     34  C   UNL     1       0.011   3.111   5.666  0.00  0.00    +0.004 A 
ATOM     35  C   UNL     1      -0.968   2.757   4.757  0.00  0.00    +0.006 A 
BRANCH  33  36
ATOM     36  C   UNL     1       1.947   4.534   6.369  0.00  0.00    +0.013 C 
ATOM     37  C   UNL     1       3.324   4.374   5.723  0.00  0.00    +0.012 C 
ATOM     38  C   UNL     1       1.747   5.990   6.792  0.00  0.00    +0.012 C 
ENDBRANCH  33  36
ENDBRANCH   5  30
TORSDOF 6
