REMARK  Name = ZINC32971963
REMARK  16 active torsions:
REMARK  status: ('A' for Active; 'I' for Inactive)
REMARK    1  A    between atoms: C_1  and  C_2
REMARK    2  A    between atoms: C_2  and  C_3
REMARK    3  A    between atoms: C_2  and  C_4
REMARK    4  A    between atoms: C_4  and  N_5
REMARK    5  A    between atoms: C_6  and  N_38
REMARK    6  A    between atoms: C_7  and  N_14
REMARK    7  A    between atoms: N_14  and  C_15
REMARK    8  A    between atoms: C_15  and  C_16
REMARK    9  A    between atoms: C_16  and  C_17
REMARK   10  A    between atoms: C_16  and  C_18
REMARK   11  A    between atoms: C_19  and  C_21
REMARK   12  A    between atoms: C_21  and  N_22
REMARK   13  A    between atoms: N_22  and  C_23
REMARK   14  A    between atoms: C_24  and  C_26
REMARK   15  A    between atoms: C_27  and  C_28
REMARK   16  A    between atoms: C_31  and  C_34
REMARK                            x       y       z     vdW  Elec       q    Type
REMARK                         _______ _______ _______ _____ _____    ______ ____
ROOT
ATOM      1  N   UNL     1       1.079   2.052   0.066  0.00  0.00    -0.263 N 
ATOM      2  C   UNL     1      -0.095   1.394  -0.029  0.00  0.00    +0.237 C 
ATOM      3  O   UNL     1      -0.105   0.192  -0.196  0.00  0.00    -0.274 OA
ENDROOT
BRANCH   1   6
ATOM      4  N   UNL     1       4.303   0.668   1.158  0.00  0.00    -0.280 N 
ATOM      5  C   UNL     1       3.127   1.380   1.176  0.00  0.00    +0.127 A 
ATOM      6  C   UNL     1       2.293   1.332   0.078  0.00  0.00    +0.140 A 
ATOM      7  C   UNL     1       2.671   0.548  -1.028  0.00  0.00    +0.277 A 
ATOM      8  O   UNL     1       1.950   0.484  -2.010  0.00  0.00    -0.266 OA
ATOM      9  N   UNL     1       3.836  -0.126  -0.998  0.00  0.00    -0.273 N 
ATOM     10  H   UNL     1       4.143  -0.734  -1.862  0.00  0.00    +0.173 HD
ATOM     11  C   UNL     1       4.637  -0.068   0.082  0.00  0.00    +0.331 A 
ATOM     12  O   UNL     1       5.681  -0.690   0.085  0.00  0.00    -0.246 OA
BRANCH   5  13
ATOM     13  N   UNL     1       2.786   2.132   2.276  0.00  0.00    -0.343 N 
ATOM     14  H   UNL     1       1.844   2.699   2.283  0.00  0.00    +0.144 HD
ATOM     15  H   UNL     1       3.456   2.166   3.147  0.00  0.00    +0.144 HD
ENDBRANCH   5  13
BRANCH   4  16
ATOM     16  C   UNL     1       5.198   0.709   2.317  0.00  0.00    +0.131 C 
BRANCH  16  18
ATOM     17  C   UNL     1       5.839  -0.450   4.435  0.00  0.00    +0.009 C 
ATOM     18  C   UNL     1       4.828  -0.415   3.287  0.00  0.00    +0.003 C 
ATOM     19  C   UNL     1       3.427  -0.165   3.848  0.00  0.00    +0.009 C 
ENDBRANCH  16  18
ENDBRANCH   4  16
ENDBRANCH   1   6
BRANCH   1  20
ATOM     20  C   UNL     1       1.094   3.514   0.158  0.00  0.00    +0.117 C 
BRANCH  20  21
ATOM     21  C   UNL     1       1.179   4.113  -1.247  0.00  0.00    +0.001 C 
ATOM     22  C   UNL     1       1.016   5.632  -1.166  0.00  0.00    +0.009 C 
ATOM     23  C   UNL     1       2.538   3.778  -1.863  0.00  0.00    +0.009 C 
ENDBRANCH  20  21
ENDBRANCH   1  20
BRANCH   2  24
ATOM     24  C   UNL     1      -1.394   2.153   0.065  0.00  0.00    +0.204 C 
BRANCH  24  25
ATOM     25  N   UNL     1      -2.514   1.208   0.038  0.00  0.00    -0.292 N 
ATOM     26  C   UNL     1      -3.031   0.651   1.290  0.00  0.00    +0.133 C 
ATOM     27  C   UNL     1      -3.067   0.853  -1.138  0.00  0.00    +0.240 C 
ATOM     28  O   UNL     1      -2.637   1.315  -2.178  0.00  0.00    -0.271 OA
BRANCH  27  29
ATOM     29  C   UNL     1      -4.186  -0.091  -1.164  0.00  0.00    +0.068 C 
ATOM     30  C   UNL     1      -4.740  -0.447  -2.340  0.00  0.00    +0.013 C 
BRANCH  30  31
ATOM     31  C   UNL     1      -5.866  -1.396  -2.367  0.00  0.00    -0.025 A 
ATOM     32  C   UNL     1      -6.359  -1.934  -1.175  0.00  0.00    +0.008 A 
ATOM     33  C   UNL     1      -7.416  -2.819  -1.207  0.00  0.00    +0.013 A 
ATOM     34  C   UNL     1      -7.982  -3.182  -2.417  0.00  0.00    +0.055 A 
ATOM     35  C   UNL     1      -7.496  -2.657  -3.602  0.00  0.00    +0.013 A 
ATOM     36  C   UNL     1      -6.443  -1.768  -3.585  0.00  0.00    +0.008 A 
BRANCH  34  37
ATOM     37  C   UNL     1      -9.134  -4.153  -2.444  0.00  0.00    +0.417 C 
ATOM     38  F   UNL     1      -8.641  -5.458  -2.549  0.00  0.00    -0.166 F 
ATOM     39  F   UNL     1      -9.877  -4.029  -1.266  0.00  0.00    -0.166 F 
ATOM     40  F   UNL     1      -9.953  -3.875  -3.544  0.00  0.00    -0.166 F 
ENDBRANCH  34  37
ENDBRANCH  30  31
ENDBRANCH  27  29
ENDBRANCH  24  25
ENDBRANCH   2  24
TORSDOF 11
