REMARK  Name = ZINC45870801
REMARK  9 active torsions:
REMARK  status: ('A' for Active; 'I' for Inactive)
REMARK    1  A    between atoms: C_1  and  C_2
REMARK    2  A    between atoms: C_2  and  C_3
REMARK    3  A    between atoms: C_6  and  C_9
REMARK    4  A    between atoms: C_9  and  C_11
REMARK    5  A    between atoms: C_9  and  N_26
REMARK    6  A    between atoms: C_11  and  N_12
REMARK    7  A    between atoms: C_13  and  C_15
REMARK    8  A    between atoms: N_26  and  C_27
REMARK    9  A    between atoms: N_26  and  C_28
REMARK                            x       y       z     vdW  Elec       q    Type
REMARK                         _______ _______ _______ _____ _____    ______ ____
ROOT
ATOM      1  N   UNL     1       1.230  -3.958  -4.367  0.00  0.00    -0.313 N 
ATOM      2  C   UNL     1       1.032  -5.256  -4.062  0.00  0.00    +0.245 C 
ATOM      3  O   UNL     1       1.980  -6.009  -3.966  0.00  0.00    -0.270 OA
ATOM      4  H   UNL     1       0.470  -3.373  -4.511  0.00  0.00    +0.149 HD
ENDROOT
BRANCH   2   5
ATOM      5  C   UNL     1      -0.344  -5.765  -3.844  0.00  0.00    +0.051 A 
ATOM      6  C   UNL     1      -1.428  -4.965  -4.066  0.00  0.00    +0.083 A 
ATOM      7  C   UNL     1      -2.771  -5.495  -3.843  0.00  0.00    +0.250 A 
ATOM      8  N   UNL     1      -2.955  -6.758  -3.422  0.00  0.00    -0.322 N 
ATOM      9  C   UNL     1      -1.888  -7.598  -3.187  0.00  0.00    +0.050 A 
ATOM     10  C   UNL     1      -0.572  -7.146  -3.390  0.00  0.00    +0.011 A 
ATOM     11  C   UNL     1       0.504  -8.006  -3.154  0.00  0.00    +0.011 A 
ATOM     12  C   UNL     1       0.272  -9.284  -2.732  0.00  0.00    +0.001 A 
ATOM     13  C   UNL     1      -1.025  -9.738  -2.536  0.00  0.00    +0.002 A 
ATOM     14  C   UNL     1      -2.100  -8.904  -2.752  0.00  0.00    +0.026 A 
ATOM     15  O   UNL     1      -3.738  -4.781  -4.040  0.00  0.00    -0.268 OA
ATOM     16  H   UNL     1      -3.857  -7.085  -3.281  0.00  0.00    +0.169 HD
ENDBRANCH   2   5
BRANCH   1  17
ATOM     17  C   UNL     1       2.592  -3.433  -4.482  0.00  0.00    +0.094 C 
BRANCH  17  18
ATOM     18  C   UNL     1       2.538  -1.920  -4.704  0.00  0.00    -0.021 C 
BRANCH  18  22
ATOM     19  C   UNL     1       0.832  -0.038  -1.270  0.00  0.00    -0.048 A 
ATOM     20  C   UNL     1       0.056  -0.264  -2.391  0.00  0.00    +0.004 A 
ATOM     21  C   UNL     1       0.608  -0.873  -3.503  0.00  0.00    +0.002 A 
ATOM     22  C   UNL     1       1.936  -1.255  -3.493  0.00  0.00    -0.059 A 
ATOM     23  C   UNL     1       2.713  -1.028  -2.372  0.00  0.00    +0.002 A 
ATOM     24  C   UNL     1       2.162  -0.415  -1.262  0.00  0.00    +0.004 A 
BRANCH  19  26
ATOM     25  C   UNL     1       0.396   2.143  -0.172  0.00  0.00    +0.009 C 
ATOM     26  C   UNL     1       0.230   0.626  -0.058  0.00  0.00    +0.032 C 
ENDBRANCH  19  26
ENDBRANCH  18  22
BRANCH  18  27
ATOM     27  N   UNL     1       3.898  -1.407  -4.919  0.00  0.00    +0.382 N 
ATOM     28  C   UNL     1       4.454  -1.993  -6.147  0.00  0.00    -0.096 C 
ATOM     29  C   UNL     1       3.855   0.055  -5.051  0.00  0.00    -0.096 C 
ATOM     30  H   UNL     1       4.480  -1.658  -4.134  0.00  0.00    -0.082 HD
ENDBRANCH  18  27
ENDBRANCH  17  18
ENDBRANCH   1  17
TORSDOF 6
