REMARK  Name = ZINC59645654
REMARK  7 active torsions:
REMARK  status: ('A' for Active; 'I' for Inactive)
REMARK    1  A    between atoms: C_1  and  C_2
REMARK    2  A    between atoms: C_5  and  N_25
REMARK    3  A    between atoms: C_7  and  C_8
REMARK    4  A    between atoms: C_11  and  C_13
REMARK    5  A    between atoms: N_14  and  N_15
REMARK    6  A    between atoms: C_16  and  C_18
REMARK    7  A    between atoms: C_18  and  C_19
REMARK                            x       y       z     vdW  Elec       q    Type
REMARK                         _______ _______ _______ _____ _____    ______ ____
ROOT
ATOM      1  C   UNL     1       0.026  -0.023   2.451  0.00  0.00    +0.136 A 
ATOM      2  C   UNL     1      -0.843  -0.287   3.540  0.00  0.00    +0.050 A 
ATOM      3  C   UNL     1      -0.531   0.583   4.533  0.00  0.00    +0.051 A 
ATOM      4  C   UNL     1       0.576   1.410   4.026  0.00  0.00    +0.148 A 
ATOM      5  O   UNL     1       0.856   0.983   2.775  0.00  0.00    -0.454 OA
ENDROOT
BRANCH   1  12
ATOM      6  C   UNL     1      -0.018   1.503   0.010  0.00  0.00    +0.044 C 
ATOM      7  C   UNL     1       0.002  -0.004   0.002  0.00  0.00    -0.040 A 
ATOM      8  C   UNL     1       0.006  -0.683  -1.183  0.00  0.00    +0.006 A 
ATOM      9  C   UNL     1       0.025  -2.070  -1.194  0.00  0.00    +0.033 A 
ATOM     10  C   UNL     1       0.040  -2.784  -0.004  0.00  0.00    +0.127 A 
ATOM     11  C   UNL     1       0.036  -2.125   1.193  0.00  0.00    +0.044 A 
ATOM     12  C   UNL     1       0.023  -0.717   1.216  0.00  0.00    +0.022 A 
BRANCH  10  13
ATOM     13  N   UNL     1       0.060  -4.263  -0.032  0.00  0.00    +0.056 N 
ATOM     14  O   UNL     1       0.064  -4.901  -1.184  0.00  0.00    -0.126 OA
ATOM     15  O   UNL     1       0.075  -4.943   1.097  0.00  0.00    -0.126 OA
ENDBRANCH  10  13
ENDBRANCH   1  12
BRANCH   4  16
ATOM     16  C   UNL     1       1.216   2.436   4.708  0.00  0.00    +0.176 C 
ATOM     17  N   UNL     1       2.205   3.103   4.126  0.00  0.00    -0.185 NA
BRANCH  17  18
ATOM     18  N   UNL     1       2.800   4.056   4.760  0.00  0.00    -0.207 N 
ATOM     19  C   UNL     1       3.804   4.734   4.169  0.00  0.00    +0.238 C 
ATOM     20  O   UNL     1       4.147   4.449   3.046  0.00  0.00    -0.274 OA
ATOM     21  H   UNL     1       2.525   4.285   5.661  0.00  0.00    +0.177 HD
BRANCH  19  22
ATOM     22  C   UNL     1       4.500   5.848   4.909  0.00  0.00    +0.153 C 
BRANCH  22  23
ATOM     23  C   UNL     1       5.575   6.438   4.034  0.00  0.00    +0.059 A 
ATOM     24  C   UNL     1       5.617   7.764   3.761  0.00  0.00    +0.072 A 
ATOM     25  S   UNL     1       7.062   7.844   2.716  0.00  0.00    -0.061 S 
ATOM     26  C   UNL     1       7.456   6.208   2.737  0.00  0.00    +0.156 A 
ATOM     27  N   UNL     1       6.523   5.685   3.504  0.00  0.00    -0.230 NA
ATOM     28  N   UNL     1       8.510   5.568   2.104  0.00  0.00    -0.338 N 
ATOM     29  H   UNL     1       9.135   6.078   1.566  0.00  0.00    +0.144 HD
ATOM     30  H   UNL     1       8.623   4.609   2.200  0.00  0.00    +0.144 HD
ENDBRANCH  22  23
ENDBRANCH  19  22
ENDBRANCH  17  18
ENDBRANCH   4  16
TORSDOF 6
