REMARK  Name = ZINC63383588
REMARK  7 active torsions:
REMARK  status: ('A' for Active; 'I' for Inactive)
REMARK    1  A    between atoms: C_1  and  C_2
REMARK    2  A    between atoms: C_16  and  C_19
REMARK    3  A    between atoms: C_19  and  C_20
REMARK    4  A    between atoms: N_31  and  C_34
REMARK    5  A    between atoms: C_34  and  C_35
REMARK    6  A    between atoms: C_35  and  O_36
REMARK    7  A    between atoms: O_36  and  C_37
REMARK                            x       y       z     vdW  Elec       q    Type
REMARK                         _______ _______ _______ _____ _____    ______ ____
ROOT
ATOM      1  C   UNL     1      -0.018   1.503   0.010  0.00  0.00    +0.045 C 
ATOM      2  C   UNL     1       0.002  -0.004   0.002  0.00  0.00    -0.029 A 
ATOM      3  C   UNL     1       0.006  -0.685  -1.198  0.00  0.00    +0.005 A 
ATOM      4  C   UNL     1       0.025  -2.068  -1.216  0.00  0.00    +0.001 A 
ATOM      5  C   UNL     1       0.041  -2.772  -0.024  0.00  0.00    +0.008 A 
ATOM      6  C   UNL     1       0.038  -2.096   1.175  0.00  0.00    +0.004 A 
ATOM      7  C   UNL     1       0.023  -0.705   1.205  0.00  0.00    +0.042 A 
ATOM      8  N   UNL     1       0.026  -0.250   2.526  0.00  0.00    -0.283 N 
ATOM      9  C   UNL     1       0.045  -1.264   3.412  0.00  0.00    +0.243 C 
ATOM     10  O   UNL     1       0.047  -1.169   4.621  0.00  0.00    -0.273 OA
ATOM     11  C   UNL     1       0.052  -2.538   2.611  0.00  0.00    +0.136 C 
ATOM     12  C   UNL     1      -1.150  -3.430   2.940  0.00  0.00    +0.122 C 
ATOM     13  C   UNL     1      -0.600  -4.467   3.959  0.00  0.00    +0.107 C 
ATOM     14  C   UNL     1       0.886  -4.091   4.143  0.00  0.00    +0.072 C 
ATOM     15  N   UNL     1       1.250  -3.342   2.919  0.00  0.00    -0.295 NA
ATOM     16  C   UNL     1      -1.367  -4.151   5.224  0.00  0.00    +0.227 C 
ATOM     17  O   UNL     1      -1.244  -4.732   6.281  0.00  0.00    -0.275 OA
ATOM     18  N   UNL     1      -2.202  -3.131   4.995  0.00  0.00    -0.239 N 
ATOM     19  C   UNL     1      -2.169  -2.645   3.733  0.00  0.00    +0.228 C 
ATOM     20  O   UNL     1      -2.839  -1.732   3.302  0.00  0.00    -0.275 OA
ATOM     21  H   UNL     1       0.015   0.687   2.776  0.00  0.00    +0.155 HD
ATOM     22  H   UNL     1       1.461  -3.979   2.166  0.00  0.00    +0.124 HD
ENDROOT
BRANCH  14  23
ATOM     23  C   UNL     1       1.739  -5.353   4.291  0.00  0.00    +0.052 C 
BRANCH  23  24
ATOM     24  C   UNL     1       3.164  -4.963   4.591  0.00  0.00    -0.040 C 
ATOM     25  C   UNL     1       3.742  -4.871   5.811  0.00  0.00    -0.001 A 
ATOM     26  C   UNL     1       3.237  -5.098   7.170  0.00  0.00    +0.010 A 
ATOM     27  C   UNL     1       4.073  -4.921   8.218  0.00  0.00    +0.001 A 
ATOM     28  C   UNL     1       5.407  -4.528   8.039  0.00  0.00    +0.002 A 
ATOM     29  C   UNL     1       5.943  -4.302   6.821  0.00  0.00    +0.026 A 
ATOM     30  C   UNL     1       5.154  -4.457   5.648  0.00  0.00    +0.043 A 
ATOM     31  N   UNL     1       5.438  -4.299   4.378  0.00  0.00    -0.380 N 
ATOM     32  C   UNL     1       4.238  -4.601   3.590  0.00  0.00    +0.144 C 
ATOM     33  H   UNL     1       6.298  -4.031   4.019  0.00  0.00    +0.160 HD
ENDBRANCH  23  24
ENDBRANCH  14  23
BRANCH  18  34
ATOM     34  C   UNL     1      -3.089  -2.587   6.026  0.00  0.00    +0.144 C 
BRANCH  34  35
ATOM     35  C   UNL     1      -2.369  -1.465   6.777  0.00  0.00    +0.179 C 
BRANCH  35  36
ATOM     36  O   UNL     1      -2.115  -0.379   5.884  0.00  0.00    -0.381 OA
ATOM     37  C   UNL     1      -1.442   0.727   6.489  0.00  0.00    +0.194 C 
ENDBRANCH  35  36
ENDBRANCH  34  35
ENDBRANCH  18  34
TORSDOF 5
