REMARK  Name = ZINC12642008
REMARK  5 active torsions:
REMARK  status: ('A' for Active; 'I' for Inactive)
REMARK    1  A    between atoms: C_1  and  C_2
REMARK    2  A    between atoms: C_2  and  C_4
REMARK    3  A    between atoms: C_2  and  N_20
REMARK    4  A    between atoms: N_9  and  C_10
REMARK    5  A    between atoms: N_20  and  C_21
REMARK                            x       y       z     vdW  Elec       q    Type
REMARK                         _______ _______ _______ _____ _____    ______ ____
ROOT
ATOM      1  C   UNL     1       4.832  -4.006   0.228  0.00  0.00    +0.240 C 
ATOM      2  O   UNL     1       3.790  -4.627   0.236  0.00  0.00    -0.273 OA
ATOM      3  N   UNL     1       4.814  -2.662   0.134  0.00  0.00    -0.238 N 
ATOM      4  C   UNL     1       3.639  -2.008   0.050  0.00  0.00    +0.310 C 
ATOM      5  O   UNL     1       2.595  -2.630   0.059  0.00  0.00    -0.252 OA
ATOM      6  N   UNL     1       3.622  -0.663  -0.044  0.00  0.00    -0.269 N 
ATOM      7  H   UNL     1       5.647  -2.166   0.127  0.00  0.00    +0.159 HD
ATOM      8  H   UNL     1       4.454  -0.172  -0.128  0.00  0.00    +0.156 HD
ENDROOT
BRANCH   6   9
ATOM      9  C   UNL     1       2.401   0.025  -0.019  0.00  0.00    +0.038 A 
ATOM     10  C   UNL     1       1.346  -0.460   0.741  0.00  0.00    +0.027 A 
ATOM     11  C   UNL     1       0.142   0.218   0.766  0.00  0.00    +0.051 A 
ATOM     12  C   UNL     1      -0.015   1.384   0.032  0.00  0.00    +0.162 A 
ATOM     13  C   UNL     1       1.040   1.874  -0.728  0.00  0.00    +0.164 A 
ATOM     14  C   UNL     1       2.247   1.192  -0.753  0.00  0.00    +0.072 A 
ATOM     15  O   UNL     1       0.907   3.021  -1.448  0.00  0.00    -0.485 OA
ATOM     16  C   UNL     1      -0.428   3.474  -1.696  0.00  0.00    +0.270 C 
ATOM     17  C   UNL     1      -1.214   3.397  -0.381  0.00  0.00    +0.270 C 
ATOM     18  O   UNL     1      -1.212   2.035   0.062  0.00  0.00    -0.485 OA
ENDBRANCH   6   9
BRANCH   1  20
ATOM     19  C   UNL     1       6.902  -4.271   1.567  0.00  0.00    +0.038 C 
ATOM     20  C   UNL     1       6.146  -4.738   0.322  0.00  0.00    +0.154 C 
BRANCH  20  21
ATOM     21  N   UNL     1       5.897  -6.179   0.413  0.00  0.00    -0.333 N 
ATOM     22  H   UNL     1       5.053  -6.504   0.764  0.00  0.00    +0.147 HD
BRANCH  21  23
ATOM     23  C   UNL     1       6.874  -7.085  -0.005  0.00  0.00    +0.028 A 
ATOM     24  C   UNL     1       8.082  -6.622  -0.513  0.00  0.00    +0.023 A 
ATOM     25  C   UNL     1       9.046  -7.521  -0.919  0.00  0.00    +0.006 A 
ATOM     26  C   UNL     1       8.812  -8.884  -0.833  0.00  0.00    -0.044 A 
ATOM     27  C   UNL     1       7.609  -9.348  -0.333  0.00  0.00    -0.042 A 
ATOM     28  C   UNL     1       6.641  -8.450   0.081  0.00  0.00    +0.026 A 
ATOM     29  C   UNL     1       7.601 -10.862  -0.343  0.00  0.00    +0.036 C 
ATOM     30  C   UNL     1       8.741 -11.266  -1.302  0.00  0.00    +0.009 C 
ATOM     31  C   UNL     1       9.693 -10.055  -1.213  0.00  0.00    +0.036 C 
ENDBRANCH  21  23
ENDBRANCH  20  21
ENDBRANCH   1  20
TORSDOF 4
