REMARK  Name = ZINC08824874
REMARK  8 active torsions:
REMARK  status: ('A' for Active; 'I' for Inactive)
REMARK    1  A    between atoms: C_6  and  S_7
REMARK    2  A    between atoms: S_7  and  C_8
REMARK    3  A    between atoms: C_8  and  C_9
REMARK    4  A    between atoms: C_9  and  C_10
REMARK    5  A    between atoms: C_10  and  O_12
REMARK    6  A    between atoms: O_12  and  C_13
REMARK    7  A    between atoms: C_13  and  C_14
REMARK    8  A    between atoms: N_16  and  C_17
REMARK                            x       y       z     vdW  Elec       q    Type
REMARK                         _______ _______ _______ _____ _____    ______ ____
ROOT
ATOM      1  C   UNL     1      -0.014   1.209   0.006  0.00  0.00    +0.255 C 
ATOM      2  O   UNL     1       0.003  -0.004   0.006  0.00  0.00    -0.272 OA
ATOM      3  N   UNL     1      -1.191   1.867   0.018  0.00  0.00    -0.282 N 
ATOM      4  H   UNL     1      -1.205   2.833   0.099  0.00  0.00    +0.155 HD
ENDROOT
BRANCH   3   5
ATOM      5  C   UNL     1      -2.393   1.154  -0.086  0.00  0.00    +0.050 A 
ATOM      6  C   UNL     1      -2.409  -0.090  -0.699  0.00  0.00    +0.052 A 
ATOM      7  C   UNL     1      -3.599  -0.793  -0.799  0.00  0.00    +0.069 A 
ATOM      8  C   UNL     1      -4.777  -0.246  -0.285  0.00  0.00    +0.068 A 
ATOM      9  C   UNL     1      -4.755   0.998   0.326  0.00  0.00    +0.045 A 
ATOM     10  C   UNL     1      -3.566   1.694   0.430  0.00  0.00    +0.041 A 
ATOM     11 BR   UNL     1      -3.535   3.387   1.271  0.00  0.00    -0.048 Br
ATOM     12  N   UNL     1      -5.791  -1.171  -0.532  0.00  0.00    -0.306 N 
ATOM     13  H   UNL     1      -6.725  -1.069  -0.288  0.00  0.00    +0.170 HD
ATOM     14  C   UNL     1      -5.254  -2.229  -1.168  0.00  0.00    +0.325 A 
ATOM     15  O   UNL     1      -5.868  -3.216  -1.528  0.00  0.00    -0.247 OA
ATOM     16  N   UNL     1      -3.934  -2.031  -1.343  0.00  0.00    -0.306 N 
ATOM     17  H   UNL     1      -3.320  -2.646  -1.775  0.00  0.00    +0.170 HD
ENDBRANCH   3   5
BRANCH   1  18
ATOM     18  C   UNL     1       1.280   1.980  -0.014  0.00  0.00    +0.328 C 
BRANCH  18  19
ATOM     19  O   UNL     1       2.397   1.052  -0.031  0.00  0.00    -0.455 OA
BRANCH  19  20
ATOM     20  C   UNL     1       3.630   1.582  -0.050  0.00  0.00    +0.308 C 
ATOM     21  O   UNL     1       3.771   2.782  -0.053  0.00  0.00    -0.251 OA
BRANCH  20  22
ATOM     22  C   UNL     1       4.837   0.681  -0.068  0.00  0.00    +0.131 C 
BRANCH  22  23
ATOM     23  C   UNL     1       6.109   1.532  -0.088  0.00  0.00    +0.085 C 
BRANCH  23  24
ATOM     24  S   UNL     1       7.562   0.447  -0.110  0.00  0.00    -0.125 S 
BRANCH  24  30
ATOM     25  C   UNL     1       8.704   2.934  -0.134  0.00  0.00    +0.016 A 
ATOM     26  C   UNL     1       9.775   3.805  -0.145  0.00  0.00    +0.021 A 
ATOM     27  C   UNL     1      11.069   3.313  -0.165  0.00  0.00    +0.041 A 
ATOM     28  C   UNL     1      11.293   1.948  -0.168  0.00  0.00    +0.021 A 
ATOM     29  C   UNL     1      10.226   1.071  -0.151  0.00  0.00    +0.016 A 
ATOM     30  C   UNL     1       8.926   1.562  -0.131  0.00  0.00    +0.008 A 
ATOM     31 CL   UNL     1      12.413   4.412  -0.187  0.00  0.00    -0.084 Cl
ENDBRANCH  24  30
ENDBRANCH  23  24
ENDBRANCH  22  23
ENDBRANCH  20  22
ENDBRANCH  19  20
ENDBRANCH  18  19
ENDBRANCH   1  18
TORSDOF 8
