REMARK  Name = ZINC09884413
REMARK  7 active torsions:
REMARK  status: ('A' for Active; 'I' for Inactive)
REMARK    1  A    between atoms: C_1  and  C_2
REMARK    2  A    between atoms: C_5  and  S_26
REMARK    3  A    between atoms: C_7  and  N_8
REMARK    4  A    between atoms: C_9  and  C_11
REMARK    5  A    between atoms: C_11  and  N_64
REMARK    6  A    between atoms: C_15  and  C_17
REMARK    7  A    between atoms: S_26  and  N_29
REMARK                            x       y       z     vdW  Elec       q    Type
REMARK                         _______ _______ _______ _____ _____    ______ ____
ROOT
ATOM      1  N   UNL     1       1.386   1.593   2.433  0.00  0.00    -0.287 N 
ATOM      2  C   UNL     1       2.100   1.917   3.530  0.00  0.00    +0.201 C 
ATOM      3  O   UNL     1       1.534   2.308   4.529  0.00  0.00    -0.278 OA
ATOM      4  H   UNL     1       1.832   1.220   1.657  0.00  0.00    +0.155 HD
ENDROOT
BRANCH   1  11
ATOM      5  C   UNL     1       0.173   2.360  -0.024  0.00  0.00    +0.045 C 
ATOM      6  C   UNL     1      -0.631   2.172   1.237  0.00  0.00    -0.029 A 
ATOM      7  C   UNL     1      -1.996   2.378   1.223  0.00  0.00    +0.007 A 
ATOM      8  C   UNL     1      -2.736   2.200   2.378  0.00  0.00    +0.029 A 
ATOM      9  C   UNL     1      -2.109   1.827   3.553  0.00  0.00    +0.107 A 
ATOM     10  C   UNL     1      -0.743   1.625   3.575  0.00  0.00    +0.052 A 
ATOM     11  C   UNL     1       0.002   1.797   2.415  0.00  0.00    +0.038 A 
BRANCH   9  12
ATOM     12  S   UNL     1      -3.054   1.609   5.024  0.00  0.00    +0.061 S 
ATOM     13  O   UNL     1      -4.385   1.328   4.613  0.00  0.00    -0.153 OA
ATOM     14  O   UNL     1      -2.312   0.729   5.857  0.00  0.00    -0.153 OA
BRANCH  12  15
ATOM     15  N   UNL     1      -3.097   3.071   5.799  0.00  0.00    -0.177 NA
ATOM     16  C   UNL     1      -2.068   3.426   6.786  0.00  0.00    +0.109 C 
ATOM     17  C   UNL     1      -1.456   4.779   6.389  0.00  0.00    +0.017 C 
ATOM     18  C   UNL     1      -2.573   5.815   6.246  0.00  0.00    +0.003 C 
ATOM     19  C   UNL     1      -3.537   5.379   5.140  0.00  0.00    +0.017 C 
ATOM     20  C   UNL     1      -4.169   4.036   5.519  0.00  0.00    +0.109 C 
ENDBRANCH  12  15
ENDBRANCH   9  12
ENDBRANCH   1  11
BRANCH   2  21
ATOM     21  C   UNL     1       3.602   1.793   3.515  0.00  0.00    +0.020 C 
BRANCH  21  26
ATOM     22  C   UNL     1       3.798   1.220   5.864  0.00  0.00    -0.077 C 
ATOM     23  C   UNL     1       5.123   0.749   6.499  0.00  0.00    -0.020 C 
ATOM     24  C   UNL     1       6.100   1.909   6.170  0.00  0.00    -0.010 C 
ATOM     25  C   UNL     1       5.611   2.341   4.765  0.00  0.00    -0.011 C 
ATOM     26  N   UNL     1       4.141   2.215   4.834  0.00  0.00    +0.391 N 
ATOM     27  H   UNL     1       3.734   3.122   5.088  0.00  0.00    -0.080 HD
BRANCH  25  28
ATOM     28  C   UNL     1       5.994   3.772   4.494  0.00  0.00    +0.066 A 
ATOM     29  N   UNL     1       6.885   4.226   3.657  0.00  0.00    -0.246 NA
ATOM     30  C   UNL     1       7.134   5.544   3.508  0.00  0.00    +0.078 A 
ATOM     31  C   UNL     1       8.058   6.184   2.653  0.00  0.00    +0.029 A 
ATOM     32  C   UNL     1       8.169   7.540   2.640  0.00  0.00    +0.002 A 
ATOM     33  C   UNL     1       7.386   8.342   3.459  0.00  0.00    +0.001 A 
ATOM     34  C   UNL     1       6.470   7.754   4.310  0.00  0.00    +0.017 A 
ATOM     35  C   UNL     1       6.351   6.385   4.330  0.00  0.00    +0.039 A 
ATOM     36  S   UNL     1       5.350   5.215   5.213  0.00  0.00    -0.074 S 
ENDBRANCH  25  28
ENDBRANCH  21  26
ENDBRANCH   2  21
TORSDOF 6
