REMARK  Name = ZINC49964983
REMARK  6 active torsions:
REMARK  status: ('A' for Active; 'I' for Inactive)
REMARK    1  A    between atoms: C_1  and  N_2
REMARK    2  A    between atoms: N_2  and  C_3
REMARK    3  A    between atoms: N_2  and  C_10
REMARK    4  A    between atoms: C_12  and  N_20
REMARK    5  A    between atoms: C_14  and  S_16
REMARK    6  A    between atoms: S_16  and  N_19
REMARK                            x       y       z     vdW  Elec       q    Type
REMARK                         _______ _______ _______ _____ _____    ______ ____
ROOT
ATOM      1  C   UNL     1       0.039  -0.708  -1.204  0.00  0.00    +0.037 A 
ATOM      2  C   UNL     1      -0.020  -2.095  -1.201  0.00  0.00    +0.046 A 
ATOM      3  C   UNL     1       0.017  -2.790  -2.401  0.00  0.00    +0.028 A 
ATOM      4  C   UNL     1       0.113  -2.097  -3.602  0.00  0.00    +0.051 A 
ATOM      5  C   UNL     1       0.172  -0.717  -3.601  0.00  0.00    +0.109 A 
ATOM      6  C   UNL     1       0.130  -0.021  -2.408  0.00  0.00    +0.052 A 
ENDROOT
BRANCH   5   7
ATOM      7  S   UNL     1       0.294   0.159  -5.126  0.00  0.00    +0.056 S 
ATOM      8  O   UNL     1       0.883   1.416  -4.826  0.00  0.00    -0.153 OA
ATOM      9  O   UNL     1       0.860  -0.743  -6.067  0.00  0.00    -0.153 OA
BRANCH   7  10
ATOM     10  N   UNL     1      -1.251   0.469  -5.637  0.00  0.00    -0.204 NA
ATOM     11  H   UNL     1      -2.006   0.172  -5.106  0.00  0.00    +0.144 HD
ATOM     12  H   UNL     1      -1.400   0.948  -6.467  0.00  0.00    +0.144 HD
ENDBRANCH   7  10
ENDBRANCH   5   7
BRANCH   3  13
ATOM     13  N   UNL     1      -0.042  -4.186  -2.402  0.00  0.00    -0.358 N 
ATOM     14  H   UNL     1      -0.109  -4.669  -1.564  0.00  0.00    +0.142 HD
ATOM     15  H   UNL     1      -0.017  -4.671  -3.242  0.00  0.00    +0.142 HD
ENDBRANCH   3  13
BRANCH   1  17
ATOM     16  C   UNL     1      -1.284   0.404   0.573  0.00  0.00    +0.135 C 
ATOM     17  N   UNL     1       0.002  -0.004   0.002  0.00  0.00    -0.303 N 
BRANCH  17  18
ATOM     18  C   UNL     1       1.193   0.311   0.665  0.00  0.00    +0.034 A 
ATOM     19  C   UNL     1       2.404  -0.168   0.184  0.00  0.00    +0.026 A 
ATOM     20  C   UNL     1       3.579   0.145   0.839  0.00  0.00    +0.040 A 
ATOM     21  C   UNL     1       3.549   0.936   1.976  0.00  0.00    +0.124 A 
ATOM     22  C   UNL     1       2.342   1.414   2.458  0.00  0.00    +0.040 A 
ATOM     23  C   UNL     1       1.166   1.109   1.802  0.00  0.00    +0.026 A 
ATOM     24  F   UNL     1       4.699   1.240   2.616  0.00  0.00    -0.205 F 
ENDBRANCH  17  18
ENDBRANCH   1  17
TORSDOF 5
