REMARK  Name = ZINC65441205
REMARK  8 active torsions:
REMARK  status: ('A' for Active; 'I' for Inactive)
REMARK    1  A    between atoms: C_1  and  C_2
REMARK    2  A    between atoms: C_6  and  N_8
REMARK    3  A    between atoms: C_9  and  C_11
REMARK    4  A    between atoms: N_19  and  C_20
REMARK    5  A    between atoms: C_20  and  C_21
REMARK    6  A    between atoms: N_24  and  C_26
REMARK    7  A    between atoms: C_26  and  C_27
REMARK    8  A    between atoms: C_26  and  C_28
REMARK                            x       y       z     vdW  Elec       q    Type
REMARK                         _______ _______ _______ _____ _____    ______ ____
ROOT
ATOM      1  C   UNL     1      -0.128  -4.677   3.797  0.00  0.00    +0.093 C 
ATOM      2  C   UNL     1      -0.212  -6.189   3.576  0.00  0.00    +0.016 C 
ATOM      3  C   UNL     1      -0.350  -6.897   4.926  0.00  0.00    +0.020 C 
ATOM      4  C   UNL     1       0.886  -6.601   5.782  0.00  0.00    +0.109 C 
ATOM      5  N   UNL     1       1.057  -5.145   5.878  0.00  0.00    -0.285 N 
ATOM      6  C   UNL     1       1.110  -4.356   4.640  0.00  0.00    +0.122 C 
ATOM      7  C   UNL     1       1.162  -4.545   7.080  0.00  0.00    +0.302 C 
ATOM      8  O   UNL     1       1.207  -3.332   7.152  0.00  0.00    -0.253 OA
ATOM      9  N   UNL     1       1.217  -5.289   8.203  0.00  0.00    -0.299 N 
ATOM     10  H   UNL     1       1.109  -6.251   8.153  0.00  0.00    +0.150 HD
ENDROOT
BRANCH   1  12
ATOM     11  N   UNL     1       0.064  -2.635   2.415  0.00  0.00    -0.270 N 
ATOM     12  C   UNL     1      -0.025  -3.979   2.466  0.00  0.00    +0.223 C 
ATOM     13  O   UNL     1      -0.022  -4.626   1.440  0.00  0.00    -0.275 OA
ATOM     14  H   UNL     1       0.136  -2.122   3.235  0.00  0.00    +0.156 HD
BRANCH  11  20
ATOM     15  C   UNL     1       0.053  -2.965  -2.363  0.00  0.00    +0.065 C 
ATOM     16  C   UNL     1       0.048  -2.113  -1.121  0.00  0.00    +0.040 A 
ATOM     17  C   UNL     1       0.034  -0.736  -1.237  0.00  0.00    +0.023 A 
ATOM     18  C   UNL     1       0.030   0.043  -0.089  0.00  0.00    +0.005 A 
ATOM     19  C   UNL     1       0.040  -0.593   1.141  0.00  0.00    +0.044 A 
ATOM     20  C   UNL     1       0.053  -1.982   1.183  0.00  0.00    +0.125 A 
ATOM     21  N   UNL     1       0.052  -2.691   0.065  0.00  0.00    -0.237 NA
ENDBRANCH  11  20
ENDBRANCH   1  12
BRANCH   9  22
ATOM     22  C   UNL     1       1.441  -4.644   9.499  0.00  0.00    +0.107 C 
BRANCH  22  23
ATOM     23  C   UNL     1       1.460  -5.705  10.601  0.00  0.00    -0.012 C 
ATOM     24  C   UNL     1       0.046  -6.300  10.797  0.00  0.00    -0.015 C 
ATOM     25  C   UNL     1      -0.051  -6.463  12.334  0.00  0.00    -0.078 C 
ATOM     26  N   UNL     1       0.656  -5.262  12.849  0.00  0.00    +0.381 N 
ATOM     27  C   UNL     1       1.818  -5.064  11.954  0.00  0.00    -0.074 C 
ATOM     28  H   UNL     1       0.048  -4.458  12.812  0.00  0.00    -0.081 HD
BRANCH  26  29
ATOM     29  C   UNL     1       1.111  -5.494  14.226  0.00  0.00    -0.075 C 
ATOM     30  C   UNL     1       1.867  -4.261  14.727  0.00  0.00    -0.014 C 
ATOM     31  C   UNL     1      -0.099  -5.750  15.127  0.00  0.00    -0.014 C 
ENDBRANCH  26  29
ENDBRANCH  22  23
ENDBRANCH   9  22
TORSDOF 5
