REMARK  Name = ZINC13033444
REMARK  12 active torsions:
REMARK  status: ('A' for Active; 'I' for Inactive)
REMARK    1  A    between atoms: C_1  and  C_2
REMARK    2  A    between atoms: C_5  and  C_33
REMARK    3  A    between atoms: C_9  and  C_14
REMARK    4  A    between atoms: C_14  and  N_60
REMARK    5  A    between atoms: C_15  and  C_16
REMARK    6  A    between atoms: C_15  and  N_60
REMARK    7  A    between atoms: C_16  and  C_17
REMARK    8  A    between atoms: C_17  and  O_18
REMARK    9  A    between atoms: C_19  and  C_20
REMARK   10  A    between atoms: C_19  and  N_60
REMARK   11  A    between atoms: N_24  and  C_25
REMARK   12  A    between atoms: C_25  and  C_26
REMARK                            x       y       z     vdW  Elec       q    Type
REMARK                         _______ _______ _______ _____ _____    ______ ____
ROOT
ATOM      1  N   UNL     1      -0.158   1.645  -0.059  0.00  0.00    +0.387 N 
ATOM      2  H   UNL     1      -0.657   2.155   0.680  0.00  0.00    -0.081 HD
ENDROOT
BRANCH   1   3
ATOM      3  C   UNL     1      -0.504   2.238  -1.368  0.00  0.00    -0.037 C 
BRANCH   3  12
ATOM      4  C   UNL     1       3.067   5.847  -2.520  0.00  0.00    +0.044 C 
ATOM      5  C   UNL     1       1.872   6.566  -1.949  0.00  0.00    -0.041 A 
ATOM      6  C   UNL     1       1.886   7.927  -1.823  0.00  0.00    +0.004 A 
ATOM      7  C   UNL     1       0.791   8.598  -1.298  0.00  0.00    +0.005 A 
ATOM      8  C   UNL     1      -0.331   7.907  -0.894  0.00  0.00    -0.026 A 
ATOM      9  C   UNL     1      -0.367   6.522  -1.012  0.00  0.00    +0.052 A 
ATOM     10  C   UNL     1       0.745   5.844  -1.545  0.00  0.00    +0.002 A 
ATOM     11  C   UNL     1       0.697   4.386  -1.665  0.00  0.00    +0.017 A 
ATOM     12  C   UNL     1      -0.422   3.739  -1.257  0.00  0.00    +0.001 A 
ATOM     13  C   UNL     1      -1.513   4.466  -0.735  0.00  0.00    +0.251 A 
ATOM     14  O   UNL     1      -2.512   3.865  -0.378  0.00  0.00    -0.268 OA
ATOM     15  N   UNL     1      -1.476   5.805  -0.616  0.00  0.00    -0.322 N 
ATOM     16  H   UNL     1      -2.243   6.273  -0.249  0.00  0.00    +0.169 HD
ATOM     17  C   UNL     1      -1.513   8.649  -0.325  0.00  0.00    +0.046 C 
ENDBRANCH   3  12
ENDBRANCH   1   3
BRANCH   1  18
ATOM     18  C   UNL     1       1.297   1.759   0.178  0.00  0.00    -0.076 C 
BRANCH  18  19
ATOM     19  C   UNL     1       2.072   0.912  -0.832  0.00  0.00    +0.009 C 
BRANCH  19  20
ATOM     20  C   UNL     1       3.573   1.147  -0.650  0.00  0.00    +0.154 C 
BRANCH  20  21
ATOM     21  O   UNL     1       4.298   0.356  -1.593  0.00  0.00    -0.395 OA
ATOM     22  H   UNL     1       5.258   0.455  -1.535  0.00  0.00    +0.209 HD
ENDBRANCH  20  21
ENDBRANCH  19  20
ENDBRANCH  18  19
ENDBRANCH   1  18
BRANCH   1  23
ATOM     23  C   UNL     1      -0.566   0.225  -0.023  0.00  0.00    +0.001 C 
BRANCH  23  24
ATOM     24  C   UNL     1      -0.406  -0.291   1.384  0.00  0.00    +0.135 A 
ATOM     25  N   UNL     1       0.657  -0.868   1.889  0.00  0.00    -0.115 NA
ATOM     26  N   UNL     1       0.403  -1.163   3.118  0.00  0.00    -0.023 NA
ATOM     27  N   UNL     1      -0.797  -0.797   3.406  0.00  0.00    -0.044 NA
ATOM     28  N   UNL     1      -1.329  -0.255   2.363  0.00  0.00    -0.227 N 
BRANCH  28  29
ATOM     29  C   UNL     1      -2.682   0.297   2.263  0.00  0.00    +0.182 C 
BRANCH  29  30
ATOM     30  C   UNL     1      -3.633  -0.783   1.817  0.00  0.00    -0.026 A 
ATOM     31  C   UNL     1      -3.870  -0.982   0.470  0.00  0.00    +0.008 A 
ATOM     32  C   UNL     1      -4.739  -1.976   0.059  0.00  0.00    +0.038 A 
ATOM     33  C   UNL     1      -5.380  -2.765   0.999  0.00  0.00    +0.123 A 
ATOM     34  C   UNL     1      -5.146  -2.562   2.348  0.00  0.00    +0.038 A 
ATOM     35  C   UNL     1      -4.273  -1.571   2.756  0.00  0.00    +0.008 A 
ATOM     36  F   UNL     1      -6.232  -3.734   0.599  0.00  0.00    -0.205 F 
ENDBRANCH  29  30
ENDBRANCH  28  29
ENDBRANCH  23  24
ENDBRANCH   1  23
TORSDOF 10
