REMARK  Name = ZINC39752139
REMARK  9 active torsions:
REMARK  status: ('A' for Active; 'I' for Inactive)
REMARK    1  A    between atoms: C_1  and  C_2
REMARK    2  A    between atoms: C_8  and  O_9
REMARK    3  A    between atoms: O_9  and  C_10
REMARK    4  A    between atoms: C_13  and  C_16
REMARK    5  A    between atoms: C_16  and  O_18
REMARK    6  A    between atoms: O_18  and  C_19
REMARK    7  A    between atoms: C_19  and  C_21
REMARK    8  A    between atoms: C_19  and  C_22
REMARK    9  A    between atoms: C_22  and  C_24
REMARK                            x       y       z     vdW  Elec       q    Type
REMARK                         _______ _______ _______ _____ _____    ______ ____
ROOT
ATOM      1  C   UNL     1       6.106  -4.730  -6.054  0.00  0.00    +0.340 C 
ATOM      2  O   UNL     1       6.954  -5.421  -5.526  0.00  0.00    -0.245 OA
ENDROOT
BRANCH   1   6
ATOM      3  C   UNL     1       3.410  -2.482  -3.666  0.00  0.00    +0.128 A 
ATOM      4  C   UNL     1       4.381  -3.273  -3.059  0.00  0.00    +0.047 A 
ATOM      5  C   UNL     1       5.256  -4.003  -3.830  0.00  0.00    +0.018 A 
ATOM      6  C   UNL     1       5.169  -3.950  -5.225  0.00  0.00    +0.059 A 
ATOM      7  C   UNL     1       4.192  -3.153  -5.831  0.00  0.00    +0.018 A 
ATOM      8  C   UNL     1       3.317  -2.430  -5.053  0.00  0.00    +0.047 A 
BRANCH   3   9
ATOM      9  O   UNL     1       2.550  -1.764  -2.903  0.00  0.00    -0.460 OA
BRANCH   9  16
ATOM     10  C   UNL     1      -1.575  -0.456  -0.224  0.00  0.00    +0.062 C 
ATOM     11  C   UNL     1      -0.607   0.390  -1.053  0.00  0.00    +0.231 C 
ATOM     12  N   UNL     1       0.569  -0.407  -1.422  0.00  0.00    -0.300 N 
ATOM     13  C   UNL     1       0.615  -0.462  -2.816  0.00  0.00    +0.154 C 
ATOM     14  N   UNL     1      -0.460   0.252  -3.341  0.00  0.00    -0.247 N 
ATOM     15  O   UNL     1      -1.230   0.788  -2.280  0.00  0.00    -0.251 OA
ATOM     16  C   UNL     1       1.541  -1.097  -3.532  0.00  0.00    +0.238 C 
ATOM     17  H   UNL     1      -0.652   0.365  -4.285  0.00  0.00    +0.196 HD
ATOM     18  H   UNL     1       1.198  -0.819  -0.810  0.00  0.00    +0.150 HD
ENDBRANCH   9  16
ENDBRANCH   3   9
ENDBRANCH   1   6
BRANCH   1  19
ATOM     19  O   UNL     1       6.020  -4.677  -7.398  0.00  0.00    -0.450 OA
BRANCH  19  20
ATOM     20  C   UNL     1       6.959  -5.458  -8.139  0.00  0.00    +0.244 C 
ATOM     21  C   UNL     1       8.211  -4.623  -8.418  0.00  0.00    +0.061 C 
BRANCH  20  22
ATOM     22  C   UNL     1       6.339  -5.885  -9.444  0.00  0.00    +0.202 C 
ATOM     23  O   UNL     1       5.381  -5.283  -9.886  0.00  0.00    -0.288 OA
BRANCH  22  24
ATOM     24  C   UNL     1       6.871  -6.982 -10.153  0.00  0.00    +0.027 C 
ATOM     25  C   UNL     1       6.426  -7.495 -11.359  0.00  0.00    +0.006 A 
ATOM     26  C   UNL     1       5.372  -7.130 -12.229  0.00  0.00    +0.010 A 
ATOM     27  C   UNL     1       5.160  -7.824 -13.370  0.00  0.00    +0.001 A 
ATOM     28  C   UNL     1       5.954  -8.919 -13.745  0.00  0.00    +0.002 A 
ATOM     29  C   UNL     1       6.984  -9.349 -12.985  0.00  0.00    +0.026 A 
ATOM     30  C   UNL     1       7.285  -8.648 -11.725  0.00  0.00    +0.043 A 
ATOM     31  N   UNL     1       8.199  -8.843 -10.818  0.00  0.00    -0.380 N 
ATOM     32  C   UNL     1       8.052  -7.842  -9.757  0.00  0.00    +0.152 C 
ATOM     33  H   UNL     1       8.874  -9.540 -10.843  0.00  0.00    +0.160 HD
ENDBRANCH  22  24
ENDBRANCH  20  22
ENDBRANCH  19  20
ENDBRANCH   1  19
TORSDOF 7
