REMARK  Name = ZINC36587038
REMARK  15 active torsions:
REMARK  status: ('A' for Active; 'I' for Inactive)
REMARK    1  A    between atoms: C_1  and  C_2
REMARK    2  A    between atoms: C_2  and  C_3
REMARK    3  A    between atoms: C_2  and  C_4
REMARK    4  A    between atoms: C_2  and  N_5
REMARK    5  A    between atoms: C_6  and  C_8
REMARK    6  A    between atoms: C_8  and  C_10
REMARK    7  A    between atoms: C_8  and  N_19
REMARK    8  A    between atoms: C_13  and  N_16
REMARK    9  A    between atoms: N_19  and  C_30
REMARK   10  A    between atoms: C_20  and  C_22
REMARK   11  A    between atoms: C_26  and  O_29
REMARK   12  A    between atoms: C_27  and  O_28
REMARK   13  A    between atoms: C_30  and  C_31
REMARK   14  A    between atoms: C_30  and  C_32
REMARK   15  A    between atoms: C_30  and  C_33
REMARK                            x       y       z     vdW  Elec       q    Type
REMARK                         _______ _______ _______ _____ _____    ______ ____
ROOT
ATOM      1  C   UNL     1       7.454  -0.240  -0.269  0.00  0.00    +0.193 C 
ENDROOT
BRANCH   1   2
ATOM      2  C   UNL     1       8.645   0.192   0.547  0.00  0.00    -0.018 A 
ATOM      3  C   UNL     1       9.031   1.519   0.556  0.00  0.00    +0.008 A 
ATOM      4  C   UNL     1      10.124   1.916   1.304  0.00  0.00    +0.033 A 
ATOM      5  C   UNL     1      10.830   0.985   2.043  0.00  0.00    +0.126 A 
ATOM      6  C   UNL     1      10.443  -0.342   2.035  0.00  0.00    +0.033 A 
ATOM      7  C   UNL     1       9.348  -0.738   1.290  0.00  0.00    +0.008 A 
BRANCH   5   8
ATOM      8  N   UNL     1      12.001   1.409   2.844  0.00  0.00    +0.056 N 
ATOM      9  O   UNL     1      12.339   2.570   2.851  0.00  0.00    -0.126 OA
ATOM     10  O   UNL     1      12.618   0.595   3.490  0.00  0.00    -0.126 OA
ENDBRANCH   5   8
ENDBRANCH   1   2
BRANCH   1  12
ATOM     11  N   UNL     1       6.587  -1.882   1.366  0.00  0.00    -0.309 N 
ATOM     12  C   UNL     1       6.378  -0.760   0.650  0.00  0.00    +0.239 C 
ATOM     13  O   UNL     1       5.324  -0.168   0.744  0.00  0.00    -0.273 OA
ATOM     14  H   UNL     1       7.431  -2.355   1.291  0.00  0.00    +0.149 HD
BRANCH  11  16
ATOM     15  C   UNL     1       4.283  -2.697   1.446  0.00  0.00    +0.031 C 
ATOM     16  C   UNL     1       5.542  -2.387   2.259  0.00  0.00    +0.026 C 
ATOM     17  C   UNL     1       5.218  -1.329   3.316  0.00  0.00    +0.031 C 
ATOM     18  C   UNL     1       6.031  -3.662   2.948  0.00  0.00    +0.031 C 
ENDBRANCH  11  16
ENDBRANCH   1  12
BRANCH   1  19
ATOM     19  N   UNL     1       6.939   0.903  -1.026  0.00  0.00    -0.277 N 
ATOM     20  C   UNL     1       6.696   2.072  -0.399  0.00  0.00    +0.252 C 
ATOM     21  O   UNL     1       6.531   2.092   0.805  0.00  0.00    -0.270 OA
BRANCH  20  22
ATOM     22  C   UNL     1       6.628   3.325  -1.175  0.00  0.00    +0.082 A 
ATOM     23  C   UNL     1       5.727   3.446  -2.237  0.00  0.00    +0.017 A 
ATOM     24  C   UNL     1       5.667   4.618  -2.959  0.00  0.00    +0.005 A 
ATOM     25  C   UNL     1       6.495   5.681  -2.638  0.00  0.00    +0.049 A 
ATOM     26  C   UNL     1       7.393   5.576  -1.589  0.00  0.00    +0.159 A 
ATOM     27  C   UNL     1       7.462   4.401  -0.847  0.00  0.00    +0.171 A 
BRANCH  27  28
ATOM     28  O   UNL     1       8.336   4.296   0.185  0.00  0.00    -0.503 OA
ATOM     29  H   UNL     1       9.206   3.957  -0.068  0.00  0.00    +0.292 HD
ENDBRANCH  27  28
BRANCH  26  30
ATOM     30  O   UNL     1       8.203   6.624  -1.281  0.00  0.00    -0.503 OA
ATOM     31  H   UNL     1       7.825   7.237  -0.636  0.00  0.00    +0.292 HD
ENDBRANCH  26  30
ENDBRANCH  20  22
BRANCH  19  32
ATOM     32  C   UNL     1       6.690   0.778  -2.464  0.00  0.00    +0.030 C 
ATOM     33  C   UNL     1       7.462  -0.424  -3.012  0.00  0.00    +0.031 C 
ATOM     34  C   UNL     1       5.193   0.576  -2.706  0.00  0.00    +0.031 C 
ATOM     35  C   UNL     1       7.155   2.050  -3.175  0.00  0.00    +0.031 C 
ENDBRANCH  19  32
ENDBRANCH   1  19
TORSDOF 9
