REMARK  Name = ZINC39636954
REMARK  12 active torsions:
REMARK  status: ('A' for Active; 'I' for Inactive)
REMARK    1  A    between atoms: C_1  and  C_2
REMARK    2  A    between atoms: C_2  and  C_3
REMARK    3  A    between atoms: C_6  and  C_9
REMARK    4  A    between atoms: C_13  and  C_22
REMARK    5  A    between atoms: N_24  and  C_25
REMARK    6  A    between atoms: C_25  and  C_26
REMARK    7  A    between atoms: C_28  and  O_36
REMARK    8  A    between atoms: C_29  and  O_34
REMARK    9  A    between atoms: C_30  and  O_32
REMARK   10  A    between atoms: O_32  and  C_33
REMARK   11  A    between atoms: O_34  and  C_35
REMARK   12  A    between atoms: O_36  and  C_37
REMARK                            x       y       z     vdW  Elec       q    Type
REMARK                         _______ _______ _______ _____ _____    ______ ____
ROOT
ATOM      1  C   UNL     1       2.696  -1.870  -4.746  0.00  0.00    +0.247 C 
ATOM      2  O   UNL     1       2.134  -1.416  -3.769  0.00  0.00    -0.270 OA
ATOM      3  N   UNL     1       4.008  -2.174  -4.689  0.00  0.00    -0.296 N 
ATOM      4  C   UNL     1       4.907  -2.100  -3.513  0.00  0.00    +0.121 C 
ATOM      5  C   UNL     1       5.807  -3.350  -3.631  0.00  0.00    +0.100 C 
ATOM      6  C   UNL     1       5.785  -3.710  -5.126  0.00  0.00    -0.004 C 
ATOM      7  C   UNL     1       4.876  -2.663  -5.787  0.00  0.00    +0.115 C 
ATOM      8  C   UNL     1       7.193  -3.631  -5.709  0.00  0.00    -0.010 C 
ATOM      9  C   UNL     1       7.154  -4.049  -7.182  0.00  0.00    -0.082 C 
ATOM     10  N   UNL     1       6.634  -5.417  -7.291  0.00  0.00    +0.379 N 
ATOM     11  C   UNL     1       5.247  -5.465  -6.813  0.00  0.00    -0.082 C 
ATOM     12  C   UNL     1       5.205  -5.106  -5.325  0.00  0.00    -0.010 C 
ATOM     13  H   UNL     1       6.667  -5.712  -8.255  0.00  0.00    -0.086 HD
ATOM     14  H   UNL     1       7.202  -6.037  -6.733  0.00  0.00    -0.086 HD
ENDROOT
BRANCH   1  18
ATOM     15  C   UNL     1       0.525  -2.503  -8.342  0.00  0.00    -0.048 A 
ATOM     16  C   UNL     1       1.853  -2.120  -8.398  0.00  0.00    +0.004 A 
ATOM     17  C   UNL     1       2.564  -1.912  -7.234  0.00  0.00    +0.013 A 
ATOM     18  C   UNL     1       1.940  -2.090  -5.998  0.00  0.00    +0.037 A 
ATOM     19  C   UNL     1       0.600  -2.477  -5.948  0.00  0.00    +0.013 A 
ATOM     20  C   UNL     1      -0.101  -2.675  -7.120  0.00  0.00    +0.004 A 
BRANCH  15  22
ATOM     21  C   UNL     1      -0.901  -1.416 -10.055  0.00  0.00    +0.009 C 
ATOM     22  C   UNL     1      -0.246  -2.727  -9.617  0.00  0.00    +0.032 C 
ENDBRANCH  15  22
ENDBRANCH   1  18
BRANCH   5  23
ATOM     23  C   UNL     1       5.245  -4.481  -2.809  0.00  0.00    +0.218 C 
ATOM     24  O   UNL     1       4.044  -4.617  -2.704  0.00  0.00    -0.275 OA
ATOM     25  N   UNL     1       6.077  -5.342  -2.189  0.00  0.00    -0.311 N 
ATOM     26  H   UNL     1       7.037  -5.233  -2.273  0.00  0.00    +0.149 HD
BRANCH  25  27
ATOM     27  C   UNL     1       5.530  -6.441  -1.390  0.00  0.00    +0.139 C 
BRANCH  27  28
ATOM     28  C   UNL     1       6.662  -7.250  -0.809  0.00  0.00    -0.023 A 
ATOM     29  C   UNL     1       7.178  -8.320  -1.516  0.00  0.00    +0.054 A 
ATOM     30  C   UNL     1       8.218  -9.067  -0.986  0.00  0.00    +0.165 A 
ATOM     31  C   UNL     1       8.742  -8.739   0.259  0.00  0.00    +0.204 A 
ATOM     32  C   UNL     1       8.221  -7.663   0.967  0.00  0.00    +0.165 A 
ATOM     33  C   UNL     1       7.184  -6.917   0.427  0.00  0.00    +0.054 A 
BRANCH  32  34
ATOM     34  O   UNL     1       8.730  -7.338   2.185  0.00  0.00    -0.491 OA
ATOM     35  C   UNL     1       8.146  -6.220   2.856  0.00  0.00    +0.277 C 
ENDBRANCH  32  34
BRANCH  31  36
ATOM     36  O   UNL     1       9.763  -9.471   0.784  0.00  0.00    -0.488 OA
ATOM     37  C   UNL     1      11.092  -9.045   0.475  0.00  0.00    +0.277 C 
ENDBRANCH  31  36
BRANCH  30  38
ATOM     38  O   UNL     1       8.725 -10.120  -1.682  0.00  0.00    -0.491 OA
ATOM     39  C   UNL     1       8.137 -10.400  -2.954  0.00  0.00    +0.277 C 
ENDBRANCH  30  38
ENDBRANCH  27  28
ENDBRANCH  25  27
ENDBRANCH   5  23
TORSDOF 8
