REMARK  Name = ZINC52550575
REMARK  7 active torsions:
REMARK  status: ('A' for Active; 'I' for Inactive)
REMARK    1  A    between atoms: C_4  and  C_10
REMARK    2  A    between atoms: N_13  and  C_16
REMARK    3  A    between atoms: C_16  and  C_18
REMARK    4  A    between atoms: C_16  and  C_20
REMARK    5  A    between atoms: C_18  and  O_19
REMARK    6  A    between atoms: C_26  and  C_28
REMARK    7  A    between atoms: C_29  and  C_30
REMARK                            x       y       z     vdW  Elec       q    Type
REMARK                         _______ _______ _______ _____ _____    ______ ____
ROOT
ATOM      1  C   UNL     1       7.044   6.209   0.044  0.00  0.00    -0.039 C 
ENDROOT
BRANCH   1   2
ATOM      2  C   UNL     1       8.055   6.370  -1.093  0.00  0.00    -0.020 C 
ATOM      3  C   UNL     1       9.055   5.212  -1.055  0.00  0.00    +0.021 C 
ATOM      4  C   UNL     1      10.044   5.358  -2.215  0.00  0.00    +0.108 C 
ATOM      5  N   UNL     1      10.661   6.690  -2.145  0.00  0.00    -0.298 N 
ATOM      6  C   UNL     1       9.789   7.870  -2.085  0.00  0.00    +0.108 C 
ATOM      7  C   UNL     1       8.802   7.696  -0.926  0.00  0.00    +0.021 C 
ATOM      8  C   UNL     1      12.002   6.826  -2.135  0.00  0.00    +0.239 C 
ATOM      9  O   UNL     1      12.501   7.925  -1.980  0.00  0.00    -0.271 OA
BRANCH   8  10
ATOM     10  C   UNL     1      12.858   5.651  -2.312  0.00  0.00    +0.068 C 
ATOM     11  C   UNL     1      14.195   5.799  -2.403  0.00  0.00    +0.013 C 
BRANCH  11  12
ATOM     12  C   UNL     1      15.056   4.618  -2.580  0.00  0.00    -0.019 A 
ATOM     13  C   UNL     1      14.490   3.342  -2.661  0.00  0.00    +0.046 A 
ATOM     14  C   UNL     1      15.303   2.238  -2.827  0.00  0.00    +0.127 A 
ATOM     15  C   UNL     1      16.677   2.393  -2.914  0.00  0.00    +0.076 A 
ATOM     16  C   UNL     1      17.245   3.654  -2.835  0.00  0.00    +0.127 A 
ATOM     17  C   UNL     1      16.443   4.767  -2.675  0.00  0.00    +0.046 A 
ATOM     18  F   UNL     1      18.586   3.797  -2.920  0.00  0.00    -0.205 F 
ATOM     19  F   UNL     1      14.758   1.004  -2.905  0.00  0.00    -0.205 F 
ENDBRANCH  11  12
ENDBRANCH   8  10
ENDBRANCH   1   2
BRANCH   1  23
ATOM     20  C   UNL     1       4.150   3.104  -0.332  0.00  0.00    +0.014 C 
ATOM     21  C   UNL     1       4.852   3.320   1.012  0.00  0.00    -0.011 C 
ATOM     22  C   UNL     1       5.448   4.729   1.049  0.00  0.00    -0.078 C 
ATOM     23  N   UNL     1       6.418   4.883  -0.042  0.00  0.00    +0.383 N 
ATOM     24  C   UNL     1       5.738   4.748  -1.336  0.00  0.00    -0.078 C 
ATOM     25  C   UNL     1       5.153   3.340  -1.465  0.00  0.00    -0.011 C 
ATOM     26  H   UNL     1       7.129   4.171   0.038  0.00  0.00    -0.081 HD
BRANCH  20  30
ATOM     27  C   UNL     1      -0.059   1.340  -0.869  0.00  0.00    +0.020 A 
ATOM     28  C   UNL     1       1.088   2.056  -0.721  0.00  0.00    +0.013 A 
ATOM     29  C   UNL     1       2.342   1.307  -0.569  0.00  0.00    +0.018 A 
ATOM     30  C   UNL     1       3.628   1.692  -0.406  0.00  0.00    -0.037 C 
ATOM     31  C   UNL     1       4.436   0.417  -0.315  0.00  0.00    +0.146 C 
ATOM     32  N   UNL     1       3.472  -0.681  -0.443  0.00  0.00    -0.365 N 
ATOM     33  C   UNL     1       2.273  -0.171  -0.588  0.00  0.00    +0.134 A 
ATOM     34  N   UNL     1       1.065  -0.756  -0.743  0.00  0.00    -0.238 NA
ATOM     35  C   UNL     1      -0.029  -0.058  -0.875  0.00  0.00    +0.113 A 
ATOM     36  H   UNL     1       3.686  -1.627  -0.423  0.00  0.00    +0.161 HD
ENDBRANCH  20  30
ENDBRANCH   1  23
BRANCH   1  37
ATOM     37  C   UNL     1       7.762   6.347   1.388  0.00  0.00    +0.141 C 
BRANCH  37  38
ATOM     38  O   UNL     1       8.765   5.336   1.499  0.00  0.00    -0.397 OA
ATOM     39  H   UNL     1       9.261   5.363   2.329  0.00  0.00    +0.209 HD
ENDBRANCH  37  38
ENDBRANCH   1  37
TORSDOF 7
