REMARK  Name = ZINC61887089
REMARK  4 active torsions:
REMARK  status: ('A' for Active; 'I' for Inactive)
REMARK    1  A    between atoms: C_3  and  C_17
REMARK    2  A    between atoms: C_5  and  N_8
REMARK    3  A    between atoms: C_9  and  C_11
REMARK    4  A    between atoms: N_18  and  O_19
REMARK                            x       y       z     vdW  Elec       q    Type
REMARK                         _______ _______ _______ _____ _____    ______ ____
ROOT
ATOM      1  C   UNL     1      -0.068   1.373   0.006  0.00  0.00    +0.003 C 
ATOM      2  C   UNL     1       1.422   1.788  -0.085  0.00  0.00    +0.013 C 
ATOM      3  C   UNL     1       2.139   0.846   0.903  0.00  0.00    +0.076 C 
ATOM      4  C   UNL     1       1.245  -0.397   1.053  0.00  0.00    +0.083 C 
ATOM      5  C   UNL     1       0.015  -0.167   0.150  0.00  0.00    +0.023 C 
ENDROOT
BRANCH   3   6
ATOM      6  C   UNL     1       3.486   0.451   0.355  0.00  0.00    +0.136 C 
ATOM      7  N   UNL     1       4.546   1.093   0.722  0.00  0.00    -0.076 NA
ATOM      8  N   UNL     1       3.588  -0.594  -0.536  0.00  0.00    -0.344 N 
ATOM      9  H   UNL     1       2.792  -1.076  -0.811  0.00  0.00    +0.144 HD
ATOM     10  H   UNL     1       4.455  -0.848  -0.889  0.00  0.00    +0.144 HD
BRANCH   7  11
ATOM     11  O   UNL     1       4.457   2.095   1.719  0.00  0.00    -0.408 OA
ATOM     12  H   UNL     1       5.301   2.519   1.926  0.00  0.00    +0.328 HD
ENDBRANCH   7  11
ENDBRANCH   3   6
BRANCH   4  13
ATOM     13  N   UNL     1       0.823  -0.547   2.447  0.00  0.00    -0.312 N 
ATOM     14  C   UNL     1       0.484  -1.763   2.922  0.00  0.00    +0.216 C 
ATOM     15  O   UNL     1       0.529  -2.732   2.194  0.00  0.00    -0.276 OA
ATOM     16  H   UNL     1       0.787   0.228   3.030  0.00  0.00    +0.149 HD
BRANCH  14  17
ATOM     17  C   UNL     1       0.050  -1.917   4.357  0.00  0.00    +0.079 C 
ATOM     18  C   UNL     1       1.183  -1.470   5.286  0.00  0.00    +0.041 C 
ATOM     19  C   UNL     1       0.763  -1.704   6.739  0.00  0.00    +0.160 C 
ATOM     20  O   UNL     1       0.444  -3.085   6.925  0.00  0.00    -0.380 OA
ATOM     21  C   UNL     1      -0.639  -3.547   6.117  0.00  0.00    +0.160 C 
ATOM     22  C   UNL     1      -0.276  -3.387   4.638  0.00  0.00    +0.041 C 
ENDBRANCH  14  17
ENDBRANCH   4  13
TORSDOF 4
