REMARK  Name = ZINC21080540
REMARK  9 active torsions:
REMARK  status: ('A' for Active; 'I' for Inactive)
REMARK    1  A    between atoms: C_1  and  C_2
REMARK    2  A    between atoms: C_2  and  C_3
REMARK    3  A    between atoms: C_2  and  C_4
REMARK    4  A    between atoms: C_4  and  C_5
REMARK    5  A    between atoms: C_5  and  S_6
REMARK    6  A    between atoms: S_6  and  C_7
REMARK    7  A    between atoms: N_13  and  N_14
REMARK    8  A    between atoms: C_15  and  C_16
REMARK    9  A    between atoms: C_19  and  O_23
REMARK                            x       y       z     vdW  Elec       q    Type
REMARK                         _______ _______ _______ _____ _____    ______ ____
ROOT
ATOM      1  C   UNL     1      -2.929  -4.430  -0.269  0.00  0.00    +0.190 A 
ATOM      2  N   UNL     1      -3.942  -5.346  -0.314  0.00  0.00    -0.303 N 
ATOM      3  H   UNL     1      -4.891  -5.150  -0.264  0.00  0.00    +0.171 HD
ATOM      4  C   UNL     1      -3.383  -6.587  -0.443  0.00  0.00    +0.235 A 
ATOM      5  N   UNL     1      -2.081  -6.444  -0.475  0.00  0.00    -0.111 NA
ATOM      6  N   UNL     1      -1.793  -5.077  -0.371  0.00  0.00    -0.121 NA
ATOM      7  N   UNL     1      -4.074  -7.788  -0.524  0.00  0.00    -0.205 N 
ATOM      8  H   UNL     1      -5.043  -7.793  -0.490  0.00  0.00    +0.177 HD
ENDROOT
BRANCH   7   9
ATOM      9  N   UNL     1      -3.371  -8.993  -0.654  0.00  0.00    -0.188 NA
ATOM     10  C   UNL     1      -4.018 -10.117  -0.730  0.00  0.00    +0.138 C 
BRANCH  10  11
ATOM     11  C   UNL     1      -3.278 -11.384  -0.868  0.00  0.00    -0.003 A 
ATOM     12  C   UNL     1      -1.881 -11.380  -0.911  0.00  0.00    +0.028 A 
ATOM     13  C   UNL     1      -1.194 -12.568  -1.039  0.00  0.00    +0.061 A 
ATOM     14  C   UNL     1      -1.887 -13.769  -1.125  0.00  0.00    +0.145 A 
ATOM     15  C   UNL     1      -3.276 -13.778  -1.084  0.00  0.00    +0.061 A 
ATOM     16  C   UNL     1      -3.972 -12.595  -0.950  0.00  0.00    +0.028 A 
ATOM     17 BR   UNL     1      -4.213 -15.416  -1.203  0.00  0.00    -0.046 Br
ATOM     18 BR   UNL     1       0.696 -12.564  -1.098  0.00  0.00    -0.046 Br
BRANCH  14  19
ATOM     19  O   UNL     1      -1.206 -14.938  -1.252  0.00  0.00    -0.505 OA
ATOM     20  H   UNL     1      -0.981 -15.355  -0.409  0.00  0.00    +0.292 HD
ENDBRANCH  14  19
ENDBRANCH  10  11
ENDBRANCH   7   9
BRANCH   1  21
ATOM     21  S   UNL     1      -3.118  -2.686  -0.108  0.00  0.00    -0.086 S 
BRANCH  21  22
ATOM     22  C   UNL     1      -1.416  -2.058  -0.121  0.00  0.00    +0.078 C 
BRANCH  22  23
ATOM     23  C   UNL     1      -1.433  -0.534   0.013  0.00  0.00    +0.014 C 
BRANCH  23  25
ATOM     24  C   UNL     1      -0.019   1.526   0.010  0.00  0.00    +0.007 C 
ATOM     25  C   UNL     1       0.002  -0.004   0.002  0.00  0.00    -0.016 C 
ATOM     26  C   UNL     1       0.742  -0.511   1.242  0.00  0.00    +0.007 C 
ENDBRANCH  23  25
ENDBRANCH  22  23
ENDBRANCH  21  22
ENDBRANCH   1  21
TORSDOF 7
