REMARK  Name = ZINC05937868
REMARK  12 active torsions:
REMARK  status: ('A' for Active; 'I' for Inactive)
REMARK    1  A    between atoms: C_1  and  C_2
REMARK    2  A    between atoms: C_2  and  C_3
REMARK    3  A    between atoms: C_3  and  C_4
REMARK    4  A    between atoms: C_4  and  N_5
REMARK    5  A    between atoms: C_6  and  N_31
REMARK    6  A    between atoms: C_7  and  N_14
REMARK    7  A    between atoms: N_14  and  C_15
REMARK    8  A    between atoms: C_15  and  C_16
REMARK    9  A    between atoms: C_16  and  O_17
REMARK   10  A    between atoms: O_17  and  C_18
REMARK   11  A    between atoms: C_19  and  C_21
REMARK   12  A    between atoms: C_21  and  N_62
REMARK                            x       y       z     vdW  Elec       q    Type
REMARK                         _______ _______ _______ _____ _____    ______ ____
ROOT
ATOM      1  N   UNL     1      -2.391   5.728  -3.157  0.00  0.00    -0.264 N 
ATOM      2  C   UNL     1      -1.782   5.131  -2.111  0.00  0.00    +0.203 C 
ATOM      3  O   UNL     1      -1.683   5.715  -1.052  0.00  0.00    -0.277 OA
ENDROOT
BRANCH   1   6
ATOM      4  N   UNL     1      -4.249   8.720  -2.109  0.00  0.00    -0.280 N 
ATOM      5  C   UNL     1      -3.853   7.406  -2.195  0.00  0.00    +0.127 A 
ATOM      6  C   UNL     1      -2.825   7.067  -3.050  0.00  0.00    +0.140 A 
ATOM      7  C   UNL     1      -2.219   8.079  -3.819  0.00  0.00    +0.277 A 
ATOM      8  O   UNL     1      -1.311   7.806  -4.586  0.00  0.00    -0.266 OA
ATOM      9  N   UNL     1      -2.649   9.350  -3.701  0.00  0.00    -0.273 N 
ATOM     10  H   UNL     1      -2.219  10.070  -4.247  0.00  0.00    +0.173 HD
ATOM     11  C   UNL     1      -3.649   9.662  -2.858  0.00  0.00    +0.331 A 
ATOM     12  O   UNL     1      -4.017  10.818  -2.771  0.00  0.00    -0.246 OA
BRANCH   5  13
ATOM     13  N   UNL     1      -4.470   6.442  -1.434  0.00  0.00    -0.343 N 
ATOM     14  H   UNL     1      -4.142   5.529  -1.447  0.00  0.00    +0.144 HD
ATOM     15  H   UNL     1      -5.235   6.674  -0.884  0.00  0.00    +0.144 HD
ENDBRANCH   5  13
BRANCH   4  16
ATOM     16  C   UNL     1      -5.336   9.095  -1.200  0.00  0.00    +0.128 C 
BRANCH  16  17
ATOM     17  C   UNL     1      -6.673   8.998  -1.938  0.00  0.00    +0.021 C 
BRANCH  17  19
ATOM     18  C   UNL     1      -9.145   9.293  -1.727  0.00  0.00    +0.004 C 
ATOM     19  C   UNL     1      -7.808   9.390  -0.989  0.00  0.00    -0.002 C 
ENDBRANCH  17  19
ENDBRANCH  16  17
ENDBRANCH   4  16
ENDBRANCH   1   6
BRANCH   1  20
ATOM     20  C   UNL     1      -2.603   4.987  -4.402  0.00  0.00    +0.142 C 
BRANCH  20  21
ATOM     21  C   UNL     1      -3.995   4.352  -4.387  0.00  0.00    +0.178 C 
BRANCH  21  22
ATOM     22  O   UNL     1      -4.987   5.380  -4.386  0.00  0.00    -0.381 OA
ATOM     23  C   UNL     1      -6.330   4.891  -4.372  0.00  0.00    +0.194 C 
ENDBRANCH  21  22
ENDBRANCH  20  21
ENDBRANCH   1  20
BRANCH   2  24
ATOM     24  C   UNL     1      -1.224   3.739  -2.259  0.00  0.00    +0.020 C 
BRANCH  24  34
ATOM     25  C   UNL     1       0.547   4.117  -0.649  0.00  0.00    -0.073 C 
ATOM     26  C   UNL     1       0.891   3.888   0.823  0.00  0.00    +0.017 C 
ATOM     27  C   UNL     1       0.958   2.410   1.109  0.00  0.00    -0.048 A 
ATOM     28  C   UNL     1       1.592   1.989   2.269  0.00  0.00    +0.004 A 
ATOM     29  C   UNL     1       1.672   0.644   2.571  0.00  0.00    +0.000 A 
ATOM     30  C   UNL     1       1.117  -0.287   1.713  0.00  0.00    +0.000 A 
ATOM     31  C   UNL     1       0.487   0.130   0.563  0.00  0.00    +0.002 A 
ATOM     32  C   UNL     1       0.407   1.481   0.255  0.00  0.00    -0.061 A 
ATOM     33  C   UNL     1      -0.285   1.886  -1.020  0.00  0.00    -0.042 C 
ATOM     34  N   UNL     1      -0.649   3.312  -0.963  0.00  0.00    +0.388 N 
ATOM     35  H   UNL     1      -1.350   3.450  -0.226  0.00  0.00    -0.081 HD
ENDBRANCH  24  34
ENDBRANCH   2  24
TORSDOF 10
