REMARK  Name = ZINC22130836
REMARK  8 active torsions:
REMARK  status: ('A' for Active; 'I' for Inactive)
REMARK    1  A    between atoms: C_1  and  C_2
REMARK    2  A    between atoms: C_10  and  C_16
REMARK    3  A    between atoms: N_18  and  C_19
REMARK    4  A    between atoms: C_19  and  C_20
REMARK    5  A    between atoms: C_20  and  C_22
REMARK    6  A    between atoms: C_20  and  N_27
REMARK    7  A    between atoms: N_27  and  C_28
REMARK    8  A    between atoms: N_27  and  C_29
REMARK                            x       y       z     vdW  Elec       q    Type
REMARK                         _______ _______ _______ _____ _____    ______ ____
ROOT
ATOM      1  C   UNL     1      -1.153   6.721  -1.784  0.00  0.00    +0.008 C 
ATOM      2  C   UNL     1      -0.588   6.019  -0.548  0.00  0.00    -0.009 C 
ATOM      3  C   UNL     1      -0.037   4.646  -0.947  0.00  0.00    +0.009 C 
ATOM      4  C   UNL     1       0.748   4.051   0.226  0.00  0.00    +0.054 C 
ATOM      5  C   UNL     1      -0.105   4.131   1.471  0.00  0.00    +0.020 A 
ATOM      6  C   UNL     1      -1.195   4.925   1.581  0.00  0.00    -0.019 A 
ATOM      7  C   UNL     1      -1.738   4.717   2.908  0.00  0.00    +0.004 A 
ATOM      8  C   UNL     1      -2.838   5.256   3.574  0.00  0.00    +0.023 A 
ATOM      9  C   UNL     1      -3.060   4.806   4.880  0.00  0.00    +0.037 A 
ATOM     10  C   UNL     1      -2.219   3.865   5.483  0.00  0.00    +0.015 A 
ATOM     11  C   UNL     1      -1.136   3.331   4.837  0.00  0.00    +0.027 A 
ATOM     12  C   UNL     1      -0.891   3.761   3.532  0.00  0.00    +0.047 A 
ATOM     13  N   UNL     1       0.079   3.433   2.634  0.00  0.00    -0.358 N 
ATOM     14  H   UNL     1       0.921   2.732   2.727  0.00  0.00    +0.166 HD
ATOM     15  C   UNL     1      -1.700   5.836   0.491  0.00  0.00    +0.040 C 
ENDROOT
BRANCH   9  16
ATOM     16  C   UNL     1      -4.209   5.338   5.639  0.00  0.00    +0.244 C 
ATOM     17  O   UNL     1      -4.949   6.157   5.128  0.00  0.00    -0.270 OA
ATOM     18  N   UNL     1      -4.437   4.917   6.899  0.00  0.00    -0.312 N 
ATOM     19  H   UNL     1      -3.768   4.176   7.361  0.00  0.00    +0.149 HD
BRANCH  18  20
ATOM     20  C   UNL     1      -5.577   5.444   7.653  0.00  0.00    +0.097 C 
BRANCH  20  21
ATOM     21  C   UNL     1      -5.666   4.736   9.006  0.00  0.00    +0.016 C 
BRANCH  21  22
ATOM     22  C   UNL     1      -4.467   5.100   9.843  0.00  0.00    +0.093 A 
ATOM     23  C   UNL     1      -4.442   6.023  10.821  0.00  0.00    +0.043 A 
ATOM     24  C   UNL     1      -3.126   6.035  11.338  0.00  0.00    +0.041 A 
ATOM     25  C   UNL     1      -2.424   5.125  10.640  0.00  0.00    +0.195 A 
ATOM     26  O   UNL     1      -3.241   4.561   9.736  0.00  0.00    -0.469 OA
ENDBRANCH  21  22
BRANCH  21  27
ATOM     27  N   UNL     1      -5.694   3.282   8.796  0.00  0.00    +0.384 N 
ATOM     28  C   UNL     1      -5.762   2.567  10.077  0.00  0.00    -0.096 C 
ATOM     29  C   UNL     1      -6.808   2.898   7.919  0.00  0.00    -0.096 C 
ATOM     30  H   UNL     1      -4.756   2.995   8.298  0.00  0.00    -0.082 HD
ENDBRANCH  21  27
ENDBRANCH  20  21
ENDBRANCH  18  20
ENDBRANCH   9  16
TORSDOF 5
