REMARK  Name = ZINC13252194
REMARK  6 active torsions:
REMARK  status: ('A' for Active; 'I' for Inactive)
REMARK    1  A    between atoms: C_3  and  S_21
REMARK    2  A    between atoms: C_6  and  N_7
REMARK    3  A    between atoms: C_8  and  C_10
REMARK    4  A    between atoms: C_10  and  C_11
REMARK    5  A    between atoms: C_11  and  C_18
REMARK    6  A    between atoms: S_21  and  N_24
REMARK                            x       y       z     vdW  Elec       q    Type
REMARK                         _______ _______ _______ _____ _____    ______ ____
ROOT
ATOM      1  C   UNL     1      -3.567   3.500  -1.312  0.00  0.00    +0.025 A 
ATOM      2  C   UNL     1      -3.909   4.836  -1.390  0.00  0.00    +0.031 A 
ATOM      3  C   UNL     1      -4.276   5.387  -2.603  0.00  0.00    +0.113 A 
ATOM      4  C   UNL     1      -4.297   4.605  -3.744  0.00  0.00    +0.031 A 
ATOM      5  C   UNL     1      -3.951   3.270  -3.673  0.00  0.00    +0.025 A 
ATOM      6  C   UNL     1      -3.582   2.713  -2.456  0.00  0.00    +0.033 A 
ENDROOT
BRANCH   6   7
ATOM      7  N   UNL     1      -3.231   1.361  -2.381  0.00  0.00    -0.285 N 
ATOM      8  C   UNL     1      -2.360   0.941  -1.442  0.00  0.00    +0.218 C 
ATOM      9  O   UNL     1      -1.795   1.749  -0.735  0.00  0.00    -0.275 OA
ATOM     10  H   UNL     1      -3.666   0.640  -3.090  0.00  0.00    +0.155 HD
BRANCH   8  11
ATOM     11  C   UNL     1      -2.088  -0.531  -1.271  0.00  0.00    +0.114 C 
BRANCH  11  12
ATOM     12  C   UNL     1      -1.184  -0.745  -0.055  0.00  0.00    +0.080 C 
ATOM     13  C   UNL     1      -1.143  -2.249   0.276  0.00  0.00    +0.019 C 
ATOM     14  C   UNL     1      -0.196  -3.038  -0.647  0.00  0.00    +0.001 C 
ATOM     15  C   UNL     1      -0.300  -2.606  -2.085  0.00  0.00    +0.000 C 
ATOM     16  C   UNL     1       0.784  -1.543  -2.357  0.00  0.00    +0.000 C 
ATOM     17  C   UNL     1       0.397  -0.222  -1.884  0.00  0.00    +0.001 C 
ATOM     18  C   UNL     1       0.179  -0.184  -0.357  0.00  0.00    +0.019 C 
BRANCH  12  19
ATOM     19  C   UNL     1      -1.766  -0.002   1.121  0.00  0.00    +0.362 C 
ATOM     20  O   UNL     1      -1.097   0.810   1.714  0.00  0.00    -0.246 OA
ATOM     21  O   UNL     1      -3.028  -0.244   1.509  0.00  0.00    -0.246 OA
ENDBRANCH  12  19
ENDBRANCH  11  12
ENDBRANCH   8  11
ENDBRANCH   6   7
BRANCH   3  22
ATOM     22  S   UNL     1      -4.718   7.090  -2.697  0.00  0.00    +0.101 S 
ATOM     23  O   UNL     1      -4.092   7.734  -1.596  0.00  0.00    -0.146 OA
ATOM     24  O   UNL     1      -4.496   7.494  -4.042  0.00  0.00    -0.146 OA
BRANCH  22  25
ATOM     25  N   UNL     1      -6.351   7.188  -2.437  0.00  0.00    -0.103 NA
ATOM     26  C   UNL     1      -6.879   6.829  -1.207  0.00  0.00    +0.191 A 
ATOM     27  N   UNL     1      -6.253   6.386  -0.133  0.00  0.00    -0.339 N 
ATOM     28  C   UNL     1      -6.915   6.091   0.970  0.00  0.00    +0.092 A 
ATOM     29  C   UNL     1      -8.260   6.242   0.976  0.00  0.00    +0.066 A 
ATOM     30  S   UNL     1      -8.535   6.840  -0.685  0.00  0.00    -0.057 S 
ATOM     31  H   UNL     1      -5.160   6.257  -0.147  0.00  0.00    +0.167 HD
ENDBRANCH  22  25
ENDBRANCH   3  22
TORSDOF 6
