REMARK  Name = ZINC08995404
REMARK  11 active torsions:
REMARK  status: ('A' for Active; 'I' for Inactive)
REMARK    1  A    between atoms: C_1  and  N_2
REMARK    2  A    between atoms: N_2  and  C_3
REMARK    3  A    between atoms: N_2  and  C_4
REMARK    4  A    between atoms: C_7  and  C_10
REMARK    5  A    between atoms: C_10  and  C_12
REMARK    6  A    between atoms: C_10  and  N_22
REMARK    7  A    between atoms: N_14  and  C_15
REMARK    8  A    between atoms: C_15  and  C_16
REMARK    9  A    between atoms: N_22  and  C_23
REMARK   10  A    between atoms: C_30  and  C_32
REMARK   11  A    between atoms: C_32  and  N_33
REMARK                            x       y       z     vdW  Elec       q    Type
REMARK                         _______ _______ _______ _____ _____    ______ ____
ROOT
ATOM      1  C   UNL     1       2.104   2.543   5.846  0.00  0.00    +0.197 C 
ENDROOT
BRANCH   1   5
ATOM      2  C   UNL     1      -0.360   1.477   2.520  0.00  0.00    +0.029 A 
ATOM      3  C   UNL     1      -0.856   2.311   3.515  0.00  0.00    +0.023 A 
ATOM      4  C   UNL     1      -0.059   2.649   4.591  0.00  0.00    +0.008 A 
ATOM      5  C   UNL     1       1.235   2.167   4.673  0.00  0.00    -0.018 A 
ATOM      6  C   UNL     1       1.733   1.340   3.683  0.00  0.00    +0.008 A 
ATOM      7  C   UNL     1       0.939   0.994   2.607  0.00  0.00    +0.023 A 
BRANCH   2   9
ATOM      8  C   UNL     1      -0.639   0.254   0.382  0.00  0.00    +0.129 C 
ATOM      9  N   UNL     1      -1.165   1.129   1.433  0.00  0.00    -0.336 N 
ATOM     10  C   UNL     1      -2.536   1.639   1.344  0.00  0.00    +0.129 C 
ENDBRANCH   2   9
ENDBRANCH   1   5
BRANCH   1  11
ATOM     11  C   UNL     1       2.323   4.034   5.851  0.00  0.00    +0.239 C 
ATOM     12  O   UNL     1       1.964   4.696   6.801  0.00  0.00    -0.273 OA
ATOM     13  N   UNL     1       2.919   4.630   4.799  0.00  0.00    -0.311 N 
ATOM     14  H   UNL     1       3.206   4.100   4.040  0.00  0.00    +0.149 HD
BRANCH  13  15
ATOM     15  C   UNL     1       3.132   6.080   4.804  0.00  0.00    +0.135 C 
BRANCH  15  16
ATOM     16  C   UNL     1       3.821   6.498   3.503  0.00  0.00    +0.135 C 
ATOM     17  C   UNL     1       4.135   8.011   3.523  0.00  0.00    +0.035 C 
ATOM     18  C   UNL     1       3.887   8.464   2.067  0.00  0.00    +0.031 C 
ATOM     19  C   UNL     1       3.453   7.172   1.340  0.00  0.00    +0.160 C 
ATOM     20  O   UNL     1       2.930   6.318   2.382  0.00  0.00    -0.375 OA
ENDBRANCH  15  16
ENDBRANCH  13  15
ENDBRANCH   1  11
BRANCH   1  21
ATOM     21  N   UNL     1       1.444   2.142   7.091  0.00  0.00    -0.254 N 
ATOM     22  C   UNL     1       2.086   2.279   8.268  0.00  0.00    +0.242 C 
ATOM     23  O   UNL     1       3.240   2.650   8.290  0.00  0.00    -0.273 OA
BRANCH  21  24
ATOM     24  C   UNL     1       0.146   1.618   7.058  0.00  0.00    +0.038 A 
ATOM     25  C   UNL     1      -0.914   2.352   7.573  0.00  0.00    +0.026 A 
ATOM     26  C   UNL     1      -2.194   1.835   7.535  0.00  0.00    +0.040 A 
ATOM     27  C   UNL     1      -2.419   0.581   6.994  0.00  0.00    +0.124 A 
ATOM     28  C   UNL     1      -1.363  -0.156   6.485  0.00  0.00    +0.040 A 
ATOM     29  C   UNL     1      -0.082   0.360   6.516  0.00  0.00    +0.026 A 
ATOM     30  F   UNL     1      -3.672   0.075   6.962  0.00  0.00    -0.205 F 
ENDBRANCH  21  24
BRANCH  22  31
ATOM     31  C   UNL     1       1.370   1.969   9.557  0.00  0.00    +0.242 C 
BRANCH  31  32
ATOM     32  N   UNL     1       2.246   2.281  10.690  0.00  0.00    -0.235 N 
ATOM     33  C   UNL     1       3.132   1.429  11.304  0.00  0.00    +0.090 A 
ATOM     34  C   UNL     1       3.501   0.104  11.095  0.00  0.00    +0.029 A 
ATOM     35  C   UNL     1       4.447  -0.472  11.896  0.00  0.00    +0.002 A 
ATOM     36  C   UNL     1       5.050   0.256  12.914  0.00  0.00    +0.002 A 
ATOM     37  C   UNL     1       4.711   1.559  13.134  0.00  0.00    +0.032 A 
ATOM     38  C   UNL     1       3.743   2.173  12.328  0.00  0.00    +0.113 A 
ATOM     39  N   UNL     1       3.214   3.412  12.304  0.00  0.00    -0.129 NA
ATOM     40  N   UNL     1       2.341   3.508  11.364  0.00  0.00    -0.064 NA
ENDBRANCH  31  32
ENDBRANCH  22  31
ENDBRANCH   1  21
TORSDOF 9
