REMARK  Name = ZINC14664625
REMARK  9 active torsions:
REMARK  status: ('A' for Active; 'I' for Inactive)
REMARK    1  A    between atoms: C_1  and  C_2
REMARK    2  A    between atoms: C_2  and  C_3
REMARK    3  A    between atoms: C_2  and  O_4
REMARK    4  A    between atoms: O_4  and  C_5
REMARK    5  A    between atoms: C_10  and  C_11
REMARK    6  A    between atoms: N_13  and  C_14
REMARK    7  A    between atoms: C_14  and  N_16
REMARK    8  A    between atoms: N_16  and  N_17
REMARK    9  A    between atoms: C_18  and  C_20
REMARK                            x       y       z     vdW  Elec       q    Type
REMARK                         _______ _______ _______ _____ _____    ______ ____
ROOT
ATOM      1  C   UNL     1      -4.673  -0.445   0.463  0.00  0.00    +0.153 C 
ATOM      2  S   UNL     1      -4.846   1.258   0.463  0.00  0.00    -0.017 S 
ENDROOT
BRANCH   1   5
ATOM      3  C   UNL     1      -2.361  -0.209   0.244  0.00  0.00    +0.253 C 
ATOM      4  O   UNL     1      -2.484   1.000   0.244  0.00  0.00    -0.270 OA
ATOM      5  N   UNL     1      -3.449  -0.997   0.353  0.00  0.00    -0.263 N 
ATOM      6  H   UNL     1      -3.350  -1.962   0.353  0.00  0.00    +0.157 HD
BRANCH   3  12
ATOM      7  C   UNL     1       0.113   0.002   0.010  0.00  0.00    +0.133 A 
ATOM      8  C   UNL     1       1.367  -0.578  -0.108  0.00  0.00    +0.046 A 
ATOM      9  C   UNL     1       1.498  -1.952  -0.103  0.00  0.00    +0.004 A 
ATOM     10  C   UNL     1       0.379  -2.762   0.010  0.00  0.00    +0.001 A 
ATOM     11  C   UNL     1      -0.875  -2.204   0.123  0.00  0.00    +0.017 A 
ATOM     12  C   UNL     1      -1.021  -0.814   0.124  0.00  0.00    +0.079 A 
BRANCH   7  13
ATOM     13  O   UNL     1      -0.016   1.352   0.009  0.00  0.00    -0.489 OA
BRANCH  13  15
ATOM     14  C   UNL     1       0.779   3.483  -0.809  0.00  0.00    +0.051 C 
ATOM     15  C   UNL     1       1.165   2.117  -0.237  0.00  0.00    +0.167 C 
ATOM     16  C   UNL     1       1.930   2.311   1.074  0.00  0.00    +0.051 C 
ENDBRANCH  13  15
ENDBRANCH   7  13
ENDBRANCH   3  12
ENDBRANCH   1   5
BRANCH   1  17
ATOM     17  N   UNL     1      -5.761  -1.233   0.572  0.00  0.00    -0.245 N 
ATOM     18  H   UNL     1      -6.642  -0.835   0.651  0.00  0.00    +0.172 HD
BRANCH  17  19
ATOM     19  N   UNL     1      -5.619  -2.627   0.572  0.00  0.00    -0.231 N 
ATOM     20  C   UNL     1      -6.707  -3.415   0.681  0.00  0.00    +0.261 C 
ATOM     21  O   UNL     1      -7.811  -2.916   0.780  0.00  0.00    -0.269 OA
ATOM     22  H   UNL     1      -4.738  -3.025   0.493  0.00  0.00    +0.173 HD
BRANCH  20  23
ATOM     23  C   UNL     1      -6.557  -4.885   0.680  0.00  0.00    +0.051 A 
ATOM     24  C   UNL     1      -5.291  -5.461   0.561  0.00  0.00    +0.014 A 
ATOM     25  C   UNL     1      -5.157  -6.834   0.567  0.00  0.00    +0.001 A 
ATOM     26  C   UNL     1      -6.276  -7.641   0.680  0.00  0.00    +0.001 A 
ATOM     27  C   UNL     1      -7.534  -7.078   0.793  0.00  0.00    +0.015 A 
ATOM     28  C   UNL     1      -7.682  -5.705   0.793  0.00  0.00    +0.026 A 
ATOM     29  I   UNL     1      -9.588  -4.854   0.964  0.00  0.00    -0.043 I 
ENDBRANCH  20  23
ENDBRANCH  17  19
ENDBRANCH   1  17
TORSDOF 7
