REMARK  Name = ZINC12507866
REMARK  11 active torsions:
REMARK  status: ('A' for Active; 'I' for Inactive)
REMARK    1  A    between atoms: C_1  and  C_2
REMARK    2  A    between atoms: C_5  and  S_22
REMARK    3  A    between atoms: C_7  and  N_8
REMARK    4  A    between atoms: N_8  and  S_9
REMARK    5  A    between atoms: S_9  and  C_12
REMARK    6  A    between atoms: C_14  and  C_20
REMARK    7  A    between atoms: C_16  and  C_19
REMARK    8  A    between atoms: C_17  and  C_18
REMARK    9  A    between atoms: S_22  and  N_25
REMARK   10  A    between atoms: N_25  and  C_26
REMARK   11  A    between atoms: N_25  and  C_27
REMARK                            x       y       z     vdW  Elec       q    Type
REMARK                         _______ _______ _______ _____ _____    ______ ____
ROOT
ATOM      1  N   UNL     1      -5.981   1.179   1.060  0.00  0.00    -0.216 N 
ATOM      2  H   UNL     1      -6.228   0.507   1.714  0.00  0.00    +0.174 HD
ENDROOT
BRANCH   1   9
ATOM      3  C   UNL     1      -6.242   2.253   3.681  0.00  0.00    +0.046 C 
ATOM      4  C   UNL     1      -6.593   3.052   2.453  0.00  0.00    -0.028 A 
ATOM      5  C   UNL     1      -7.058   4.347   2.579  0.00  0.00    +0.007 A 
ATOM      6  C   UNL     1      -7.380   5.081   1.453  0.00  0.00    +0.029 A 
ATOM      7  C   UNL     1      -7.239   4.522   0.196  0.00  0.00    +0.107 A 
ATOM      8  C   UNL     1      -6.771   3.230   0.061  0.00  0.00    +0.053 A 
ATOM      9  C   UNL     1      -6.451   2.488   1.192  0.00  0.00    +0.053 A 
BRANCH   7  10
ATOM     10  S   UNL     1      -7.652   5.462  -1.236  0.00  0.00    +0.060 S 
ATOM     11  O   UNL     1      -8.014   4.528  -2.244  0.00  0.00    -0.153 OA
ATOM     12  O   UNL     1      -8.526   6.496  -0.806  0.00  0.00    -0.153 OA
BRANCH  10  13
ATOM     13  N   UNL     1      -6.263   6.201  -1.754  0.00  0.00    -0.183 NA
ATOM     14  C   UNL     1      -5.458   5.588  -2.814  0.00  0.00    +0.131 C 
ATOM     15  C   UNL     1      -5.839   7.467  -1.151  0.00  0.00    +0.131 C 
ENDBRANCH  10  13
ENDBRANCH   7  10
ENDBRANCH   1   9
BRANCH   1  16
ATOM     16  S   UNL     1      -5.003   0.775  -0.214  0.00  0.00    +0.073 S 
ATOM     17  O   UNL     1      -5.672   1.204  -1.392  0.00  0.00    -0.150 OA
ATOM     18  O   UNL     1      -4.608  -0.575  -0.010  0.00  0.00    -0.150 OA
BRANCH  16  19
ATOM     19  C   UNL     1      -3.543   1.752  -0.080  0.00  0.00    +0.112 A 
ATOM     20  C   UNL     1      -3.228   2.658  -1.071  0.00  0.00    +0.044 A 
ATOM     21  C   UNL     1      -2.067   3.427  -0.966  0.00  0.00    +0.065 A 
ATOM     22  C   UNL     1      -1.239   3.281   0.148  0.00  0.00    +0.018 A 
ATOM     23  C   UNL     1      -1.569   2.376   1.135  0.00  0.00    -0.045 A 
ATOM     24  C   UNL     1      -2.718   1.612   1.022  0.00  0.00    -0.021 A 
ATOM     25  C   UNL     1      -3.072   0.625   2.104  0.00  0.00    +0.046 C 
ATOM     26  C   UNL     1      -0.677   2.217   2.339  0.00  0.00    +0.044 C 
BRANCH  21  27
ATOM     27  C   UNL     1      -1.720   4.395  -2.027  0.00  0.00    +0.387 C 
ATOM     28  O   UNL     1      -2.442   4.519  -2.996  0.00  0.00    -0.241 OA
ATOM     29  O   UNL     1      -0.605   5.143  -1.917  0.00  0.00    -0.241 OA
ENDBRANCH  21  27
ENDBRANCH  16  19
ENDBRANCH   1  16
TORSDOF 6
