REMARK  Name = ZINC13234756
REMARK  8 active torsions:
REMARK  status: ('A' for Active; 'I' for Inactive)
REMARK    1  A    between atoms: C_1  and  C_2
REMARK    2  A    between atoms: C_2  and  C_3
REMARK    3  A    between atoms: C_2  and  N_4
REMARK    4  A    between atoms: C_5  and  S_9
REMARK    5  A    between atoms: S_9  and  C_10
REMARK    6  A    between atoms: C_10  and  C_11
REMARK    7  A    between atoms: N_13  and  C_14
REMARK    8  A    between atoms: C_19  and  C_20
REMARK                            x       y       z     vdW  Elec       q    Type
REMARK                         _______ _______ _______ _____ _____    ______ ____
ROOT
ATOM      1  C   UNL     1      -2.290  -2.655   4.135  0.00  0.00    +0.228 C 
ATOM      2  O   UNL     1      -1.852  -3.467   3.347  0.00  0.00    -0.275 OA
ATOM      3  N   UNL     1      -2.918  -3.073   5.252  0.00  0.00    -0.284 N 
ATOM      4  H   UNL     1      -3.211  -2.427   5.914  0.00  0.00    +0.155 HD
ENDROOT
BRANCH   3   5
ATOM      5  C   UNL     1      -3.147  -4.431   5.456  0.00  0.00    +0.048 A 
ATOM      6  C   UNL     1      -2.217  -5.368   5.026  0.00  0.00    +0.025 A 
ATOM      7  C   UNL     1      -2.445  -6.714   5.229  0.00  0.00    +0.017 A 
ATOM      8  C   UNL     1      -3.601  -7.141   5.864  0.00  0.00    +0.019 A 
ATOM      9  C   UNL     1      -4.536  -6.226   6.298  0.00  0.00    +0.032 A 
ATOM     10  C   UNL     1      -4.316  -4.860   6.103  0.00  0.00    +0.085 A 
ATOM     11 BR   UNL     1      -3.897  -8.989   6.134  0.00  0.00    -0.050 Br
BRANCH  10  12
ATOM     12  C   UNL     1      -5.309  -3.875   6.570  0.00  0.00    +0.388 C 
ATOM     13  O   UNL     1      -5.164  -2.697   6.311  0.00  0.00    -0.241 OA
ATOM     14  O   UNL     1      -6.377  -4.282   7.284  0.00  0.00    -0.241 OA
ENDBRANCH  10  12
ENDBRANCH   3   5
BRANCH   1  15
ATOM     15  C   UNL     1      -2.133  -1.181   3.865  0.00  0.00    +0.173 C 
BRANCH  15  16
ATOM     16  S   UNL     1      -1.254  -0.945   2.300  0.00  0.00    -0.075 S 
BRANCH  16  18
ATOM     17  N   UNL     1      -0.659   1.571   1.258  0.00  0.00    -0.218 N 
ATOM     18  C   UNL     1      -1.211   0.815   2.236  0.00  0.00    +0.210 A 
ATOM     19  N   UNL     1      -1.708   1.642   3.130  0.00  0.00    -0.101 NA
ATOM     20  N   UNL     1      -1.506   2.860   2.778  0.00  0.00    -0.022 NA
ATOM     21  N   UNL     1      -0.870   2.903   1.657  0.00  0.00    -0.043 NA
BRANCH  17  23
ATOM     22  C   UNL     1       1.459   1.619   0.036  0.00  0.00    +0.032 C 
ATOM     23  C   UNL     1       0.019   1.103   0.047  0.00  0.00    +0.106 C 
ATOM     24  C   UNL     1      -0.720   1.627  -1.186  0.00  0.00    +0.032 C 
ENDBRANCH  17  23
ENDBRANCH  16  18
ENDBRANCH  15  16
ENDBRANCH   1  15
TORSDOF 6
