REMARK  Name = ZINC28294798
REMARK  4 active torsions:
REMARK  status: ('A' for Active; 'I' for Inactive)
REMARK    1  A    between atoms: C_4  and  N_25
REMARK    2  A    between atoms: C_5  and  N_7
REMARK    3  A    between atoms: C_8  and  C_10
REMARK    4  A    between atoms: N_12  and  N_13
REMARK                            x       y       z     vdW  Elec       q    Type
REMARK                         _______ _______ _______ _____ _____    ______ ____
ROOT
ATOM      1  C   UNL     1       0.021  -4.119   0.061  0.00  0.00    +0.318 C 
ATOM      2  O   UNL     1       1.054  -4.739   0.204  0.00  0.00    -0.263 OA
ATOM      3  N   UNL     1      -1.154  -4.775  -0.008  0.00  0.00    -0.198 N 
ATOM      4  H   UNL     1      -1.980  -4.280  -0.122  0.00  0.00    +0.178 HD
ENDROOT
BRANCH   3   5
ATOM      5  N   UNL     1      -1.183  -6.173   0.084  0.00  0.00    -0.174 NA
ATOM      6  C   UNL     1      -2.332  -6.805   0.113  0.00  0.00    +0.153 C 
ATOM      7  C   UNL     1      -3.683  -6.227  -0.065  0.00  0.00    +0.029 A 
ATOM      8  C   UNL     1      -4.144  -4.936  -0.302  0.00  0.00    +0.027 A 
ATOM      9  C   UNL     1      -5.500  -4.704  -0.425  0.00  0.00    +0.019 A 
ATOM     10  C   UNL     1      -6.396  -5.754  -0.312  0.00  0.00    +0.017 A 
ATOM     11  C   UNL     1      -5.949  -7.038  -0.077  0.00  0.00    +0.025 A 
ATOM     12  C   UNL     1      -4.587  -7.291   0.049  0.00  0.00    +0.043 A 
ATOM     13  N   UNL     1      -3.884  -8.469   0.283  0.00  0.00    -0.280 N 
ATOM     14  C   UNL     1      -2.559  -8.249   0.325  0.00  0.00    +0.269 C 
ATOM     15  O   UNL     1      -1.699  -9.091   0.507  0.00  0.00    -0.268 OA
ATOM     16 BR   UNL     1      -6.133  -2.952  -0.747  0.00  0.00    -0.050 Br
ATOM     17  H   UNL     1      -4.298  -9.339   0.397  0.00  0.00    +0.155 HD
ENDBRANCH   3   5
BRANCH   1  19
ATOM     18  N   UNL     1       1.226  -1.975   0.032  0.00  0.00    -0.276 N 
ATOM     19  C   UNL     1       0.051  -2.631  -0.037  0.00  0.00    +0.305 C 
ATOM     20  O   UNL     1      -0.983  -2.011  -0.180  0.00  0.00    -0.265 OA
ATOM     21  H   UNL     1       2.058  -2.472   0.065  0.00  0.00    +0.155 HD
BRANCH  18  26
ATOM     22  C   UNL     1       0.260   1.502   0.730  0.00  0.00    +0.002 A 
ATOM     23  C   UNL     1       1.285   2.189   0.105  0.00  0.00    +0.002 A 
ATOM     24  C   UNL     1       2.291   1.496  -0.543  0.00  0.00    +0.034 A 
ATOM     25  C   UNL     1       2.274   0.115  -0.569  0.00  0.00    +0.147 A 
ATOM     26  C   UNL     1       1.246  -0.578   0.057  0.00  0.00    +0.064 A 
ATOM     27  C   UNL     1       0.237   0.122   0.708  0.00  0.00    +0.025 A 
BRANCH  25  28
ATOM     28  N   UNL     1       3.351  -0.625  -1.265  0.00  0.00    +0.058 N 
ATOM     29  O   UNL     1       4.196  -0.023  -1.885  0.00  0.00    -0.126 OA
ATOM     30  O   UNL     1       3.385  -1.833  -1.212  0.00  0.00    -0.126 OA
ENDBRANCH  25  28
ENDBRANCH  18  26
ENDBRANCH   1  19
TORSDOF 4
