REMARK  Name = ZINC51712733
REMARK  9 active torsions:
REMARK  status: ('A' for Active; 'I' for Inactive)
REMARK    1  A    between atoms: C_1  and  C_2
REMARK    2  A    between atoms: C_2  and  C_3
REMARK    3  A    between atoms: C_3  and  C_4
REMARK    4  A    between atoms: C_4  and  C_6
REMARK    5  A    between atoms: C_4  and  N_7
REMARK    6  A    between atoms: C_8  and  C_10
REMARK    7  A    between atoms: N_19  and  C_20
REMARK    8  A    between atoms: C_26  and  O_28
REMARK    9  A    between atoms: O_28  and  C_29
REMARK                            x       y       z     vdW  Elec       q    Type
REMARK                         _______ _______ _______ _____ _____    ______ ____
ROOT
ATOM      1  C   UNL     1      -2.341  -4.281  -1.030  0.00  0.00    +0.092 C 
ATOM      2  C   UNL     1      -2.416  -5.687  -0.430  0.00  0.00    +0.016 C 
ATOM      3  C   UNL     1      -3.855  -6.202  -0.511  0.00  0.00    +0.020 C 
ATOM      4  C   UNL     1      -4.284  -6.279  -1.979  0.00  0.00    +0.109 C 
ATOM      5  N   UNL     1      -4.077  -4.965  -2.602  0.00  0.00    -0.285 N 
ATOM      6  C   UNL     1      -2.753  -4.336  -2.505  0.00  0.00    +0.122 C 
ATOM      7  C   UNL     1      -5.084  -4.346  -3.251  0.00  0.00    +0.302 C 
ATOM      8  O   UNL     1      -4.929  -3.219  -3.680  0.00  0.00    -0.253 OA
ATOM      9  N   UNL     1      -6.262  -4.978  -3.425  0.00  0.00    -0.296 N 
ATOM     10  H   UNL     1      -6.410  -5.847  -3.022  0.00  0.00    +0.151 HD
ENDROOT
BRANCH   9  11
ATOM     11  C   UNL     1      -7.318  -4.351  -4.224  0.00  0.00    +0.077 C 
ATOM     12  C   UNL     1      -8.125  -3.396  -3.342  0.00  0.00    +0.041 C 
ATOM     13  C   UNL     1      -9.206  -2.716  -4.188  0.00  0.00    +0.113 C 
ATOM     14  N   UNL     1     -10.011  -3.753  -4.849  0.00  0.00    -0.267 N 
ATOM     15  C   UNL     1      -9.325  -4.776  -5.649  0.00  0.00    +0.113 C 
ATOM     16  C   UNL     1      -8.242  -5.433  -4.786  0.00  0.00    +0.041 C 
ATOM     17  C   UNL     1     -11.353  -3.765  -4.723  0.00  0.00    +0.403 C 
ATOM     18  O   UNL     1     -11.908  -2.913  -4.058  0.00  0.00    -0.226 OA
BRANCH  17  19
ATOM     19  O   UNL     1     -12.078  -4.721  -5.334  0.00  0.00    -0.454 OA
ATOM     20  C   UNL     1     -13.495  -4.673  -5.157  0.00  0.00    +0.282 C 
ENDBRANCH  17  19
ENDBRANCH   9  11
BRANCH   1  22
ATOM     21  N   UNL     1      -0.625  -2.536  -1.389  0.00  0.00    -0.312 N 
ATOM     22  C   UNL     1      -0.930  -3.763  -0.921  0.00  0.00    +0.218 C 
ATOM     23  O   UNL     1      -0.069  -4.449  -0.412  0.00  0.00    -0.275 OA
ATOM     24  H   UNL     1      -1.313  -1.987  -1.795  0.00  0.00    +0.149 HD
BRANCH  21  25
ATOM     25  C   UNL     1       0.747  -2.032  -1.282  0.00  0.00    +0.070 C 
ATOM     26  C   UNL     1       1.567  -2.530  -2.474  0.00  0.00    +0.028 C 
BRANCH  25  27
ATOM     27  C   UNL     1       0.729  -0.502  -1.279  0.00  0.00    +0.022 C 
BRANCH  27  29
ATOM     28  C   UNL     1      -0.002   1.527  -0.018  0.00  0.00    +0.004 C 
ATOM     29  C   UNL     1       0.016  -0.003  -0.021  0.00  0.00    -0.002 C 
ENDBRANCH  27  29
ENDBRANCH  25  27
ENDBRANCH  21  25
ENDBRANCH   1  22
TORSDOF 6
