REMARK  Name = ZINC59310036
REMARK  9 active torsions:
REMARK  status: ('A' for Active; 'I' for Inactive)
REMARK    1  A    between atoms: C_1  and  C_2
REMARK    2  A    between atoms: C_2  and  N_3
REMARK    3  A    between atoms: N_3  and  C_4
REMARK    4  A    between atoms: C_4  and  C_5
REMARK    5  A    between atoms: C_6  and  C_8
REMARK    6  A    between atoms: C_8  and  S_9
REMARK    7  A    between atoms: S_9  and  C_10
REMARK    8  A    between atoms: N_15  and  N_16
REMARK    9  A    between atoms: C_17  and  C_18
REMARK                            x       y       z     vdW  Elec       q    Type
REMARK                         _______ _______ _______ _____ _____    ______ ____
ROOT
ATOM      1  C   UNL     1      -5.625  -2.043   2.754  0.00  0.00    +0.211 A 
ATOM      2  N   UNL     1      -6.436  -2.358   3.769  0.00  0.00    -0.186 NA
ATOM      3  C   UNL     1      -7.585  -2.796   3.299  0.00  0.00    +0.232 A 
ATOM      4  N   UNL     1      -7.523  -2.766   1.951  0.00  0.00    -0.245 N 
ATOM      5  N   UNL     1      -6.250  -2.271   1.623  0.00  0.00    -0.144 NA
ATOM      6  N   UNL     1      -8.666  -3.214   4.053  0.00  0.00    -0.205 N 
ATOM      7  H   UNL     1      -9.474  -3.522   3.614  0.00  0.00    +0.177 HD
ATOM      8  H   UNL     1      -8.220  -3.031   1.331  0.00  0.00    +0.192 HD
ENDROOT
BRANCH   6   9
ATOM      9  N   UNL     1      -8.594  -3.192   5.452  0.00  0.00    -0.188 NA
ATOM     10  C   UNL     1      -9.613  -3.585   6.163  0.00  0.00    +0.139 C 
BRANCH  10  11
ATOM     11  C   UNL     1      -9.537  -3.562   7.626  0.00  0.00    +0.010 A 
ATOM     12  C   UNL     1     -10.671  -3.876   8.404  0.00  0.00    -0.009 A 
ATOM     13  C   UNL     1     -11.894  -4.217   7.800  0.00  0.00    +0.009 A 
ATOM     14  C   UNL     1     -12.969  -4.514   8.579  0.00  0.00    +0.001 A 
ATOM     15  C   UNL     1     -12.892  -4.491   9.970  0.00  0.00    +0.001 A 
ATOM     16  C   UNL     1     -11.741  -4.170  10.615  0.00  0.00    +0.008 A 
ATOM     17  C   UNL     1     -10.588  -3.852   9.866  0.00  0.00    -0.017 A 
ATOM     18  C   UNL     1      -9.390  -3.518  10.498  0.00  0.00    +0.017 A 
ATOM     19  C   UNL     1      -8.263  -3.207   9.736  0.00  0.00    -0.017 A 
ATOM     20  C   UNL     1      -8.329  -3.232   8.273  0.00  0.00    -0.009 A 
ATOM     21  C   UNL     1      -7.173  -2.918   7.537  0.00  0.00    +0.009 A 
ATOM     22  C   UNL     1      -6.024  -2.603   8.192  0.00  0.00    +0.001 A 
ATOM     23  C   UNL     1      -5.957  -2.584   9.584  0.00  0.00    +0.001 A 
ATOM     24  C   UNL     1      -7.040  -2.866  10.354  0.00  0.00    +0.008 A 
ENDBRANCH  10  11
ENDBRANCH   6   9
BRANCH   1  25
ATOM     25  S   UNL     1      -3.986  -1.416   2.910  0.00  0.00    -0.075 S 
BRANCH  25  26
ATOM     26  C   UNL     1      -3.439  -1.189   1.195  0.00  0.00    +0.173 C 
BRANCH  26  28
ATOM     27  N   UNL     1      -1.414  -0.401   0.013  0.00  0.00    -0.301 N 
ATOM     28  C   UNL     1      -2.032  -0.649   1.185  0.00  0.00    +0.226 C 
ATOM     29  O   UNL     1      -1.455  -0.438   2.231  0.00  0.00    -0.275 OA
BRANCH  27  31
ATOM     30  C   UNL     1      -0.087   1.653   0.012  0.00  0.00    +0.024 C 
ATOM     31  C   UNL     1      -0.046   0.124   0.003  0.00  0.00    +0.104 C 
ENDBRANCH  27  31
BRANCH  27  32
ATOM     32  C   UNL     1      -2.110  -0.656  -1.251  0.00  0.00    +0.104 C 
ATOM     33  C   UNL     1      -1.836  -2.091  -1.704  0.00  0.00    +0.024 C 
ENDBRANCH  27  32
ENDBRANCH  26  28
ENDBRANCH  25  26
ENDBRANCH   1  25
TORSDOF 7
