REMARK  Name = ZINC06503576
REMARK  9 active torsions:
REMARK  status: ('A' for Active; 'I' for Inactive)
REMARK    1  A    between atoms: C_1  and  C_2
REMARK    2  A    between atoms: C_5  and  C_8
REMARK    3  A    between atoms: C_11  and  C_22
REMARK    4  A    between atoms: C_16  and  C_18
REMARK    5  A    between atoms: C_18  and  C_19
REMARK    6  A    between atoms: C_19  and  C_20
REMARK    7  A    between atoms: C_20  and  O_21
REMARK    8  A    between atoms: C_25  and  N_28
REMARK    9  A    between atoms: C_29  and  C_31
REMARK                            x       y       z     vdW  Elec       q    Type
REMARK                         _______ _______ _______ _____ _____    ______ ____
ROOT
ATOM      1  C   UNL     1      -0.039  -4.421  -0.182  0.00  0.00    +0.147 C 
ATOM      2  C   UNL     1       1.272  -4.840   0.494  0.00  0.00    +0.087 C 
ATOM      3  C   UNL     1       1.164  -6.222   1.073  0.00  0.00    +0.055 C 
ATOM      4  N   UNL     1       0.052  -6.691   1.575  0.00  0.00    -0.215 NA
ATOM      5  C   UNL     1      -1.069  -5.925   1.506  0.00  0.00    +0.250 A 
ATOM      6  N   UNL     1      -1.146  -4.836   0.680  0.00  0.00    -0.221 N 
ATOM      7  N   UNL     1      -2.412  -4.290   0.857  0.00  0.00    -0.153 NA
ATOM      8  C   UNL     1      -3.034  -5.049   1.729  0.00  0.00    +0.153 A 
ATOM      9  N   UNL     1      -2.224  -6.038   2.115  0.00  0.00    -0.194 NA
ENDROOT
BRANCH   1  14
ATOM     10  C   UNL     1      -0.143   1.316  -0.867  0.00  0.00    +0.044 C 
ATOM     11  C   UNL     1      -0.116  -0.180  -0.688  0.00  0.00    -0.050 A 
ATOM     12  C   UNL     1      -0.211  -1.010  -1.790  0.00  0.00    +0.004 A 
ATOM     13  C   UNL     1      -0.186  -2.382  -1.626  0.00  0.00    +0.006 A 
ATOM     14  C   UNL     1      -0.065  -2.925  -0.361  0.00  0.00    -0.023 A 
ATOM     15  C   UNL     1       0.031  -2.096   0.741  0.00  0.00    +0.006 A 
ATOM     16  C   UNL     1       0.010  -0.724   0.577  0.00  0.00    +0.004 A 
ENDBRANCH   1  14
BRANCH   3  17
ATOM     17  C   UNL     1       2.356  -7.082   1.074  0.00  0.00    -0.003 A 
ATOM     18  C   UNL     1       3.564  -6.607   0.548  0.00  0.00    +0.011 A 
ATOM     19  C   UNL     1       4.678  -7.415   0.552  0.00  0.00    +0.024 A 
ATOM     20  C   UNL     1       4.605  -8.702   1.077  0.00  0.00    +0.033 A 
ATOM     21  C   UNL     1       3.406  -9.178   1.600  0.00  0.00    +0.024 A 
ATOM     22  C   UNL     1       2.289  -8.375   1.606  0.00  0.00    +0.011 A 
BRANCH  20  23
ATOM     23  N   UNL     1       5.737  -9.518   1.079  0.00  0.00    -0.286 N 
ATOM     24  C   UNL     1       6.959  -8.974   1.238  0.00  0.00    +0.214 C 
ATOM     25  O   UNL     1       7.070  -7.790   1.475  0.00  0.00    -0.276 OA
ATOM     26  C   UNL     1       8.189  -9.837   1.121  0.00  0.00    +0.109 C 
ATOM     27  H   UNL     1       5.643 -10.477   0.965  0.00  0.00    +0.155 HD
ENDBRANCH  20  23
ENDBRANCH   3  17
BRANCH   8  28
ATOM     28  C   UNL     1      -4.442  -4.836   2.220  0.00  0.00    +0.080 C 
BRANCH  28  29
ATOM     29  C   UNL     1      -5.418  -5.588   1.313  0.00  0.00    +0.035 C 
BRANCH  29  30
ATOM     30  C   UNL     1      -6.848  -5.372   1.811  0.00  0.00    +0.156 C 
BRANCH  30  31
ATOM     31  O   UNL     1      -7.760  -6.075   0.964  0.00  0.00    -0.395 OA
ATOM     32  H   UNL     1      -8.687  -5.982   1.222  0.00  0.00    +0.209 HD
ENDBRANCH  30  31
ENDBRANCH  29  30
ENDBRANCH  28  29
ENDBRANCH   8  28
TORSDOF 7
