REMARK  Name = ZINC40135349
REMARK  7 active torsions:
REMARK  status: ('A' for Active; 'I' for Inactive)
REMARK    1  A    between atoms: C_1  and  C_2
REMARK    2  A    between atoms: C_7  and  C_32
REMARK    3  A    between atoms: C_10  and  C_12
REMARK    4  A    between atoms: C_17  and  N_18
REMARK    5  A    between atoms: N_18  and  C_19
REMARK    6  A    between atoms: C_19  and  C_20
REMARK    7  A    between atoms: N_22  and  C_23
REMARK                            x       y       z     vdW  Elec       q    Type
REMARK                         _______ _______ _______ _____ _____    ______ ____
ROOT
ATOM      1  C   UNL     1       1.851  -0.522   3.193  0.00  0.00    +0.059 A 
ATOM      2  C   UNL     1       1.919  -1.917   3.220  0.00  0.00    +0.035 A 
ATOM      3  C   UNL     1       2.719  -2.549   4.147  0.00  0.00    +0.042 A 
ATOM      4  C   UNL     1       3.458  -1.806   5.056  0.00  0.00    +0.022 A 
ATOM      5  C   UNL     1       3.401  -0.427   5.042  0.00  0.00    +0.025 A 
ATOM      6  C   UNL     1       2.604   0.227   4.110  0.00  0.00    +0.040 A 
ATOM      7 CL   UNL     1       2.801  -4.282   4.179  0.00  0.00    -0.084 Cl
ENDROOT
BRANCH   1  15
ATOM      8  C   UNL     1      -0.350   1.495   0.298  0.00  0.00    +0.028 C 
ATOM      9  C   UNL     1      -1.153   0.444   1.067  0.00  0.00    +0.074 C 
ATOM     10  C   UNL     1      -2.373   1.105   1.719  0.00  0.00    +0.022 C 
ATOM     11  C   UNL     1      -3.093   0.080   2.599  0.00  0.00    +0.004 C 
ATOM     12  C   UNL     1      -2.151  -0.395   3.707  0.00  0.00    +0.022 C 
ATOM     13  C   UNL     1      -0.930  -1.073   3.078  0.00  0.00    +0.074 C 
ATOM     14  N   UNL     1      -0.313  -0.146   2.119  0.00  0.00    -0.292 N 
ATOM     15  C   UNL     1       0.997   0.160   2.203  0.00  0.00    +0.249 C 
ATOM     16  O   UNL     1       1.474   0.999   1.463  0.00  0.00    -0.270 OA
ATOM     17  C   UNL     1      -1.367  -2.346   2.352  0.00  0.00    +0.028 C 
ENDBRANCH   1  15
BRANCH   6  18
ATOM     18  N   UNL     1       2.550   1.615   4.089  0.00  0.00    -0.335 N 
ATOM     19  H   UNL     1       2.050   2.071   3.394  0.00  0.00    +0.147 HD
BRANCH  18  20
ATOM     20  C   UNL     1       3.249   2.390   5.118  0.00  0.00    +0.198 C 
BRANCH  20  21
ATOM     21  C   UNL     1       3.034   3.861   4.871  0.00  0.00    +0.234 C 
ATOM     22  O   UNL     1       2.363   4.226   3.928  0.00  0.00    -0.274 OA
ATOM     23  N   UNL     1       3.586   4.771   5.697  0.00  0.00    -0.282 N 
ATOM     24  H   UNL     1       4.171   4.482   6.415  0.00  0.00    +0.155 HD
BRANCH  23  25
ATOM     25  C   UNL     1       3.316   6.135   5.519  0.00  0.00    +0.069 A 
ATOM     26  C   UNL     1       2.103   6.538   4.979  0.00  0.00    +0.029 A 
ATOM     27  C   UNL     1       1.838   7.883   4.804  0.00  0.00    +0.040 A 
ATOM     28  C   UNL     1       2.782   8.829   5.166  0.00  0.00    +0.126 A 
ATOM     29  C   UNL     1       3.993   8.431   5.705  0.00  0.00    +0.078 A 
ATOM     30  C   UNL     1       4.261   7.086   5.888  0.00  0.00    +0.147 A 
ATOM     31  F   UNL     1       5.440   6.697   6.419  0.00  0.00    -0.203 F 
ATOM     32  F   UNL     1       2.520  10.143   4.994  0.00  0.00    -0.205 F 
ENDBRANCH  23  25
ENDBRANCH  20  21
ENDBRANCH  18  20
ENDBRANCH   6  18
TORSDOF 5
