REMARK  Name = ZINC65721053
REMARK  8 active torsions:
REMARK  status: ('A' for Active; 'I' for Inactive)
REMARK    1  A    between atoms: C_1  and  C_2
REMARK    2  A    between atoms: C_2  and  O_3
REMARK    3  A    between atoms: O_3  and  C_4
REMARK    4  A    between atoms: C_9  and  N_10
REMARK    5  A    between atoms: C_11  and  C_13
REMARK    6  A    between atoms: C_13  and  N_14
REMARK    7  A    between atoms: C_21  and  N_23
REMARK    8  A    between atoms: C_27  and  C_29
REMARK                            x       y       z     vdW  Elec       q    Type
REMARK                         _______ _______ _______ _____ _____    ______ ____
ROOT
ATOM      1  N   UNL     1      -3.901  -1.568   0.027  0.00  0.00    -0.281 N 
ATOM      2  C   UNL     1      -5.070  -2.018   0.523  0.00  0.00    +0.237 C 
ATOM      3  O   UNL     1      -5.127  -3.112   1.043  0.00  0.00    -0.274 OA
ATOM      4  H   UNL     1      -3.835  -0.663  -0.316  0.00  0.00    +0.155 HD
ENDROOT
BRANCH   1  10
ATOM      5  C   UNL     1      -1.500  -1.858  -0.006  0.00  0.00    +0.142 A 
ATOM      6  C   UNL     1      -0.395  -2.695  -0.025  0.00  0.00    +0.055 A 
ATOM      7  C   UNL     1      -0.566  -4.062  -0.038  0.00  0.00    +0.001 A 
ATOM      8  C   UNL     1      -1.836  -4.623  -0.025  0.00  0.00    +0.126 A 
ATOM      9  C   UNL     1      -2.946  -3.783  -0.010  0.00  0.00    +0.073 A 
ATOM     10  C   UNL     1      -2.779  -2.408   0.006  0.00  0.00    +0.079 A 
ATOM     11  O   UNL     1      -1.774  -5.984  -0.018  0.00  0.00    -0.488 OA
ATOM     12  C   UNL     1      -0.475  -6.401  -0.472  0.00  0.00    +0.175 C 
ATOM     13  C   UNL     1       0.426  -5.209  -0.071  0.00  0.00    +0.083 C 
ATOM     14  C   UNL     1      -0.470  -6.598  -1.989  0.00  0.00    +0.052 C 
BRANCH   5  15
ATOM     15  O   UNL     1      -1.335  -0.507   0.007  0.00  0.00    -0.490 OA
BRANCH  15  17
ATOM     16  C   UNL     1      -0.008   1.513   0.012  0.00  0.00    +0.048 C 
ATOM     17  C   UNL     1       0.007  -0.017  -0.006  0.00  0.00    +0.226 C 
ENDBRANCH  15  17
ENDBRANCH   5  15
ENDBRANCH   1  10
BRANCH   2  18
ATOM     18  C   UNL     1      -6.306  -1.161   0.433  0.00  0.00    +0.217 C 
BRANCH  18  19
ATOM     19  N   UNL     1      -7.436  -1.869   1.040  0.00  0.00    -0.338 N 
ATOM     20  C   UNL     1      -8.342  -2.635   0.357  0.00  0.00    +0.087 A 
ATOM     21  C   UNL     1      -9.248  -3.142   1.208  0.00  0.00    +0.027 A 
ATOM     22  C   UNL     1      -8.893  -2.661   2.546  0.00  0.00    +0.002 A 
ATOM     23  C   UNL     1      -7.742  -1.868   2.382  0.00  0.00    +0.050 A 
ATOM     24  C   UNL     1      -7.162  -1.271   3.496  0.00  0.00    +0.028 A 
ATOM     25  C   UNL     1      -7.717  -1.463   4.742  0.00  0.00    +0.035 A 
ATOM     26  C   UNL     1      -8.850  -2.248   4.899  0.00  0.00    +0.127 A 
ATOM     27  C   UNL     1      -9.441  -2.839   3.818  0.00  0.00    +0.042 A 
BRANCH  26  28
ATOM     28  N   UNL     1      -9.429  -2.441   6.248  0.00  0.00    +0.056 N 
ATOM     29  O   UNL     1      -8.914  -1.916   7.208  0.00  0.00    -0.126 OA
ATOM     30  O   UNL     1     -10.416  -3.124   6.391  0.00  0.00    -0.126 OA
ENDBRANCH  26  28
ENDBRANCH  18  19
ENDBRANCH   2  18
TORSDOF 6
