REMARK  Name = ZINC13065149
REMARK  12 active torsions:
REMARK  status: ('A' for Active; 'I' for Inactive)
REMARK    1  A    between atoms: C_1  and  C_2
REMARK    2  A    between atoms: C_2  and  C_3
REMARK    3  A    between atoms: C_3  and  C_5
REMARK    4  A    between atoms: C_3  and  N_75
REMARK    5  A    between atoms: N_9  and  C_10
REMARK    6  A    between atoms: C_10  and  C_11
REMARK    7  A    between atoms: C_11  and  C_12
REMARK    8  A    between atoms: C_18  and  C_19
REMARK    9  A    between atoms: C_18  and  N_75
REMARK   10  A    between atoms: C_24  and  C_32
REMARK   11  A    between atoms: C_25  and  C_31
REMARK   12  A    between atoms: C_33  and  N_75
REMARK                            x       y       z     vdW  Elec       q    Type
REMARK                         _______ _______ _______ _____ _____    ______ ____
ROOT
ATOM      1  N   UNL     1       0.769   3.803   1.451  0.00  0.00    +0.391 N 
ATOM      2  H   UNL     1       1.551   3.370   1.958  0.00  0.00    -0.080 HD
ENDROOT
BRANCH   1   3
ATOM      3  C   UNL     1       0.713   5.240   1.792  0.00  0.00    -0.067 C 
ATOM      4  C   UNL     1      -0.307   5.961   0.908  0.00  0.00    -0.015 C 
ATOM      5  C   UNL     1      -0.343   7.445   1.278  0.00  0.00    -0.002 C 
ATOM      6  C   UNL     1       1.043   8.058   1.061  0.00  0.00    -0.000 C 
ATOM      7  C   UNL     1       2.063   7.337   1.945  0.00  0.00    -0.002 C 
ATOM      8  C   UNL     1       2.099   5.853   1.575  0.00  0.00    -0.015 C 
ENDBRANCH   1   3
BRANCH   1   9
ATOM      9  C   UNL     1      -0.489   3.139   1.853  0.00  0.00    +0.003 C 
BRANCH   9  10
ATOM     10  C   UNL     1      -0.910   3.650   3.206  0.00  0.00    +0.138 A 
ATOM     11  N   UNL     1      -0.137   3.834   4.249  0.00  0.00    -0.115 NA
ATOM     12  N   UNL     1      -0.867   4.280   5.212  0.00  0.00    -0.023 NA
ATOM     13  N   UNL     1      -2.086   4.386   4.811  0.00  0.00    -0.044 NA
ATOM     14  N   UNL     1      -2.152   4.012   3.578  0.00  0.00    -0.231 N 
BRANCH  14  15
ATOM     15  C   UNL     1      -3.354   3.983   2.740  0.00  0.00    +0.152 C 
BRANCH  15  16
ATOM     16  C   UNL     1      -4.038   2.622   2.877  0.00  0.00    +0.058 C 
BRANCH  16  17
ATOM     17  C   UNL     1      -5.274   2.592   2.016  0.00  0.00    -0.046 A 
ATOM     18  C   UNL     1      -6.491   2.990   2.538  0.00  0.00    +0.004 A 
ATOM     19  C   UNL     1      -7.624   2.968   1.747  0.00  0.00    +0.000 A 
ATOM     20  C   UNL     1      -7.543   2.537   0.436  0.00  0.00    +0.000 A 
ATOM     21  C   UNL     1      -6.327   2.133  -0.085  0.00  0.00    +0.000 A 
ATOM     22  C   UNL     1      -5.193   2.160   0.705  0.00  0.00    +0.004 A 
ENDBRANCH  16  17
ENDBRANCH  15  16
ENDBRANCH  14  15
ENDBRANCH   9  10
BRANCH   9  24
ATOM     23  C   UNL     1       0.918   1.351   2.885  0.00  0.00    +0.002 C 
ATOM     24  C   UNL     1      -0.244   1.631   1.931  0.00  0.00    -0.011 C 
ENDBRANCH   9  24
ENDBRANCH   1   9
BRANCH   1  25
ATOM     25  C   UNL     1       0.988   3.635  -0.001  0.00  0.00    -0.036 C 
BRANCH  25  26
ATOM     26  C   UNL     1       1.552   2.260  -0.249  0.00  0.00    +0.001 A 
ATOM     27  C   UNL     1       0.819   1.342  -0.926  0.00  0.00    +0.017 A 
ATOM     28  C   UNL     1       1.395   0.015  -1.150  0.00  0.00    -0.001 A 
ATOM     29  C   UNL     1       0.688  -0.974  -1.842  0.00  0.00    +0.010 A 
ATOM     30  C   UNL     1       1.254  -2.202  -2.035  0.00  0.00    +0.004 A 
ATOM     31  C   UNL     1       2.526  -2.478  -1.550  0.00  0.00    -0.046 A 
ATOM     32  C   UNL     1       3.240  -1.520  -0.865  0.00  0.00    -0.024 A 
ATOM     33  C   UNL     1       2.685  -0.261  -0.657  0.00  0.00    +0.052 A 
ATOM     34  N   UNL     1       3.378   0.717   0.024  0.00  0.00    -0.322 N 
ATOM     35  H   UNL     1       4.266   0.525   0.363  0.00  0.00    +0.169 HD
ATOM     36  C   UNL     1       2.842   1.934   0.220  0.00  0.00    +0.251 A 
ATOM     37  O   UNL     1       3.486   2.776   0.823  0.00  0.00    -0.268 OA
ATOM     38  C   UNL     1       4.619  -1.833  -0.343  0.00  0.00    +0.046 C 
ATOM     39  C   UNL     1       3.130  -3.840  -1.774  0.00  0.00    +0.044 C 
ENDBRANCH  25  26
ENDBRANCH   1  25
TORSDOF 9
