REMARK  Name = ZINC54900637
REMARK  9 active torsions:
REMARK  status: ('A' for Active; 'I' for Inactive)
REMARK    1  A    between atoms: C_1  and  N_2
REMARK    2  A    between atoms: N_2  and  C_3
REMARK    3  A    between atoms: N_2  and  C_4
REMARK    4  A    between atoms: C_7  and  N_11
REMARK    5  A    between atoms: C_12  and  C_14
REMARK    6  A    between atoms: N_16  and  C_17
REMARK    7  A    between atoms: C_17  and  C_18
REMARK    8  A    between atoms: C_18  and  C_19
REMARK    9  A    between atoms: C_22  and  N_25
REMARK                            x       y       z     vdW  Elec       q    Type
REMARK                         _______ _______ _______ _____ _____    ______ ____
ROOT
ATOM      1  N   UNL     1      -4.785  -2.856   0.032  0.00  0.00    -0.278 N 
ATOM      2  C   UNL     1      -5.425  -3.112  -1.126  0.00  0.00    +0.303 C 
ATOM      3  O   UNL     1      -4.914  -2.801  -2.183  0.00  0.00    -0.265 OA
ATOM      4  H   UNL     1      -5.157  -3.171   0.871  0.00  0.00    +0.155 HD
ENDROOT
BRANCH   1   8
ATOM      5  C   UNL     1      -1.212  -0.704   0.012  0.00  0.00    +0.101 A 
ATOM      6  C   UNL     1      -2.201  -0.419  -0.923  0.00  0.00    +0.149 A 
ATOM      7  C   UNL     1      -3.385  -1.133  -0.916  0.00  0.00    +0.063 A 
ATOM      8  C   UNL     1      -3.587  -2.135   0.025  0.00  0.00    +0.039 A 
ATOM      9  C   UNL     1      -2.599  -2.420   0.960  0.00  0.00    +0.063 A 
ATOM     10  C   UNL     1      -1.413  -1.711   0.950  0.00  0.00    +0.149 A 
ATOM     11  F   UNL     1      -0.450  -1.992   1.855  0.00  0.00    -0.203 F 
ATOM     12  F   UNL     1      -2.005   0.556  -1.837  0.00  0.00    -0.203 F 
BRANCH   5  14
ATOM     13  C   UNL     1       1.121  -0.449  -0.798  0.00  0.00    +0.129 C 
ATOM     14  N   UNL     1      -0.011   0.019   0.005  0.00  0.00    -0.332 N 
ATOM     15  C   UNL     1       0.111   1.242   0.801  0.00  0.00    +0.129 C 
ENDBRANCH   5  14
ENDBRANCH   1   8
BRANCH   2  16
ATOM     16  C   UNL     1      -6.761  -3.777  -1.110  0.00  0.00    +0.299 C 
ATOM     17  O   UNL     1      -7.272  -4.088  -0.054  0.00  0.00    -0.265 OA
ATOM     18  N   UNL     1      -7.401  -4.034  -2.269  0.00  0.00    -0.307 N 
ATOM     19  H   UNL     1      -6.992  -3.785  -3.113  0.00  0.00    +0.149 HD
BRANCH  18  20
ATOM     20  C   UNL     1      -8.712  -4.687  -2.253  0.00  0.00    +0.109 C 
BRANCH  20  21
ATOM     21  C   UNL     1      -9.213  -4.859  -3.688  0.00  0.00    +0.054 C 
BRANCH  21  22
ATOM     22  C   UNL     1     -10.562  -5.531  -3.672  0.00  0.00    -0.046 A 
ATOM     23  C   UNL     1     -10.648  -6.910  -3.716  0.00  0.00    +0.006 A 
ATOM     24  C   UNL     1     -11.885  -7.526  -3.701  0.00  0.00    +0.033 A 
ATOM     25  C   UNL     1     -13.036  -6.764  -3.642  0.00  0.00    +0.126 A 
ATOM     26  C   UNL     1     -12.950  -5.385  -3.597  0.00  0.00    +0.033 A 
ATOM     27  C   UNL     1     -11.713  -4.769  -3.607  0.00  0.00    +0.006 A 
BRANCH  25  28
ATOM     28  N   UNL     1     -14.361  -7.424  -3.627  0.00  0.00    +0.056 N 
ATOM     29  O   UNL     1     -14.436  -8.630  -3.667  0.00  0.00    -0.126 OA
ATOM     30  O   UNL     1     -15.368  -6.757  -3.575  0.00  0.00    -0.126 OA
ENDBRANCH  25  28
ENDBRANCH  21  22
ENDBRANCH  20  21
ENDBRANCH  18  20
ENDBRANCH   2  16
TORSDOF 7
