REMARK  Name = ZINC02792766
REMARK  6 active torsions:
REMARK  status: ('A' for Active; 'I' for Inactive)
REMARK    1  A    between atoms: C_1  and  C_2
REMARK    2  A    between atoms: C_7  and  O_8
REMARK    3  A    between atoms: O_8  and  C_9
REMARK    4  A    between atoms: C_9  and  C_10
REMARK    5  A    between atoms: C_13  and  C_15
REMARK    6  A    between atoms: N_17  and  N_18
REMARK                            x       y       z     vdW  Elec       q    Type
REMARK                         _______ _______ _______ _____ _____    ______ ____
ROOT
ATOM      1  C   UNL     1      -0.346  -4.831   1.109  0.00  0.00    +0.297 C 
ATOM      2  O   UNL     1      -0.582  -4.216   2.132  0.00  0.00    -0.265 OA
ATOM      3  N   UNL     1      -0.025  -4.165  -0.019  0.00  0.00    -0.211 N 
ATOM      4  H   UNL     1       0.188  -4.721  -0.944  0.00  0.00    +0.176 HD
ENDROOT
BRANCH   3   5
ATOM      5  N   UNL     1       0.036  -2.766  -0.012  0.00  0.00    -0.198 N 
ATOM      6  C   UNL     1       1.239  -2.146  -0.021  0.00  0.00    +0.280 A 
ATOM      7  O   UNL     1       2.277  -2.782  -0.035  0.00  0.00    -0.265 OA
ATOM      8  C   UNL     1       1.245  -0.677  -0.013  0.00  0.00    +0.066 A 
ATOM      9  C   UNL     1       2.432   0.055  -0.021  0.00  0.00    +0.015 A 
ATOM     10  C   UNL     1       2.381   1.422  -0.013  0.00  0.00    +0.001 A 
ATOM     11  C   UNL     1       1.161   2.086   0.002  0.00  0.00    +0.002 A 
ATOM     12  C   UNL     1      -0.017   1.394   0.010  0.00  0.00    +0.028 A 
ATOM     13  C   UNL     1       0.002  -0.004   0.002  0.00  0.00    +0.079 A 
ATOM     14  N   UNL     1      -1.136  -0.726   0.009  0.00  0.00    -0.221 NA
ATOM     15  C   UNL     1      -1.119  -2.036   0.003  0.00  0.00    +0.201 A 
ATOM     16  S   UNL     1      -2.656  -2.897   0.015  0.00  0.00    -0.009 S 
ENDBRANCH   3   5
BRANCH   1  20
ATOM     17  C   UNL     1      -0.325  -8.375   0.406  0.00  0.00    +0.143 A 
ATOM     18  C   UNL     1      -0.664  -8.417   1.713  0.00  0.00    +0.049 A 
ATOM     19  C   UNL     1      -0.716  -7.091   2.170  0.00  0.00    +0.055 A 
ATOM     20  C   UNL     1      -0.410  -6.296   1.102  0.00  0.00    +0.191 A 
ATOM     21  O   UNL     1      -0.173  -7.095   0.041  0.00  0.00    -0.452 OA
BRANCH  17  22
ATOM     22  C   UNL     1      -0.146  -9.571  -0.493  0.00  0.00    +0.303 C 
BRANCH  22  23
ATOM     23  O   UNL     1      -1.392  -9.891  -1.114  0.00  0.00    -0.483 OA
BRANCH  23  30
ATOM     24  C   UNL     1      -1.965 -12.429  -0.016  0.00  0.00    +0.047 C 
ATOM     25  C   UNL     1      -1.680 -12.223  -1.482  0.00  0.00    -0.007 A 
ATOM     26  C   UNL     1      -1.692 -13.301  -2.346  0.00  0.00    +0.007 A 
ATOM     27  C   UNL     1      -1.429 -13.114  -3.691  0.00  0.00    +0.002 A 
ATOM     28  C   UNL     1      -1.154 -11.848  -4.174  0.00  0.00    +0.024 A 
ATOM     29  C   UNL     1      -1.147 -10.765  -3.315  0.00  0.00    +0.083 A 
ATOM     30  C   UNL     1      -1.405 -10.953  -1.963  0.00  0.00    +0.142 A 
ATOM     31 CL   UNL     1      -0.810  -9.175  -3.923  0.00  0.00    -0.080 Cl
ENDBRANCH  23  30
ENDBRANCH  22  23
ENDBRANCH  17  22
ENDBRANCH   1  20
TORSDOF 5
