REMARK  Name = ZINC39674679
REMARK  11 active torsions:
REMARK  status: ('A' for Active; 'I' for Inactive)
REMARK    1  A    between atoms: C_1  and  C_2
REMARK    2  A    between atoms: C_4  and  C_14
REMARK    3  A    between atoms: C_7  and  C_12
REMARK    4  A    between atoms: C_14  and  C_15
REMARK    5  A    between atoms: C_15  and  N_16
REMARK    6  A    between atoms: C_17  and  C_19
REMARK    7  A    between atoms: C_30  and  C_32
REMARK    8  A    between atoms: C_35  and  O_40
REMARK    9  A    between atoms: C_37  and  O_38
REMARK   10  A    between atoms: O_38  and  C_39
REMARK   11  A    between atoms: O_40  and  C_41
REMARK                            x       y       z     vdW  Elec       q    Type
REMARK                         _______ _______ _______ _____ _____    ______ ____
ROOT
ATOM      1  C   UNL     1       1.369  -1.003  -7.405  0.00  0.00    +0.100 C 
ATOM      2  C   UNL     1       1.321   0.512  -7.707  0.00  0.00    +0.121 C 
ATOM      3  N   UNL     1       2.660   0.827  -8.258  0.00  0.00    -0.296 N 
ATOM      4  C   UNL     1       2.989  -0.336  -9.117  0.00  0.00    +0.115 C 
ATOM      5  C   UNL     1       2.463  -1.556  -8.334  0.00  0.00    -0.004 C 
ATOM      6  C   UNL     1       3.587  -2.180  -7.514  0.00  0.00    -0.010 C 
ATOM      7  C   UNL     1       4.635  -2.773  -8.460  0.00  0.00    -0.082 C 
ATOM      8  N   UNL     1       4.006  -3.787  -9.316  0.00  0.00    +0.379 N 
ATOM      9  C   UNL     1       2.988  -3.161 -10.169  0.00  0.00    -0.082 C 
ATOM     10  C   UNL     1       1.871  -2.584  -9.294  0.00  0.00    -0.010 C 
ATOM     11  C   UNL     1       3.410   1.923  -8.029  0.00  0.00    +0.250 C 
ATOM     12  O   UNL     1       3.043   2.752  -7.218  0.00  0.00    -0.270 OA
ATOM     13  H   UNL     1       4.709  -4.219  -9.896  0.00  0.00    -0.086 HD
ATOM     14  H   UNL     1       3.571  -4.490  -8.738  0.00  0.00    -0.086 HD
ENDROOT
BRANCH  11  15
ATOM     15  C   UNL     1       4.673   2.117  -8.761  0.00  0.00    +0.079 A 
ATOM     16  C   UNL     1       4.787   1.693 -10.089  0.00  0.00    +0.020 A 
ATOM     17  C   UNL     1       5.968   1.876 -10.770  0.00  0.00    +0.046 A 
ATOM     18  C   UNL     1       7.052   2.483 -10.142  0.00  0.00    +0.124 A 
ATOM     19  C   UNL     1       6.950   2.907  -8.825  0.00  0.00    +0.092 A 
ATOM     20  C   UNL     1       5.765   2.734  -8.132  0.00  0.00    +0.136 A 
BRANCH  20  21
ATOM     21  O   UNL     1       5.661   3.153  -6.846  0.00  0.00    -0.494 OA
ATOM     22  C   UNL     1       6.813   3.772  -6.270  0.00  0.00    +0.277 C 
ENDBRANCH  20  21
BRANCH  18  23
ATOM     23  O   UNL     1       8.214   2.659 -10.820  0.00  0.00    -0.495 OA
ATOM     24  C   UNL     1       8.252   2.199 -12.173  0.00  0.00    +0.277 C 
ENDBRANCH  18  23
ENDBRANCH  11  15
BRANCH   1  26
ATOM     25  N   UNL     1       1.273  -2.327  -5.318  0.00  0.00    -0.315 N 
ATOM     26  C   UNL     1       1.737  -1.239  -5.963  0.00  0.00    +0.218 C 
ATOM     27  O   UNL     1       2.452  -0.449  -5.383  0.00  0.00    -0.275 OA
ATOM     28  H   UNL     1       0.701  -2.959  -5.782  0.00  0.00    +0.149 HD
BRANCH  25  29
ATOM     29  C   UNL     1       1.631  -2.556  -3.916  0.00  0.00    +0.108 C 
BRANCH  29  30
ATOM     30  C   UNL     1       0.977  -3.851  -3.428  0.00  0.00    +0.052 C 
BRANCH  30  33
ATOM     31  C   UNL     1      -0.608  -5.270  -0.983  0.00  0.00    +0.035 C 
ATOM     32  C   UNL     1       0.916  -5.246  -1.116  0.00  0.00    +0.103 C 
ATOM     33  C   UNL     1       1.346  -4.087  -1.986  0.00  0.00    -0.037 C 
ATOM     34  C   UNL     1       2.130  -3.301  -1.205  0.00  0.00    +0.000 A 
ATOM     35  C   UNL     1       2.813  -2.085  -1.468  0.00  0.00    +0.028 A 
ATOM     36  C   UNL     1       3.555  -1.482  -0.479  0.00  0.00    +0.052 A 
ATOM     37  C   UNL     1       3.659  -2.067   0.853  0.00  0.00    +0.021 A 
ATOM     38  C   UNL     1       3.031  -3.221   1.161  0.00  0.00    +0.027 A 
ATOM     39  C   UNL     1       2.227  -3.905   0.142  0.00  0.00    +0.043 A 
ATOM     40  N   UNL     1       1.534  -5.019   0.194  0.00  0.00    -0.378 N 
ATOM     41  H   UNL     1       1.445  -5.595   0.970  0.00  0.00    +0.160 HD
BRANCH  36  42
ATOM     42  C   UNL     1       4.239  -0.256  -0.763  0.00  0.00    +0.099 C 
ATOM     43  N   UNL     1       4.780   0.717  -0.988  0.00  0.00    -0.191 NA
ENDBRANCH  36  42
ENDBRANCH  30  33
ENDBRANCH  29  30
ENDBRANCH  25  29
ENDBRANCH   1  26
TORSDOF 8
