REMARK  Name = ZINC35447840
REMARK  13 active torsions:
REMARK  status: ('A' for Active; 'I' for Inactive)
REMARK    1  A    between atoms: C_1  and  C_2
REMARK    2  A    between atoms: C_2  and  C_3
REMARK    3  A    between atoms: C_3  and  N_4
REMARK    4  A    between atoms: N_4  and  C_5
REMARK    5  A    between atoms: N_4  and  S_8
REMARK    6  A    between atoms: C_5  and  C_6
REMARK    7  A    between atoms: C_6  and  C_7
REMARK    8  A    between atoms: S_8  and  C_11
REMARK    9  A    between atoms: C_15  and  C_17
REMARK   10  A    between atoms: N_21  and  C_22
REMARK   11  A    between atoms: N_28  and  C_29
REMARK   12  A    between atoms: C_29  and  C_30
REMARK   13  A    between atoms: C_33  and  C_36
REMARK                            x       y       z     vdW  Elec       q    Type
REMARK                         _______ _______ _______ _____ _____    ______ ____
ROOT
ATOM      1  C   UNL     1      -0.043  -5.727   3.421  0.00  0.00    +0.058 A 
ATOM      2  C   UNL     1      -0.736  -6.526   2.556  0.00  0.00    +0.074 A 
ATOM      3  S   UNL     1      -1.533  -7.644   3.701  0.00  0.00    -0.062 S 
ATOM      4  C   UNL     1      -0.867  -6.941   5.203  0.00  0.00    +0.144 A 
ATOM      5  N   UNL     1      -1.074  -7.328   6.518  0.00  0.00    -0.295 N 
ATOM      6  N   UNL     1      -0.123  -5.960   4.729  0.00  0.00    -0.318 N 
ATOM      7  H   UNL     1      -0.716  -6.793   7.243  0.00  0.00    +0.154 HD
ENDROOT
BRANCH   1  12
ATOM      8  C   UNL     1       1.061  -2.694   1.493  0.00  0.00    +0.106 A 
ATOM      9  C   UNL     1       2.359  -2.543   1.948  0.00  0.00    +0.028 A 
ATOM     10  C   UNL     1       2.878  -3.424   2.879  0.00  0.00    +0.003 A 
ATOM     11  C   UNL     1       2.103  -4.459   3.361  0.00  0.00    +0.010 A 
ATOM     12  C   UNL     1       0.795  -4.616   2.907  0.00  0.00    +0.001 A 
ATOM     13  C   UNL     1       0.276  -3.723   1.972  0.00  0.00    +0.038 A 
BRANCH   8  14
ATOM     14  S   UNL     1       0.408  -1.568   0.306  0.00  0.00    +0.061 S 
ATOM     15  O   UNL     1      -0.648  -2.246  -0.359  0.00  0.00    -0.153 OA
ATOM     16  O   UNL     1       1.520  -1.021  -0.389  0.00  0.00    -0.153 OA
BRANCH  14  17
ATOM     17  N   UNL     1      -0.285  -0.320   1.146  0.00  0.00    -0.177 NA
BRANCH  17  18
ATOM     18  C   UNL     1       0.513   0.856   1.502  0.00  0.00    +0.109 C 
BRANCH  18  20
ATOM     19  C   UNL     1       1.895   1.918   3.292  0.00  0.00    +0.005 C 
ATOM     20  C   UNL     1       1.062   0.690   2.920  0.00  0.00    +0.014 C 
ENDBRANCH  18  20
ENDBRANCH  17  18
BRANCH  17  21
ATOM     21  C   UNL     1      -1.696  -0.392   1.533  0.00  0.00    +0.109 C 
BRANCH  21  22
ATOM     22  C   UNL     1      -2.550   0.323   0.483  0.00  0.00    +0.014 C 
ATOM     23  C   UNL     1      -4.023   0.248   0.887  0.00  0.00    +0.005 C 
ENDBRANCH  21  22
ENDBRANCH  17  21
ENDBRANCH  14  17
ENDBRANCH   8  14
ENDBRANCH   1  12
BRANCH   5  24
ATOM     24  C   UNL     1      -1.799  -8.489   6.799  0.00  0.00    +0.033 A 
ATOM     25  C   UNL     1      -1.720  -9.583   5.946  0.00  0.00    +0.023 A 
ATOM     26  C   UNL     1      -2.437 -10.729   6.227  0.00  0.00    +0.002 A 
ATOM     27  C   UNL     1      -3.233 -10.789   7.357  0.00  0.00    +0.000 A 
ATOM     28  C   UNL     1      -3.313  -9.703   8.208  0.00  0.00    +0.002 A 
ATOM     29  C   UNL     1      -2.595  -8.555   7.936  0.00  0.00    +0.023 A 
ENDBRANCH   5  24
BRANCH   6  30
ATOM     30  C   UNL     1       0.624  -5.109   5.658  0.00  0.00    +0.159 C 
BRANCH  30  31
ATOM     31  C   UNL     1      -0.219  -3.918   6.037  0.00  0.00    -0.028 A 
ATOM     32  C   UNL     1      -0.204  -2.782   5.250  0.00  0.00    +0.005 A 
ATOM     33  C   UNL     1      -0.977  -1.690   5.598  0.00  0.00    +0.004 A 
ATOM     34  C   UNL     1      -1.766  -1.735   6.732  0.00  0.00    -0.050 A 
ATOM     35  C   UNL     1      -1.782  -2.872   7.519  0.00  0.00    +0.004 A 
ATOM     36  C   UNL     1      -1.012  -3.965   7.169  0.00  0.00    +0.005 A 
ATOM     37  C   UNL     1      -2.608  -0.544   7.111  0.00  0.00    +0.044 C 
ENDBRANCH  30  31
ENDBRANCH   6  30
TORSDOF 10
