REMARK  Name = ZINC23119083
REMARK  10 active torsions:
REMARK  status: ('A' for Active; 'I' for Inactive)
REMARK    1  A    between atoms: C_1  and  C_2
REMARK    2  A    between atoms: C_5  and  S_8
REMARK    3  A    between atoms: S_8  and  C_11
REMARK    4  A    between atoms: N_15  and  C_28
REMARK    5  A    between atoms: C_16  and  C_18
REMARK    6  A    between atoms: C_21  and  C_24
REMARK    7  A    between atoms: C_24  and  O_26
REMARK    8  A    between atoms: O_26  and  C_27
REMARK    9  A    between atoms: C_31  and  O_34
REMARK   10  A    between atoms: O_34  and  C_35
REMARK                            x       y       z     vdW  Elec       q    Type
REMARK                         _______ _______ _______ _____ _____    ______ ____
ROOT
ATOM      1  C   UNL     1       3.964   2.701  -1.414  0.00  0.00    +0.148 C 
ATOM      2  C   UNL     1       4.002   4.033  -1.342  0.00  0.00    +0.264 C 
ATOM      3  C   UNL     1       3.748   4.462   0.041  0.00  0.00    +0.293 C 
ATOM      4  O   UNL     1       3.720   5.617   0.420  0.00  0.00    -0.266 OA
ATOM      5  N   UNL     1       3.551   3.386   0.827  0.00  0.00    -0.252 N 
ATOM      6  C   UNL     1       3.670   2.194  -0.022  0.00  0.00    +0.164 C 
ATOM      7  O   UNL     1       4.240   4.868  -2.389  0.00  0.00    -0.281 OA
ENDROOT
BRANCH   6   8
ATOM      8  C   UNL     1       2.378   1.419  -0.013  0.00  0.00    -0.021 A 
ATOM      9  C   UNL     1       1.170   2.095   0.002  0.00  0.00    +0.006 A 
ATOM     10  C   UNL     1      -0.017   1.392   0.010  0.00  0.00    +0.015 A 
ATOM     11  C   UNL     1       0.002  -0.004   0.002  0.00  0.00    +0.059 A 
ATOM     12  C   UNL     1       1.224  -0.679  -0.013  0.00  0.00    +0.015 A 
ATOM     13  C   UNL     1       2.404   0.036  -0.021  0.00  0.00    +0.006 A 
BRANCH  11  14
ATOM     14  C   UNL     1      -1.265  -0.763   0.011  0.00  0.00    +0.339 C 
ATOM     15  O   UNL     1      -2.327  -0.173   0.024  0.00  0.00    -0.245 OA
BRANCH  14  16
ATOM     16  O   UNL     1      -1.243  -2.110   0.003  0.00  0.00    -0.464 OA
ATOM     17  C   UNL     1      -2.526  -2.790   0.012  0.00  0.00    +0.280 C 
ENDBRANCH  14  16
ENDBRANCH  11  14
ENDBRANCH   6   8
BRANCH   5  18
ATOM     18  C   UNL     1       3.283   3.402   2.201  0.00  0.00    +0.038 A 
ATOM     19  C   UNL     1       3.096   2.209   2.886  0.00  0.00    +0.027 A 
ATOM     20  C   UNL     1       2.837   2.225   4.242  0.00  0.00    +0.047 A 
ATOM     21  C   UNL     1       2.752   3.433   4.918  0.00  0.00    +0.120 A 
ATOM     22  C   UNL     1       2.934   4.626   4.234  0.00  0.00    +0.047 A 
ATOM     23  C   UNL     1       3.198   4.612   2.878  0.00  0.00    +0.027 A 
BRANCH  21  24
ATOM     24  O   UNL     1       2.491   3.449   6.253  0.00  0.00    -0.495 OA
ATOM     25  C   UNL     1       2.316   2.184   6.894  0.00  0.00    +0.277 C 
ENDBRANCH  21  24
ENDBRANCH   5  18
BRANCH   1  26
ATOM     26  S   UNL     1       4.210   1.720  -2.857  0.00  0.00    +0.027 S 
ATOM     27  O   UNL     1       3.136   0.790  -2.903  0.00  0.00    -0.164 OA
ATOM     28  O   UNL     1       4.481   2.623  -3.921  0.00  0.00    -0.164 OA
BRANCH  26  33
ATOM     29  C   UNL     1       9.242  -1.494  -1.995  0.00  0.00    +0.044 C 
ATOM     30  C   UNL     1       7.985  -0.691  -2.211  0.00  0.00    -0.050 A 
ATOM     31  C   UNL     1       6.763  -1.204  -1.820  0.00  0.00    +0.005 A 
ATOM     32  C   UNL     1       5.609  -0.467  -2.017  0.00  0.00    +0.027 A 
ATOM     33  C   UNL     1       5.679   0.782  -2.605  0.00  0.00    +0.093 A 
ATOM     34  C   UNL     1       6.902   1.292  -3.000  0.00  0.00    +0.027 A 
ATOM     35  C   UNL     1       8.055   0.558  -2.799  0.00  0.00    +0.005 A 
ENDBRANCH  26  33
ENDBRANCH   1  26
TORSDOF 7
