REMARK  Name = ZINC36116223
REMARK  13 active torsions:
REMARK  status: ('A' for Active; 'I' for Inactive)
REMARK    1  A    between atoms: C_1  and  C_2
REMARK    2  A    between atoms: C_5  and  N_8
REMARK    3  A    between atoms: N_8  and  C_9
REMARK    4  A    between atoms: N_8  and  S_30
REMARK    5  A    between atoms: C_9  and  C_10
REMARK    6  A    between atoms: N_12  and  C_13
REMARK    7  A    between atoms: C_13  and  C_15
REMARK    8  A    between atoms: C_13  and  C_16
REMARK    9  A    between atoms: C_19  and  N_22
REMARK   10  A    between atoms: C_26  and  C_29
REMARK   11  A    between atoms: S_30  and  C_33
REMARK   12  A    between atoms: C_36  and  O_39
REMARK   13  A    between atoms: O_39  and  C_40
REMARK                            x       y       z     vdW  Elec       q    Type
REMARK                         _______ _______ _______ _____ _____    ______ ____
ROOT
ATOM      1  C   UNL     1       0.494  -4.920  -1.218  0.00  0.00    +0.227 C 
ENDROOT
BRANCH   1   2
ATOM      2  C   UNL     1       1.996  -5.044  -1.216  0.00  0.00    +0.233 C 
ATOM      3  O   UNL     1       2.642  -4.573  -0.303  0.00  0.00    -0.274 OA
ATOM      4  N   UNL     1       2.622  -5.677  -2.227  0.00  0.00    -0.307 N 
ATOM      5  H   UNL     1       2.106  -6.053  -2.957  0.00  0.00    +0.149 HD
BRANCH   4   6
ATOM      6  C   UNL     1       4.082  -5.798  -2.225  0.00  0.00    +0.100 C 
ATOM      7  C   UNL     1       4.492  -7.020  -1.401  0.00  0.00    +0.033 C 
BRANCH   6   8
ATOM      8  C   UNL     1       4.576  -5.957  -3.640  0.00  0.00    -0.027 A 
ATOM      9  C   UNL     1       3.871  -6.745  -4.531  0.00  0.00    +0.007 A 
ATOM     10  C   UNL     1       4.321  -6.894  -5.829  0.00  0.00    +0.023 A 
ATOM     11  C   UNL     1       5.482  -6.250  -6.237  0.00  0.00    +0.030 A 
ATOM     12  C   UNL     1       6.187  -5.459  -5.339  0.00  0.00    +0.023 A 
ATOM     13  C   UNL     1       5.729  -5.311  -4.045  0.00  0.00    +0.007 A 
BRANCH  11  14
ATOM     14  N   UNL     1       5.939  -6.399  -7.549  0.00  0.00    -0.330 N 
ATOM     15  C   UNL     1       7.229  -5.828  -7.961  0.00  0.00    +0.105 C 
ATOM     16  C   UNL     1       8.078  -6.934  -8.596  0.00  0.00    +0.019 C 
ATOM     17  C   UNL     1       7.288  -7.588  -9.732  0.00  0.00    +0.006 C 
ATOM     18  C   UNL     1       6.012  -8.220  -9.171  0.00  0.00    +0.003 C 
ATOM     19  C   UNL     1       5.143  -7.134  -8.541  0.00  0.00    +0.108 C 
ATOM     20  C   UNL     1       5.241  -8.903 -10.302  0.00  0.00    +0.009 C 
ENDBRANCH  11  14
ENDBRANCH   6   8
ENDBRANCH   4   6
ENDBRANCH   1   2
BRANCH   1  21
ATOM     21  N   UNL     1       0.062  -4.196  -0.021  0.00  0.00    -0.194 N 
BRANCH  21  26
ATOM     22  C   UNL     1      -0.016   1.474  -0.007  0.00  0.00    +0.044 C 
ATOM     23  C   UNL     1       0.005  -0.033  -0.011  0.00  0.00    -0.050 A 
ATOM     24  C   UNL     1      -0.738  -0.731  -0.946  0.00  0.00    +0.005 A 
ATOM     25  C   UNL     1      -0.721  -2.111  -0.952  0.00  0.00    +0.025 A 
ATOM     26  C   UNL     1       0.043  -2.799  -0.018  0.00  0.00    +0.052 A 
ATOM     27  C   UNL     1       0.788  -2.095   0.920  0.00  0.00    +0.025 A 
ATOM     28  C   UNL     1       0.771  -0.714   0.917  0.00  0.00    +0.005 A 
ENDBRANCH  21  26
BRANCH  21  29
ATOM     29  S   UNL     1      -0.405  -5.033   1.330  0.00  0.00    +0.075 S 
ATOM     30  O   UNL     1       0.320  -6.255   1.321  0.00  0.00    -0.150 OA
ATOM     31  O   UNL     1      -0.344  -4.119   2.416  0.00  0.00    -0.150 OA
BRANCH  29  32
ATOM     32  C   UNL     1      -2.103  -5.454   1.121  0.00  0.00    +0.109 A 
ATOM     33  C   UNL     1      -3.088  -4.588   1.561  0.00  0.00    +0.032 A 
ATOM     34  C   UNL     1      -4.420  -4.916   1.399  0.00  0.00    +0.047 A 
ATOM     35  C   UNL     1      -4.770  -6.114   0.793  0.00  0.00    +0.120 A 
ATOM     36  C   UNL     1      -3.780  -6.981   0.352  0.00  0.00    +0.047 A 
ATOM     37  C   UNL     1      -2.449  -6.646   0.512  0.00  0.00    +0.032 A 
BRANCH  35  38
ATOM     38  O   UNL     1      -6.079  -6.439   0.633  0.00  0.00    -0.495 OA
ATOM     39  C   UNL     1      -6.365  -7.689   0.002  0.00  0.00    +0.277 C 
ENDBRANCH  35  38
ENDBRANCH  29  32
ENDBRANCH  21  29
ENDBRANCH   1  21
TORSDOF 9
