REMARK  Name = ZINC11443548
REMARK  7 active torsions:
REMARK  status: ('A' for Active; 'I' for Inactive)
REMARK    1  A    between atoms: C_1  and  C_2
REMARK    2  A    between atoms: C_2  and  C_3
REMARK    3  A    between atoms: C_3  and  C_4
REMARK    4  A    between atoms: C_6  and  O_26
REMARK    5  A    between atoms: C_8  and  S_10
REMARK    6  A    between atoms: S_10  and  C_11
REMARK    7  A    between atoms: C_11  and  C_12
REMARK                            x       y       z     vdW  Elec       q    Type
REMARK                         _______ _______ _______ _____ _____    ______ ____
ROOT
ATOM      1  C   UNL     1      -1.412  -0.526   0.013  0.00  0.00    +0.121 A 
ATOM      2  N   UNL     1      -1.603  -1.871   0.007  0.00  0.00    -0.310 N 
ATOM      3  H   UNL     1      -0.836  -2.465  -0.003  0.00  0.00    +0.170 HD
ATOM      4  C   UNL     1      -2.853  -2.390   0.017  0.00  0.00    +0.259 A 
ATOM      5  O   UNL     1      -3.038  -3.593   0.012  0.00  0.00    -0.267 OA
ATOM      6  C   UNL     1      -3.978  -1.443   0.032  0.00  0.00    +0.067 A 
ATOM      7  C   UNL     1      -5.303  -1.874   0.044  0.00  0.00    +0.030 A 
ATOM      8  C   UNL     1      -6.320  -0.944   0.058  0.00  0.00    +0.020 A 
ATOM      9  C   UNL     1      -6.034   0.416   0.063  0.00  0.00    +0.032 A 
ATOM     10  C   UNL     1      -4.730   0.862   0.052  0.00  0.00    +0.045 A 
ATOM     11  C   UNL     1      -3.683  -0.062   0.037  0.00  0.00    +0.092 A 
ATOM     12  N   UNL     1      -2.385   0.333   0.032  0.00  0.00    -0.232 NA
ATOM     13 BR   UNL     1      -4.361   2.717   0.059  0.00  0.00    -0.048 Br
ATOM     14 BR   UNL     1      -8.120  -1.522   0.072  0.00  0.00    -0.050 Br
ENDROOT
BRANCH   1  15
ATOM     15  C   UNL     1       0.002  -0.004   0.002  0.00  0.00    +0.151 C 
BRANCH  15  16
ATOM     16  S   UNL     1      -0.022   1.806   0.012  0.00  0.00    -0.078 S 
BRANCH  16  21
ATOM     17  C   UNL     1       3.420   3.679  -0.012  0.00  0.00    +0.049 A 
ATOM     18  C   UNL     1       4.340   2.647  -0.026  0.00  0.00    +0.090 A 
ATOM     19  C   UNL     1       3.869   1.335  -0.028  0.00  0.00    +0.216 A 
ATOM     20  N   UNL     1       2.560   1.120  -0.016  0.00  0.00    -0.187 NA
ATOM     21  C   UNL     1       1.708   2.135  -0.003  0.00  0.00    +0.192 A 
ATOM     22  N   UNL     1       2.127   3.393  -0.005  0.00  0.00    -0.227 NA
BRANCH  19  23
ATOM     23  O   UNL     1       4.737   0.294  -0.042  0.00  0.00    -0.492 OA
ATOM     24  H   UNL     1       4.980  -0.004  -0.929  0.00  0.00    +0.294 HD
ENDBRANCH  19  23
BRANCH  17  25
ATOM     25  C   UNL     1       3.883   5.113  -0.009  0.00  0.00    +0.055 C 
BRANCH  25  27
ATOM     26  C   UNL     1       3.711   7.314  -1.179  0.00  0.00    +0.004 C 
ATOM     27  C   UNL     1       3.241   5.858  -1.181  0.00  0.00    +0.003 C 
ENDBRANCH  25  27
ENDBRANCH  17  25
ENDBRANCH  16  21
ENDBRANCH  15  16
ENDBRANCH   1  15
TORSDOF 6
