REMARK  Name = ZINC19941143
REMARK  14 active torsions:
REMARK  status: ('A' for Active; 'I' for Inactive)
REMARK    1  A    between atoms: C_1  and  C_2
REMARK    2  A    between atoms: C_5  and  C_33
REMARK    3  A    between atoms: C_6  and  N_8
REMARK    4  A    between atoms: N_8  and  C_9
REMARK    5  A    between atoms: C_9  and  C_10
REMARK    6  A    between atoms: N_12  and  C_13
REMARK    7  A    between atoms: C_13  and  C_14
REMARK    8  A    between atoms: C_13  and  C_15
REMARK    9  A    between atoms: C_13  and  C_16
REMARK   10  A    between atoms: C_17  and  C_19
REMARK   11  A    between atoms: C_19  and  S_20
REMARK   12  A    between atoms: S_20  and  C_22
REMARK   13  A    between atoms: C_22  and  C_23
REMARK   14  A    between atoms: N_25  and  C_26
REMARK                            x       y       z     vdW  Elec       q    Type
REMARK                         _______ _______ _______ _____ _____    ______ ____
ROOT
ATOM      1  N   UNL     1      -1.285   1.484  -3.852  0.00  0.00    -0.262 N 
ATOM      2  C   UNL     1      -1.895   2.018  -2.775  0.00  0.00    +0.233 C 
ATOM      3  O   UNL     1      -2.869   2.726  -2.917  0.00  0.00    -0.274 OA
ENDROOT
BRANCH   1   9
ATOM      4  C   UNL     1       3.604   0.995  -3.688  0.00  0.00    +0.044 C 
ATOM      5  C   UNL     1       2.220   0.404  -3.603  0.00  0.00    -0.049 A 
ATOM      6  C   UNL     1       2.061  -0.949  -3.362  0.00  0.00    +0.004 A 
ATOM      7  C   UNL     1       0.793  -1.495  -3.283  0.00  0.00    +0.005 A 
ATOM      8  C   UNL     1      -0.318  -0.691  -3.445  0.00  0.00    -0.029 A 
ATOM      9  C   UNL     1      -0.161   0.667  -3.687  0.00  0.00    +0.040 A 
ATOM     10  C   UNL     1       1.114   1.212  -3.771  0.00  0.00    +0.027 A 
ATOM     11  C   UNL     1      -1.700  -1.287  -3.359  0.00  0.00    +0.045 C 
ENDBRANCH   1   9
BRANCH   1  12
ATOM     12  C   UNL     1      -1.799   1.761  -5.196  0.00  0.00    +0.209 C 
BRANCH  12  13
ATOM     13  C   UNL     1      -1.057   2.931  -5.787  0.00  0.00    +0.231 C 
ATOM     14  O   UNL     1      -0.252   3.541  -5.115  0.00  0.00    -0.274 OA
ATOM     15  N   UNL     1      -1.287   3.301  -7.062  0.00  0.00    -0.309 N 
ATOM     16  H   UNL     1      -2.017   2.748  -7.672  0.00  0.00    +0.149 HD
BRANCH  15  17
ATOM     17  C   UNL     1      -0.566   4.439  -7.637  0.00  0.00    +0.026 C 
ATOM     18  C   UNL     1       0.939   4.161  -7.599  0.00  0.00    +0.031 C 
ATOM     19  C   UNL     1      -1.009   4.645  -9.087  0.00  0.00    +0.031 C 
ATOM     20  C   UNL     1      -0.872   5.699  -6.826  0.00  0.00    +0.031 C 
ENDBRANCH  15  17
ENDBRANCH  12  13
ENDBRANCH   1  12
BRANCH   2  21
ATOM     21  C   UNL     1      -1.365   1.734  -1.392  0.00  0.00    +0.200 C 
BRANCH  21  22
ATOM     22  S   UNL     1      -2.393   2.587  -0.165  0.00  0.00    +0.040 S 
ATOM     23  O   UNL     1      -3.716   2.072  -0.215  0.00  0.00    -0.256 OA
BRANCH  22  24
ATOM     24  C   UNL     1      -1.634   2.149   1.423  0.00  0.00    +0.200 C 
BRANCH  24  25
ATOM     25  C   UNL     1      -2.401   2.802   2.544  0.00  0.00    +0.230 C 
ATOM     26  O   UNL     1      -3.365   3.495   2.296  0.00  0.00    -0.274 OA
ATOM     27  N   UNL     1      -2.016   2.616   3.822  0.00  0.00    -0.285 N 
ATOM     28  H   UNL     1      -1.090   2.065   4.043  0.00  0.00    +0.155 HD
BRANCH  27  29
ATOM     29  C   UNL     1      -2.795   3.124   4.869  0.00  0.00    +0.034 A 
ATOM     30  C   UNL     1      -2.185   3.590   6.026  0.00  0.00    +0.026 A 
ATOM     31  C   UNL     1      -2.955   4.096   7.055  0.00  0.00    +0.040 A 
ATOM     32  C   UNL     1      -4.334   4.129   6.938  0.00  0.00    +0.124 A 
ATOM     33  C   UNL     1      -4.944   3.659   5.787  0.00  0.00    +0.040 A 
ATOM     34  C   UNL     1      -4.178   3.157   4.754  0.00  0.00    +0.026 A 
ATOM     35  F   UNL     1      -5.085   4.619   7.948  0.00  0.00    -0.205 F 
ENDBRANCH  27  29
ENDBRANCH  24  25
ENDBRANCH  22  24
ENDBRANCH  21  22
ENDBRANCH   2  21
TORSDOF 9
