REMARK  Name = ZINC13124509
REMARK  7 active torsions:
REMARK  status: ('A' for Active; 'I' for Inactive)
REMARK    1  A    between atoms: C_1  and  C_2
REMARK    2  A    between atoms: C_2  and  O_3
REMARK    3  A    between atoms: O_3  and  C_4
REMARK    4  A    between atoms: C_9  and  N_12
REMARK    5  A    between atoms: C_13  and  C_15
REMARK    6  A    between atoms: C_21  and  C_30
REMARK    7  A    between atoms: C_24  and  C_26
REMARK                            x       y       z     vdW  Elec       q    Type
REMARK                         _______ _______ _______ _____ _____    ______ ____
ROOT
ATOM      1  C   UNL     1      -7.755  -5.241  -3.085  0.00  0.00    +0.096 A 
ATOM      2  C   UNL     1      -7.893  -4.589  -4.337  0.00  0.00    +0.149 A 
ATOM      3  N   UNL     1      -8.793  -5.229  -5.034  0.00  0.00    -0.177 NA
ATOM      4  N   UNL     1      -9.273  -6.303  -4.287  0.00  0.00    -0.238 N 
ATOM      5  C   UNL     1      -8.630  -6.310  -3.094  0.00  0.00    +0.130 A 
ATOM      6  N   UNL     1      -8.875  -7.255  -2.114  0.00  0.00    -0.319 N 
ATOM      7  C   UNL     1     -10.071  -8.099  -2.305  0.00  0.00    +0.140 C 
ATOM      8  C   UNL     1     -10.131  -8.530  -3.776  0.00  0.00    +0.066 C 
ATOM      9  C   UNL     1     -10.287  -7.291  -4.670  0.00  0.00    +0.215 C 
ATOM     10  H   UNL     1      -8.293  -7.358  -1.345  0.00  0.00    +0.148 HD
ENDROOT
BRANCH   7  11
ATOM     11  C   UNL     1      -9.980  -9.315  -1.420  0.00  0.00    +0.125 A 
ATOM     12  C   UNL     1     -10.999  -9.870  -0.740  0.00  0.00    +0.046 A 
ATOM     13  C   UNL     1     -10.470 -10.983  -0.046  0.00  0.00    +0.041 A 
ATOM     14  C   UNL     1      -9.159 -11.040  -0.344  0.00  0.00    +0.195 A 
ATOM     15  O   UNL     1      -8.870 -10.031  -1.181  0.00  0.00    -0.466 OA
ENDBRANCH   7  11
BRANCH   1  17
ATOM     16  N   UNL     1      -6.050  -3.783  -2.128  0.00  0.00    -0.308 N 
ATOM     17  C   UNL     1      -6.852  -4.857  -1.993  0.00  0.00    +0.249 C 
ATOM     18  O   UNL     1      -6.828  -5.510  -0.966  0.00  0.00    -0.270 OA
ATOM     19  H   UNL     1      -6.069  -3.263  -2.947  0.00  0.00    +0.149 HD
BRANCH  16  25
ATOM     20  C   UNL     1      -1.497  -1.836   0.006  0.00  0.00    +0.403 C 
ATOM     21  O   UNL     1      -0.523  -2.563  -0.007  0.00  0.00    -0.226 OA
ATOM     22  N   UNL     1      -2.735  -2.368   0.015  0.00  0.00    -0.267 N 
ATOM     23  C   UNL     1      -3.922  -1.502   0.025  0.00  0.00    +0.113 C 
ATOM     24  C   UNL     1      -4.836  -1.905  -1.136  0.00  0.00    +0.041 C 
ATOM     25  C   UNL     1      -5.149  -3.400  -1.038  0.00  0.00    +0.076 C 
ATOM     26  C   UNL     1      -3.849  -4.202  -1.145  0.00  0.00    +0.041 C 
ATOM     27  C   UNL     1      -2.924  -3.825   0.009  0.00  0.00    +0.113 C 
BRANCH  20  28
ATOM     28  O   UNL     1      -1.339  -0.499   0.012  0.00  0.00    -0.451 OA
BRANCH  28  30
ATOM     29  C   UNL     1      -0.019   1.526   0.010  0.00  0.00    +0.048 C 
ATOM     30  C   UNL     1       0.002  -0.004   0.002  0.00  0.00    +0.230 C 
ENDBRANCH  28  30
ENDBRANCH  20  28
ENDBRANCH  16  25
ENDBRANCH   1  17
BRANCH   9  31
ATOM     31  C   UNL     1     -10.080  -7.698  -6.130  0.00  0.00    +0.412 C 
ATOM     32  F   UNL     1      -8.806  -8.255  -6.283  0.00  0.00    -0.168 F 
ATOM     33  F   UNL     1     -11.048  -8.640  -6.493  0.00  0.00    -0.168 F 
ATOM     34  F   UNL     1     -10.197  -6.570  -6.949  0.00  0.00    -0.168 F 
ENDBRANCH   9  31
TORSDOF 6
