REMARK  Name = ZINC49424135
REMARK  8 active torsions:
REMARK  status: ('A' for Active; 'I' for Inactive)
REMARK    1  A    between atoms: C_1  and  C_2
REMARK    2  A    between atoms: C_2  and  C_4
REMARK    3  A    between atoms: C_2  and  N_14
REMARK    4  A    between atoms: C_15  and  O_17
REMARK    5  A    between atoms: O_17  and  C_18
REMARK    6  A    between atoms: C_18  and  C_19
REMARK    7  A    between atoms: C_18  and  C_20
REMARK    8  A    between atoms: C_18  and  C_21
REMARK                            x       y       z     vdW  Elec       q    Type
REMARK                         _______ _______ _______ _____ _____    ______ ____
ROOT
ATOM      1  C   UNL     1      -0.021   1.523   0.009  0.00  0.00    +0.038 C 
ATOM      2  C   UNL     1      -0.000  -0.007   0.002  0.00  0.00    +0.159 C 
ENDROOT
BRANCH   2   3
ATOM      3  C   UNL     1       0.730  -0.505   1.223  0.00  0.00    +0.238 C 
ATOM      4  O   UNL     1       1.724  -1.188   1.098  0.00  0.00    -0.273 OA
ATOM      5  N   UNL     1       0.278  -0.191   2.453  0.00  0.00    -0.269 N 
ATOM      6  C   UNL     1       0.889  -0.737   3.581  0.00  0.00    +0.126 A 
ATOM      7  C   UNL     1       0.353  -0.494   4.840  0.00  0.00    +0.044 A 
ATOM      8  C   UNL     1       0.969  -1.042   5.952  0.00  0.00    +0.006 A 
ATOM      9  C   UNL     1       2.104  -1.818   5.764  0.00  0.00    +0.035 A 
ATOM     10  C   UNL     1       2.583  -2.018   4.483  0.00  0.00    +0.108 A 
ATOM     11  N   UNL     1       1.971  -1.486   3.442  0.00  0.00    -0.225 NA
ATOM     12 BR   UNL     1       4.130  -3.073   4.219  0.00  0.00    -0.029 Br
ATOM     13  H   UNL     1      -0.473   0.415   2.554  0.00  0.00    +0.156 HD
ENDBRANCH   2   3
BRANCH   2  14
ATOM     14  N   UNL     1       0.684  -0.481  -1.203  0.00  0.00    -0.270 N 
ATOM     15  C   UNL     1       0.002  -0.614  -2.358  0.00  0.00    +0.401 C 
ATOM     16  O   UNL     1      -1.181  -0.341  -2.399  0.00  0.00    -0.226 OA
ATOM     17  H   UNL     1       1.629  -0.699  -1.171  0.00  0.00    +0.153 HD
BRANCH  15  18
ATOM     18  O   UNL     1       0.631  -1.049  -3.466  0.00  0.00    -0.445 OA
BRANCH  18  19
ATOM     19  C   UNL     1      -0.154  -1.166  -4.654  0.00  0.00    +0.107 C 
ATOM     20  C   UNL     1      -0.732   0.202  -5.020  0.00  0.00    +0.055 C 
ATOM     21  C   UNL     1       0.726  -1.671  -5.799  0.00  0.00    +0.055 C 
ATOM     22  C   UNL     1      -1.297  -2.155  -4.415  0.00  0.00    +0.055 C 
ENDBRANCH  18  19
ENDBRANCH  15  18
ENDBRANCH   2  14
TORSDOF 4
