REMARK  Name = ZINC40547611
REMARK  8 active torsions:
REMARK  status: ('A' for Active; 'I' for Inactive)
REMARK    1  A    between atoms: C_1  and  C_2
REMARK    2  A    between atoms: C_2  and  O_3
REMARK    3  A    between atoms: O_3  and  C_4
REMARK    4  A    between atoms: C_6  and  C_11
REMARK    5  A    between atoms: C_9  and  O_10
REMARK    6  A    between atoms: C_14  and  C_30
REMARK    7  A    between atoms: N_21  and  C_22
REMARK    8  A    between atoms: C_35  and  O_36
REMARK                            x       y       z     vdW  Elec       q    Type
REMARK                         _______ _______ _______ _____ _____    ______ ____
ROOT
ATOM      1  C   UNL     1       0.177  -4.936   0.147  0.00  0.00    +0.142 C 
ATOM      2  C   UNL     1       0.763  -5.407   1.450  0.00  0.00    +0.035 A 
ATOM      3  C   UNL     1       1.319  -5.061   2.686  0.00  0.00    +0.102 A 
ATOM      4  N   UNL     1       1.604  -6.183   3.318  0.00  0.00    -0.173 NA
ATOM      5  N   UNL     1       1.282  -7.202   2.603  0.00  0.00    -0.272 N 
ATOM      6  H   UNL     1       1.401  -8.128   2.868  0.00  0.00    +0.189 HD
ATOM      7  C   UNL     1       0.748  -6.788   1.416  0.00  0.00    +0.126 A 
ATOM      8  C   UNL     1       0.172  -7.217   0.137  0.00  0.00    +0.266 C 
ATOM      9  O   UNL     1       0.020  -8.375  -0.202  0.00  0.00    -0.268 OA
ATOM     10  N   UNL     1      -0.163  -6.148  -0.610  0.00  0.00    -0.280 N 
ENDROOT
BRANCH  10  11
ATOM     11  C   UNL     1      -0.763  -6.185  -1.946  0.00  0.00    +0.100 C 
ATOM     12  C   UNL     1       0.176  -6.934  -2.906  0.00  0.00    +0.047 C 
ATOM     13  C   UNL     1      -0.609  -7.233  -4.215  0.00  0.00    +0.168 C 
ATOM     14  S   UNL     1      -2.248  -7.713  -3.524  0.00  0.00    -0.029 S 
ATOM     15  O   UNL     1      -3.272  -7.076  -4.276  0.00  0.00    -0.174 OA
ATOM     16  O   UNL     1      -2.282  -9.123  -3.349  0.00  0.00    -0.174 OA
ATOM     17  C   UNL     1      -2.129  -6.909  -1.875  0.00  0.00    +0.188 C 
ENDBRANCH  10  11
BRANCH   1  20
ATOM     18  C   UNL     1      -3.345  -3.980   1.123  0.00  0.00    +0.162 A 
ATOM     19  C   UNL     1      -2.204  -4.730   0.888  0.00  0.00    +0.055 A 
ATOM     20  C   UNL     1      -1.063  -4.119   0.402  0.00  0.00    -0.019 A 
ATOM     21  C   UNL     1      -1.058  -2.759   0.149  0.00  0.00    +0.009 A 
ATOM     22  C   UNL     1      -2.193  -2.006   0.381  0.00  0.00    +0.049 A 
ATOM     23  C   UNL     1      -3.342  -2.613   0.863  0.00  0.00    +0.158 A 
BRANCH  23  24
ATOM     24  O   UNL     1      -4.461  -1.874   1.086  0.00  0.00    -0.503 OA
ATOM     25  H   UNL     1      -4.516  -1.504   1.978  0.00  0.00    +0.292 HD
ENDBRANCH  23  24
BRANCH  18  26
ATOM     26  O   UNL     1      -4.468  -4.580   1.601  0.00  0.00    -0.489 OA
BRANCH  26  28
ATOM     27  C   UNL     1      -5.747  -6.479   2.375  0.00  0.00    +0.048 C 
ATOM     28  C   UNL     1      -4.399  -5.986   1.844  0.00  0.00    +0.226 C 
ENDBRANCH  26  28
ENDBRANCH  18  26
ENDBRANCH   1  20
BRANCH   3  29
ATOM     29  C   UNL     1       1.548  -3.686   3.193  0.00  0.00    +0.044 A 
ATOM     30  C   UNL     1       1.310  -2.588   2.369  0.00  0.00    +0.014 A 
ATOM     31  C   UNL     1       1.524  -1.310   2.845  0.00  0.00    +0.001 A 
ATOM     32  C   UNL     1       1.975  -1.115   4.139  0.00  0.00    +0.004 A 
ATOM     33  C   UNL     1       2.214  -2.197   4.965  0.00  0.00    +0.046 A 
ATOM     34  C   UNL     1       1.997  -3.485   4.501  0.00  0.00    +0.126 A 
BRANCH  34  35
ATOM     35  O   UNL     1       2.226  -4.550   5.314  0.00  0.00    -0.506 OA
ATOM     36  H   UNL     1       3.129  -4.893   5.267  0.00  0.00    +0.292 HD
ENDBRANCH  34  35
ENDBRANCH   3  29
TORSDOF 7
