REMARK  Name = ZINC27145851
REMARK  11 active torsions:
REMARK  status: ('A' for Active; 'I' for Inactive)
REMARK    1  A    between atoms: C_1  and  C_2
REMARK    2  A    between atoms: C_2  and  C_3
REMARK    3  A    between atoms: C_3  and  C_5
REMARK    4  A    between atoms: C_3  and  C_6
REMARK    5  A    between atoms: C_9  and  S_12
REMARK    6  A    between atoms: S_12  and  N_15
REMARK    7  A    between atoms: N_18  and  C_21
REMARK    8  A    between atoms: C_21  and  C_23
REMARK    9  A    between atoms: C_21  and  C_24
REMARK   10  A    between atoms: N_29  and  C_30
REMARK   11  A    between atoms: C_30  and  C_31
REMARK                            x       y       z     vdW  Elec       q    Type
REMARK                         _______ _______ _______ _____ _____    ______ ____
ROOT
ATOM      1  N   UNL     1       1.592   2.115   0.600  0.00  0.00    -0.180 NA
ATOM      2  C   UNL     1       0.179   1.710   0.548  0.00  0.00    +0.091 C 
ATOM      3  C   UNL     1       0.114   0.198   0.311  0.00  0.00    -0.060 C 
ATOM      4  N   UNL     1       0.919  -0.489   1.329  0.00  0.00    +0.389 N 
ATOM      5  C   UNL     1       2.337  -0.121   1.224  0.00  0.00    -0.060 C 
ATOM      6  C   UNL     1       2.494   1.379   1.499  0.00  0.00    +0.091 C 
ATOM      7  H   UNL     1       0.561  -0.162   2.316  0.00  0.00    -0.081 HD
ENDROOT
BRANCH   1   8
ATOM      8  S   UNL     1       2.153   3.366  -0.329  0.00  0.00    +0.061 S 
ATOM      9  O   UNL     1       3.548   3.155  -0.494  0.00  0.00    -0.153 OA
ATOM     10  O   UNL     1       1.264   3.483  -1.432  0.00  0.00    -0.153 OA
BRANCH   8  14
ATOM     11  C   UNL     1       1.696   7.153   2.108  0.00  0.00    -0.044 A 
ATOM     12  C   UNL     1       2.863   6.417   2.187  0.00  0.00    +0.006 A 
ATOM     13  C   UNL     1       3.003   5.260   1.443  0.00  0.00    +0.029 A 
ATOM     14  C   UNL     1       1.975   4.840   0.620  0.00  0.00    +0.105 A 
ATOM     15  C   UNL     1       0.809   5.578   0.537  0.00  0.00    +0.029 A 
ATOM     16  C   UNL     1       0.668   6.732   1.285  0.00  0.00    +0.006 A 
BRANCH  11  17
ATOM     17  C   UNL     1       1.543   8.413   2.920  0.00  0.00    +0.016 C 
ATOM     18  C   UNL     1       1.313   9.600   1.981  0.00  0.00    +0.012 C 
BRANCH  17  20
ATOM     19  C   UNL     1       0.268   9.498   4.774  0.00  0.00    +0.004 C 
ATOM     20  C   UNL     1       0.348   8.271   3.864  0.00  0.00    +0.004 C 
ENDBRANCH  17  20
ENDBRANCH  11  17
ENDBRANCH   8  14
ENDBRANCH   1   8
BRANCH   4  21
ATOM     21  C   UNL     1       0.746  -1.946   1.243  0.00  0.00    +0.017 C 
ATOM     22  C   UNL     1       0.890  -2.391  -0.214  0.00  0.00    -0.004 C 
BRANCH  21  23
ATOM     23  C   UNL     1      -0.623  -2.319   1.750  0.00  0.00    +0.207 C 
ATOM     24  O   UNL     1      -1.471  -1.464   1.892  0.00  0.00    -0.277 OA
ATOM     25  N   UNL     1      -0.905  -3.604   2.045  0.00  0.00    -0.242 N 
ATOM     26  C   UNL     1      -2.130  -3.938   2.498  0.00  0.00    +0.306 C 
ATOM     27  O   UNL     1      -2.980  -3.081   2.641  0.00  0.00    -0.252 OA
ATOM     28  N   UNL     1      -2.411  -5.222   2.794  0.00  0.00    -0.299 N 
ATOM     29  H   UNL     1      -0.136  -4.379   1.916  0.00  0.00    +0.159 HD
ATOM     30  H   UNL     1      -1.642  -5.998   2.665  0.00  0.00    +0.150 HD
BRANCH  28  31
ATOM     31  C   UNL     1      -3.743  -5.585   3.286  0.00  0.00    +0.102 C 
ATOM     32  C   UNL     1      -3.797  -7.093   3.543  0.00  0.00    +0.024 C 
ENDBRANCH  28  31
ENDBRANCH  21  23
ENDBRANCH   4  21
TORSDOF 7
