REMARK  Name = ZINC01461932
REMARK  9 active torsions:
REMARK  status: ('A' for Active; 'I' for Inactive)
REMARK    1  A    between atoms: C_1  and  C_2
REMARK    2  A    between atoms: C_6  and  N_8
REMARK    3  A    between atoms: N_8  and  S_9
REMARK    4  A    between atoms: S_9  and  C_12
REMARK    5  A    between atoms: C_25  and  C_28
REMARK    6  A    between atoms: C_32  and  O_36
REMARK    7  A    between atoms: C_33  and  O_34
REMARK    8  A    between atoms: O_34  and  C_35
REMARK    9  A    between atoms: O_36  and  C_37
REMARK                            x       y       z     vdW  Elec       q    Type
REMARK                         _______ _______ _______ _____ _____    ______ ____
ROOT
ATOM      1  C   UNL     1      -4.476   6.009  -3.416  0.00  0.00    +0.109 A 
ATOM      2  C   UNL     1      -5.483   5.886  -2.476  0.00  0.00    +0.030 A 
ATOM      3  C   UNL     1      -5.304   5.082  -1.369  0.00  0.00    +0.025 A 
ATOM      4  C   UNL     1      -4.113   4.389  -1.190  0.00  0.00    +0.031 A 
ATOM      5  C   UNL     1      -3.094   4.528  -2.139  0.00  0.00    -0.018 A 
ATOM      6  C   UNL     1      -3.284   5.329  -3.244  0.00  0.00    +0.034 A 
ATOM      7  C   UNL     1      -1.834   3.791  -1.900  0.00  0.00    +0.049 C 
ATOM      8  C   UNL     1      -0.938   3.387  -3.014  0.00  0.00    -0.023 C 
ATOM      9  C   UNL     1      -0.326   2.257  -2.678  0.00  0.00    -0.030 C 
ATOM     10  C   UNL     1      -0.803   1.794  -1.300  0.00  0.00    +0.033 C 
ATOM     11  C   UNL     1      -2.196   2.435  -1.224  0.00  0.00    +0.029 C 
ATOM     12  C   UNL     1      -2.717   2.797   0.155  0.00  0.00    +0.109 C 
ATOM     13  N   UNL     1      -3.968   3.552  -0.078  0.00  0.00    -0.336 N 
ATOM     14  H   UNL     1      -4.701   3.465   0.551  0.00  0.00    +0.147 HD
ENDROOT
BRANCH  12  15
ATOM     15  C   UNL     1      -1.716   3.658   0.881  0.00  0.00    +0.018 A 
ATOM     16  C   UNL     1      -0.607   3.082   1.471  0.00  0.00    +0.009 A 
ATOM     17  C   UNL     1       0.314   3.869   2.137  0.00  0.00    +0.004 A 
ATOM     18  C   UNL     1       0.129   5.237   2.216  0.00  0.00    +0.049 A 
ATOM     19  C   UNL     1      -0.978   5.822   1.622  0.00  0.00    +0.162 A 
ATOM     20  C   UNL     1      -1.908   5.028   0.957  0.00  0.00    +0.166 A 
BRANCH  20  21
ATOM     21  O   UNL     1      -2.998   5.597   0.377  0.00  0.00    -0.491 OA
ATOM     22  C   UNL     1      -4.108   5.889   1.229  0.00  0.00    +0.277 C 
ENDBRANCH  20  21
BRANCH  19  23
ATOM     23  O   UNL     1      -1.158   7.168   1.694  0.00  0.00    -0.491 OA
ATOM     24  C   UNL     1      -0.164   7.919   2.393  0.00  0.00    +0.277 C 
ENDBRANCH  19  23
ENDBRANCH  12  15
BRANCH   1  25
ATOM     25  S   UNL     1      -4.712   7.031  -4.832  0.00  0.00    +0.072 S 
ATOM     26  O   UNL     1      -5.704   7.986  -4.483  0.00  0.00    -0.150 OA
ATOM     27  O   UNL     1      -3.417   7.407  -5.281  0.00  0.00    -0.150 OA
BRANCH  25  28
ATOM     28  N   UNL     1      -5.367   6.080  -6.019  0.00  0.00    -0.216 N 
ATOM     29  H   UNL     1      -4.866   5.903  -6.830  0.00  0.00    +0.174 HD
BRANCH  28  35
ATOM     30  C   UNL     1      -8.387   2.216  -6.346  0.00  0.00    +0.044 C 
ATOM     31  C   UNL     1      -8.134   3.662  -6.002  0.00  0.00    -0.049 A 
ATOM     32  C   UNL     1      -9.165   4.448  -5.520  0.00  0.00    +0.003 A 
ATOM     33  C   UNL     1      -8.937   5.774  -5.203  0.00  0.00    +0.002 A 
ATOM     34  C   UNL     1      -7.678   6.319  -5.367  0.00  0.00    +0.024 A 
ATOM     35  C   UNL     1      -6.641   5.532  -5.851  0.00  0.00    +0.048 A 
ATOM     36  C   UNL     1      -6.875   4.201  -6.173  0.00  0.00    +0.027 A 
ENDBRANCH  28  35
ENDBRANCH  25  28
ENDBRANCH   1  25
TORSDOF 6
