REMARK  Name = ZINC52167343
REMARK  10 active torsions:
REMARK  status: ('A' for Active; 'I' for Inactive)
REMARK    1  A    between atoms: C_1  and  C_2
REMARK    2  A    between atoms: C_3  and  C_27
REMARK    3  A    between atoms: C_4  and  C_11
REMARK    4  A    between atoms: C_7  and  C_8
REMARK    5  A    between atoms: C_8  and  C_10
REMARK    6  A    between atoms: C_11  and  C_12
REMARK    7  A    between atoms: N_14  and  C_15
REMARK    8  A    between atoms: C_20  and  N_21
REMARK    9  A    between atoms: C_27  and  O_29
REMARK   10  A    between atoms: O_29  and  C_30
REMARK                            x       y       z     vdW  Elec       q    Type
REMARK                         _______ _______ _______ _____ _____    ______ ____
ROOT
ATOM      1  C   UNL     1       1.457  -3.695  -1.954  0.00  0.00    +0.223 C 
ATOM      2  O   UNL     1       2.369  -2.996  -1.564  0.00  0.00    -0.275 OA
ATOM      3  N   UNL     1       1.714  -4.764  -2.735  0.00  0.00    -0.284 N 
ATOM      4  H   UNL     1       0.996  -5.368  -2.980  0.00  0.00    +0.155 HD
ENDROOT
BRANCH   3   5
ATOM      5  C   UNL     1       3.017  -5.001  -3.191  0.00  0.00    +0.055 A 
ATOM      6  C   UNL     1       3.916  -3.952  -3.304  0.00  0.00    +0.025 A 
ATOM      7  C   UNL     1       5.201  -4.188  -3.754  0.00  0.00    +0.002 A 
ATOM      8  C   UNL     1       5.595  -5.470  -4.093  0.00  0.00    +0.002 A 
ATOM      9  C   UNL     1       4.705  -6.522  -3.983  0.00  0.00    +0.025 A 
ATOM     10  C   UNL     1       3.415  -6.295  -3.527  0.00  0.00    +0.057 A 
BRANCH  10  11
ATOM     11  N   UNL     1       2.513  -7.360  -3.410  0.00  0.00    -0.270 N 
ATOM     12  C   UNL     1       1.619  -7.809  -4.484  0.00  0.00    +0.114 C 
ATOM     13  C   UNL     1       1.157  -9.224  -4.070  0.00  0.00    +0.029 C 
ATOM     14  C   UNL     1       1.308  -9.168  -2.532  0.00  0.00    +0.098 C 
ATOM     15  C   UNL     1       2.360  -8.106  -2.303  0.00  0.00    +0.220 C 
ATOM     16  O   UNL     1       2.973  -7.948  -1.268  0.00  0.00    -0.275 OA
ENDBRANCH  10  11
ENDBRANCH   3   5
BRANCH   1  17
ATOM     17  C   UNL     1       0.038  -3.369  -1.566  0.00  0.00    +0.150 C 
BRANCH  17  21
ATOM     18  C   UNL     1      -0.010   1.514  -0.010  0.00  0.00    +0.047 C 
ATOM     19  C   UNL     1       0.004   0.007  -0.016  0.00  0.00    -0.008 A 
ATOM     20  C   UNL     1       0.014  -0.830  -1.153  0.00  0.00    +0.083 A 
ATOM     21  C   UNL     1       0.025  -2.137  -0.698  0.00  0.00    +0.040 A 
ATOM     22  N   UNL     1       0.022  -2.126   0.643  0.00  0.00    -0.354 N 
ATOM     23  H   UNL     1       0.029  -2.912   1.211  0.00  0.00    +0.166 HD
ATOM     24  C   UNL     1       0.015  -0.819   1.087  0.00  0.00    +0.086 A 
BRANCH  24  25
ATOM     25  C   UNL     1       0.016  -0.401   2.439  0.00  0.00    +0.176 C 
ATOM     26  O   UNL     1       0.006   0.783   2.708  0.00  0.00    -0.291 OA
ATOM     27  C   UNL     1       0.029  -1.424   3.545  0.00  0.00    +0.093 C 
ENDBRANCH  24  25
BRANCH  20  28
ATOM     28  C   UNL     1       0.013  -0.393  -2.559  0.00  0.00    +0.341 C 
ATOM     29  O   UNL     1       1.065  -0.203  -3.138  0.00  0.00    -0.245 OA
BRANCH  28  30
ATOM     30  O   UNL     1      -1.154  -0.204  -3.205  0.00  0.00    -0.464 OA
ATOM     31  C   UNL     1      -1.081   0.219  -4.568  0.00  0.00    +0.280 C 
ENDBRANCH  28  30
ENDBRANCH  20  28
ENDBRANCH  17  21
ENDBRANCH   1  17
TORSDOF 7
