REMARK  Name = ZINC02752299
REMARK  7 active torsions:
REMARK  status: ('A' for Active; 'I' for Inactive)
REMARK    1  A    between atoms: C_1  and  O_2
REMARK    2  A    between atoms: O_2  and  C_3
REMARK    3  A    between atoms: C_5  and  C_11
REMARK    4  A    between atoms: C_8  and  O_9
REMARK    5  A    between atoms: N_12  and  N_13
REMARK    6  A    between atoms: C_14  and  C_16
REMARK    7  A    between atoms: N_18  and  C_19
REMARK                            x       y       z     vdW  Elec       q    Type
REMARK                         _______ _______ _______ _____ _____    ______ ____
ROOT
ATOM      1  N   UNL     1      -4.844   1.435  -0.283  0.00  0.00    -0.199 N 
ATOM      2  C   UNL     1      -3.687   2.119  -0.183  0.00  0.00    +0.318 C 
ATOM      3  O   UNL     1      -3.698   3.334  -0.176  0.00  0.00    -0.263 OA
ATOM      4  H   UNL     1      -4.835   0.465  -0.288  0.00  0.00    +0.178 HD
ENDROOT
BRANCH   2   5
ATOM      5  C   UNL     1      -2.393   1.385  -0.081  0.00  0.00    +0.305 C 
ATOM      6  O   UNL     1      -2.382   0.171  -0.088  0.00  0.00    -0.265 OA
ATOM      7  N   UNL     1      -1.236   2.069   0.019  0.00  0.00    -0.276 N 
ATOM      8  H   UNL     1      -1.250   3.035   0.105  0.00  0.00    +0.155 HD
BRANCH   7   9
ATOM      9  C   UNL     1      -0.016   1.386  -0.001  0.00  0.00    +0.052 A 
ATOM     10  C   UNL     1       0.076   0.144  -0.617  0.00  0.00    +0.026 A 
ATOM     11  C   UNL     1       1.283  -0.526  -0.641  0.00  0.00    +0.022 A 
ATOM     12  C   UNL     1       2.401   0.038  -0.052  0.00  0.00    +0.042 A 
ATOM     13  C   UNL     1       2.313   1.275   0.563  0.00  0.00    +0.041 A 
ATOM     14  C   UNL     1       1.108   1.950   0.589  0.00  0.00    +0.064 A 
ATOM     15 CL   UNL     1       0.998   3.502   1.360  0.00  0.00    -0.082 Cl
ATOM     16 CL   UNL     1       3.917  -0.807  -0.084  0.00  0.00    -0.083 Cl
ENDBRANCH   7   9
ENDBRANCH   2   5
BRANCH   1  18
ATOM     17  C   UNL     1      -7.175   1.466  -0.475  0.00  0.00    +0.138 C 
ATOM     18  N   UNL     1      -6.059   2.125  -0.379  0.00  0.00    -0.187 NA
BRANCH  17  21
ATOM     19  C   UNL     1     -10.851   2.170  -0.774  0.00  0.00    +0.163 A 
ATOM     20  C   UNL     1      -9.653   1.484  -0.686  0.00  0.00    +0.059 A 
ATOM     21  C   UNL     1      -8.453   2.192  -0.577  0.00  0.00    -0.000 A 
ATOM     22  C   UNL     1      -8.468   3.589  -0.569  0.00  0.00    +0.033 A 
ATOM     23  C   UNL     1      -9.666   4.266  -0.663  0.00  0.00    +0.087 A 
ATOM     24  C   UNL     1     -10.858   3.563  -0.766  0.00  0.00    +0.177 A 
ATOM     25 CL   UNL     1      -9.683   6.002  -0.654  0.00  0.00    -0.080 Cl
BRANCH  19  27
ATOM     26  C   UNL     1     -11.938   0.057  -0.875  0.00  0.00    +0.277 C 
ATOM     27  O   UNL     1     -12.021   1.484  -0.873  0.00  0.00    -0.491 OA
ENDBRANCH  19  27
BRANCH  24  28
ATOM     28  O   UNL     1     -12.037   4.234  -0.859  0.00  0.00    -0.502 OA
ATOM     29  H   UNL     1     -12.305   4.434  -1.766  0.00  0.00    +0.292 HD
ENDBRANCH  24  28
ENDBRANCH  17  21
ENDBRANCH   1  18
TORSDOF 6
