REMARK  Name = ZINC39850321
REMARK  9 active torsions:
REMARK  status: ('A' for Active; 'I' for Inactive)
REMARK    1  A    between atoms: C_1  and  C_2
REMARK    2  A    between atoms: C_5  and  C_8
REMARK    3  A    between atoms: C_8  and  C_10
REMARK    4  A    between atoms: C_12  and  C_24
REMARK    5  A    between atoms: C_18  and  C_19
REMARK    6  A    between atoms: C_18  and  O_23
REMARK    7  A    between atoms: C_28  and  O_30
REMARK    8  A    between atoms: O_30  and  C_31
REMARK    9  A    between atoms: C_31  and  C_32
REMARK                            x       y       z     vdW  Elec       q    Type
REMARK                         _______ _______ _______ _____ _____    ______ ____
ROOT
ATOM      1  C   UNL     1      -0.432  -5.530   1.555  0.00  0.00    +0.144 C 
ATOM      2  C   UNL     1       0.851  -6.299   1.223  0.00  0.00    +0.120 C 
ATOM      3  N   UNL     1       0.683  -6.982  -0.061  0.00  0.00    -0.292 N 
ATOM      4  C   UNL     1      -0.525  -7.384  -0.484  0.00  0.00    +0.302 C 
ATOM      5  O   UNL     1      -0.608  -7.957  -1.554  0.00  0.00    -0.253 OA
ATOM      6  N   UNL     1      -1.644  -7.181   0.227  0.00  0.00    -0.264 N 
ATOM      7  C   UNL     1      -1.612  -6.507   1.530  0.00  0.00    +0.243 C 
ATOM      8  H   UNL     1       1.460  -7.146  -0.618  0.00  0.00    +0.151 HD
ATOM      9  H   UNL     1      -2.494  -7.485  -0.129  0.00  0.00    +0.153 HD
ENDROOT
BRANCH   2  10
ATOM     10  C   UNL     1       1.124  -7.314   2.302  0.00  0.00    -0.023 A 
ATOM     11  C   UNL     1       0.819  -8.646   2.091  0.00  0.00    +0.006 A 
ATOM     12  C   UNL     1       1.069  -9.580   3.079  0.00  0.00    +0.004 A 
ATOM     13  C   UNL     1       1.622  -9.184   4.282  0.00  0.00    +0.045 A 
ATOM     14  C   UNL     1       1.929  -7.848   4.496  0.00  0.00    +0.121 A 
ATOM     15  C   UNL     1       1.683  -6.914   3.500  0.00  0.00    +0.051 A 
BRANCH  14  16
ATOM     16  O   UNL     1       2.474  -7.456   5.678  0.00  0.00    -0.488 OA
BRANCH  16  17
ATOM     17  C   UNL     1       2.704  -8.473   6.655  0.00  0.00    +0.256 C 
BRANCH  17  18
ATOM     18  C   UNL     1       3.308  -7.856   7.890  0.00  0.00    +0.006 C 
ATOM     19  C   UNL     1       2.859  -8.188   9.075  0.00  0.00    +0.007 C 
ENDBRANCH  17  18
ENDBRANCH  16  17
ENDBRANCH  14  16
ENDBRANCH   2  10
BRANCH   7  20
ATOM     20  C   UNL     1      -2.917  -5.739   1.749  0.00  0.00    +0.436 C 
ATOM     21  F   UNL     1      -3.121  -4.854   0.685  0.00  0.00    -0.166 F 
ATOM     22  F   UNL     1      -3.984  -6.642   1.815  0.00  0.00    -0.166 F 
ATOM     23  F   UNL     1      -2.840  -5.020   2.946  0.00  0.00    -0.166 F 
ENDBRANCH   7  20
BRANCH   1  24
ATOM     24  C   UNL     1      -0.651  -4.445   0.532  0.00  0.00    +0.173 C 
ATOM     25  O   UNL     1      -0.528  -4.691  -0.648  0.00  0.00    -0.292 OA
BRANCH  24  30
ATOM     26  C   UNL     1      -2.079   0.859   2.228  0.00  0.00    +0.044 C 
ATOM     27  C   UNL     1      -1.704  -0.531   1.784  0.00  0.00    -0.050 A 
ATOM     28  C   UNL     1      -1.546  -0.804   0.436  0.00  0.00    +0.004 A 
ATOM     29  C   UNL     1      -1.204  -2.074   0.021  0.00  0.00    +0.011 A 
ATOM     30  C   UNL     1      -1.016  -3.087   0.967  0.00  0.00    +0.018 A 
ATOM     31  C   UNL     1      -1.177  -2.804   2.326  0.00  0.00    +0.011 A 
ATOM     32  C   UNL     1      -1.514  -1.527   2.725  0.00  0.00    +0.004 A 
ENDBRANCH  24  30
ENDBRANCH   1  24
BRANCH   7  33
ATOM     33  O   UNL     1      -1.449  -7.479   2.565  0.00  0.00    -0.364 OA
ATOM     34  H   UNL     1      -2.162  -8.132   2.608  0.00  0.00    +0.212 HD
ENDBRANCH   7  33
TORSDOF 8
