REMARK  Name = ZINC06862446
REMARK  10 active torsions:
REMARK  status: ('A' for Active; 'I' for Inactive)
REMARK    1  A    between atoms: C_1  and  C_2
REMARK    2  A    between atoms: C_2  and  N_3
REMARK    3  A    between atoms: N_3  and  C_4
REMARK    4  A    between atoms: N_3  and  C_18
REMARK    5  A    between atoms: C_4  and  C_5
REMARK    6  A    between atoms: N_7  and  C_8
REMARK    7  A    between atoms: C_11  and  N_14
REMARK    8  A    between atoms: C_15  and  C_17
REMARK    9  A    between atoms: C_18  and  C_19
REMARK   10  A    between atoms: N_21  and  C_22
REMARK                            x       y       z     vdW  Elec       q    Type
REMARK                         _______ _______ _______ _____ _____    ______ ____
ROOT
ATOM      1  N   UNL     1       1.847  -0.168   1.509  0.00  0.00    +0.391 N 
ATOM      2  H   UNL     1       2.733   0.279   1.325  0.00  0.00    -0.080 HD
ENDROOT
BRANCH   1   4
ATOM      3  C   UNL     1       0.812   1.721   0.345  0.00  0.00    -0.017 C 
ATOM      4  C   UNL     1       0.887   0.198   0.459  0.00  0.00    -0.081 C 
ENDBRANCH   1   4
BRANCH   1   5
ATOM      5  C   UNL     1       2.027  -1.626   1.521  0.00  0.00    +0.020 C 
BRANCH   5   6
ATOM      6  C   UNL     1       2.665  -2.064   0.228  0.00  0.00    +0.201 C 
ATOM      7  O   UNL     1       2.942  -1.243  -0.621  0.00  0.00    -0.278 OA
ATOM      8  N   UNL     1       2.928  -3.369   0.013  0.00  0.00    -0.287 N 
ATOM      9  H   UNL     1       2.768  -4.017   0.717  0.00  0.00    +0.155 HD
BRANCH   8  10
ATOM     10  C   UNL     1       3.431  -3.788  -1.225  0.00  0.00    +0.033 A 
ATOM     11  C   UNL     1       4.312  -2.977  -1.927  0.00  0.00    +0.025 A 
ATOM     12  C   UNL     1       4.808  -3.390  -3.147  0.00  0.00    +0.025 A 
ATOM     13  C   UNL     1       4.425  -4.616  -3.673  0.00  0.00    +0.033 A 
ATOM     14  C   UNL     1       3.543  -5.428  -2.971  0.00  0.00    +0.025 A 
ATOM     15  C   UNL     1       3.052  -5.017  -1.748  0.00  0.00    +0.025 A 
BRANCH  13  16
ATOM     16  N   UNL     1       4.927  -5.035  -4.912  0.00  0.00    -0.286 N 
ATOM     17  C   UNL     1       4.153  -5.762  -5.742  0.00  0.00    +0.214 C 
ATOM     18  O   UNL     1       2.993  -5.973  -5.459  0.00  0.00    -0.276 OA
ATOM     19  C   UNL     1       4.729  -6.310  -7.022  0.00  0.00    +0.109 C 
ATOM     20  H   UNL     1       5.832  -4.803  -5.171  0.00  0.00    +0.155 HD
ENDBRANCH  13  16
ENDBRANCH   8  10
ENDBRANCH   5   6
ENDBRANCH   1   5
BRANCH   1  21
ATOM     21  C   UNL     1       1.337   0.273   2.814  0.00  0.00    +0.020 C 
BRANCH  21  22
ATOM     22  C   UNL     1       2.389   0.042   3.869  0.00  0.00    +0.201 C 
ATOM     23  O   UNL     1       3.492  -0.349   3.550  0.00  0.00    -0.278 OA
ATOM     24  N   UNL     1       2.103   0.269   5.166  0.00  0.00    -0.287 N 
ATOM     25  H   UNL     1       1.201   0.509   5.429  0.00  0.00    +0.155 HD
BRANCH  24  26
ATOM     26  C   UNL     1       3.109   0.158   6.134  0.00  0.00    +0.035 A 
ATOM     27  C   UNL     1       4.412   0.529   5.828  0.00  0.00    +0.026 A 
ATOM     28  C   UNL     1       5.403   0.420   6.784  0.00  0.00    +0.041 A 
ATOM     29  C   UNL     1       5.099  -0.060   8.046  0.00  0.00    +0.142 A 
ATOM     30  C   UNL     1       3.800  -0.430   8.354  0.00  0.00    +0.078 A 
ATOM     31  C   UNL     1       2.804  -0.317   7.402  0.00  0.00    +0.046 A 
ATOM     32 CL   UNL     1       3.421  -1.031   9.938  0.00  0.00    -0.081 Cl
ATOM     33  F   UNL     1       6.070  -0.167   8.980  0.00  0.00    -0.204 F 
ENDBRANCH  24  26
ENDBRANCH  21  22
ENDBRANCH   1  21
TORSDOF 8
