REMARK  Name = ZINC50397951
REMARK  8 active torsions:
REMARK  status: ('A' for Active; 'I' for Inactive)
REMARK    1  A    between atoms: C_1  and  C_2
REMARK    2  A    between atoms: C_2  and  C_3
REMARK    3  A    between atoms: C_3  and  C_4
REMARK    4  A    between atoms: C_3  and  C_6
REMARK    5  A    between atoms: C_3  and  C_9
REMARK    6  A    between atoms: C_4  and  C_5
REMARK    7  A    between atoms: C_6  and  N_8
REMARK    8  A    between atoms: N_11  and  C_12
REMARK                            x       y       z     vdW  Elec       q    Type
REMARK                         _______ _______ _______ _____ _____    ______ ____
ROOT
ATOM      1  C   UNL     1      -2.125   0.103  -1.165  0.00  0.00    +0.226 C 
ATOM      2  O   UNL     1      -3.004   0.919  -0.984  0.00  0.00    -0.275 OA
ATOM      3  N   UNL     1      -1.767  -0.234  -2.420  0.00  0.00    -0.303 N 
ATOM      4  H   UNL     1      -1.064  -0.887  -2.565  0.00  0.00    +0.149 HD
ENDROOT
BRANCH   3   5
ATOM      5  C   UNL     1      -2.439   0.385  -3.565  0.00  0.00    +0.159 C 
ATOM      6  C   UNL     1      -2.343  -0.547  -4.775  0.00  0.00    +0.033 C 
ATOM      7  C   UNL     1      -2.802   0.225  -6.019  0.00  0.00    +0.021 C 
ATOM      8  C   UNL     1      -1.782   1.325  -6.316  0.00  0.00    +0.104 C 
ATOM      9  N   UNL     1      -1.516   2.111  -5.117  0.00  0.00    -0.314 N 
ATOM     10  C   UNL     1      -1.782   1.698  -3.879  0.00  0.00    +0.233 C 
ATOM     11  O   UNL     1      -1.478   2.423  -2.956  0.00  0.00    -0.274 OA
ATOM     12  H   UNL     1      -1.119   2.990  -5.229  0.00  0.00    +0.149 HD
ENDBRANCH   3   5
BRANCH   1  13
ATOM     13  C   UNL     1      -1.433  -0.534   0.013  0.00  0.00    +0.091 C 
BRANCH  13  15
ATOM     14  C   UNL     1       0.452   1.090  -0.216  0.00  0.00    +0.005 C 
ATOM     15  C   UNL     1       0.082  -0.393  -0.148  0.00  0.00    +0.019 C 
ENDBRANCH  13  15
BRANCH  13  16
ATOM     16  C   UNL     1      -1.803  -2.017   0.081  0.00  0.00    +0.019 C 
ATOM     17  C   UNL     1      -3.318  -2.158   0.242  0.00  0.00    +0.005 C 
ENDBRANCH  13  16
BRANCH  13  18
ATOM     18  C   UNL     1      -1.870   0.151   1.282  0.00  0.00    +0.061 C 
ATOM     19  S   UNL     1      -2.279   1.697   1.257  0.00  0.00    -0.040 S 
BRANCH  18  20
ATOM     20  N   UNL     1      -1.915  -0.538   2.439  0.00  0.00    -0.355 N 
ATOM     21  H   UNL     1      -1.666  -1.476   2.455  0.00  0.00    +0.143 HD
ATOM     22  H   UNL     1      -2.196  -0.098   3.256  0.00  0.00    +0.143 HD
ENDBRANCH  18  20
ENDBRANCH  13  18
ENDBRANCH   1  13
TORSDOF 6
