REMARK  Name = ZINC24741521
REMARK  5 active torsions:
REMARK  status: ('A' for Active; 'I' for Inactive)
REMARK    1  A    between atoms: C_3  and  C_23
REMARK    2  A    between atoms: C_5  and  N_7
REMARK    3  A    between atoms: C_8  and  C_10
REMARK    4  A    between atoms: C_13  and  N_16
REMARK    5  A    between atoms: N_19  and  C_20
REMARK                            x       y       z     vdW  Elec       q    Type
REMARK                         _______ _______ _______ _____ _____    ______ ____
ROOT
ATOM      1  N   UNL     1       6.175   3.358  -0.028  0.00  0.00    -0.281 N 
ATOM      2  C   UNL     1       7.516   3.431   0.080  0.00  0.00    +0.248 C 
ATOM      3  O   UNL     1       8.181   2.413   0.091  0.00  0.00    -0.270 OA
ATOM      4  H   UNL     1       5.580   4.279  -0.122  0.00  0.00    +0.155 HD
ENDROOT
BRANCH   1   9
ATOM      5  C   UNL     1       3.756   0.686  -0.770  0.00  0.00    +0.003 A 
ATOM      6  C   UNL     1       4.266  -0.355  -0.021  0.00  0.00    +0.013 A 
ATOM      7  C   UNL     1       5.418  -0.165   0.744  0.00  0.00    +0.040 A 
ATOM      8  C   UNL     1       6.056   1.075   0.740  0.00  0.00    +0.036 A 
ATOM      9  C   UNL     1       5.539   2.113  -0.020  0.00  0.00    +0.034 A 
ATOM     10  C   UNL     1       4.388   1.915  -0.774  0.00  0.00    +0.023 A 
BRANCH   7  11
ATOM     11  C   UNL     1       5.965  -1.277   1.551  0.00  0.00    +0.248 A 
ATOM     12  N   UNL     1       7.036  -1.237   2.307  0.00  0.00    -0.108 NA
ATOM     13  N   UNL     1       7.209  -2.386   2.860  0.00  0.00    -0.116 NA
ATOM     14  C   UNL     1       6.262  -3.198   2.482  0.00  0.00    +0.332 A 
ATOM     15  O   UNL     1       5.454  -2.521   1.648  0.00  0.00    -0.423 OA
ENDBRANCH   7  11
ENDBRANCH   1   9
BRANCH   2  16
ATOM     16  C   UNL     1       8.178   4.745   0.185  0.00  0.00    +0.037 A 
ATOM     17  C   UNL     1       7.416   5.917   0.167  0.00  0.00    +0.015 A 
ATOM     18  C   UNL     1       8.037   7.141   0.271  0.00  0.00    +0.024 A 
ATOM     19  C   UNL     1       9.422   7.214   0.382  0.00  0.00    +0.035 A 
ATOM     20  C   UNL     1      10.184   6.050   0.394  0.00  0.00    +0.024 A 
ATOM     21  C   UNL     1       9.569   4.822   0.297  0.00  0.00    +0.015 A 
BRANCH  19  22
ATOM     22  N   UNL     1      10.047   8.456   0.481  0.00  0.00    -0.269 N 
ATOM     23  C   UNL     1      11.245   8.656  -0.103  0.00  0.00    +0.304 C 
ATOM     24  O   UNL     1      11.819   7.732  -0.645  0.00  0.00    -0.253 OA
ATOM     25  N   UNL     1      11.807   9.881  -0.086  0.00  0.00    -0.296 N 
ATOM     26  H   UNL     1       9.563   9.273   1.037  0.00  0.00    +0.156 HD
ATOM     27  H   UNL     1      11.288  10.718   0.404  0.00  0.00    +0.151 HD
BRANCH  25  28
ATOM     28  C   UNL     1      13.109  10.099  -0.721  0.00  0.00    +0.075 C 
ATOM     29  C   UNL     1      14.133  10.943   0.039  0.00  0.00    +0.024 C 
ATOM     30  C   UNL     1      13.435  11.516  -1.196  0.00  0.00    +0.024 C 
ENDBRANCH  25  28
ENDBRANCH  19  22
ENDBRANCH   2  16
TORSDOF 5
