REMARK  Name = ZINC17247673
REMARK  6 active torsions:
REMARK  status: ('A' for Active; 'I' for Inactive)
REMARK    1  A    between atoms: C_1  and  C_2
REMARK    2  A    between atoms: C_6  and  S_8
REMARK    3  A    between atoms: S_8  and  N_11
REMARK    4  A    between atoms: N_11  and  C_12
REMARK    5  A    between atoms: N_22  and  C_23
REMARK    6  A    between atoms: C_23  and  C_24
REMARK                            x       y       z     vdW  Elec       q    Type
REMARK                         _______ _______ _______ _____ _____    ______ ____
ROOT
ATOM      1  C   UNL     1       1.966  -3.878   4.289  0.00  0.00    +0.203 A 
ATOM      2  C   UNL     1       3.324  -4.065   4.642  0.00  0.00    +0.163 A 
ATOM      3  N   UNL     1       3.644  -4.707   5.747  0.00  0.00    -0.227 NA
ATOM      4  C   UNL     1       2.676  -5.187   6.542  0.00  0.00    +0.091 A 
ATOM      5  C   UNL     1       2.991  -5.875   7.724  0.00  0.00    +0.030 A 
ATOM      6  C   UNL     1       1.991  -6.353   8.516  0.00  0.00    +0.002 A 
ATOM      7  C   UNL     1       0.655  -6.170   8.168  0.00  0.00    +0.002 A 
ATOM      8  C   UNL     1       0.313  -5.508   7.028  0.00  0.00    +0.030 A 
ATOM      9  C   UNL     1       1.318  -5.001   6.189  0.00  0.00    +0.092 A 
ATOM     10  N   UNL     1       1.006  -4.341   5.063  0.00  0.00    -0.224 NA
ATOM     11  N   UNL     1       4.325  -3.568   3.820  0.00  0.00    -0.324 N 
ATOM     12  H   UNL     1       4.093  -3.094   3.006  0.00  0.00    +0.148 HD
ENDROOT
BRANCH   1  13
ATOM     13  N   UNL     1       1.644  -3.200   3.123  0.00  0.00    -0.074 NA
BRANCH  13  14
ATOM     14  S   UNL     1       0.057  -2.973   2.709  0.00  0.00    +0.093 S 
ATOM     15  O   UNL     1      -0.500  -2.110   3.691  0.00  0.00    -0.148 OA
ATOM     16  O   UNL     1      -0.479  -4.260   2.433  0.00  0.00    -0.148 OA
BRANCH  14  22
ATOM     17  C   UNL     1      -0.018   1.503   0.010  0.00  0.00    +0.044 C 
ATOM     18  C   UNL     1       0.002  -0.004   0.002  0.00  0.00    -0.049 A 
ATOM     19  C   UNL     1       0.006  -0.689  -1.199  0.00  0.00    +0.003 A 
ATOM     20  C   UNL     1       0.025  -2.071  -1.207  0.00  0.00    +0.002 A 
ATOM     21  C   UNL     1       0.040  -2.768  -0.013  0.00  0.00    +0.029 A 
ATOM     22  C   UNL     1       0.037  -2.084   1.188  0.00  0.00    +0.111 A 
ATOM     23  C   UNL     1       0.023  -0.702   1.195  0.00  0.00    +0.032 A 
ENDBRANCH  14  22
ENDBRANCH  13  14
ENDBRANCH   1  13
BRANCH  11  24
ATOM     24  C   UNL     1       5.732  -3.758   4.182  0.00  0.00    +0.134 C 
BRANCH  24  25
ATOM     25  C   UNL     1       6.623  -3.119   3.115  0.00  0.00    +0.135 C 
ATOM     26  C   UNL     1       8.106  -3.419   3.423  0.00  0.00    +0.035 C 
ATOM     27  C   UNL     1       8.796  -2.078   3.054  0.00  0.00    +0.031 C 
ATOM     28  C   UNL     1       7.701  -1.061   3.462  0.00  0.00    +0.160 C 
ATOM     29  O   UNL     1       6.455  -1.697   3.128  0.00  0.00    -0.375 OA
ENDBRANCH  24  25
ENDBRANCH  11  24
TORSDOF 5
