REMARK  Name = ZINC33629449
REMARK  14 active torsions:
REMARK  status: ('A' for Active; 'I' for Inactive)
REMARK    1  A    between atoms: C_1  and  C_2
REMARK    2  A    between atoms: C_2  and  C_3
REMARK    3  A    between atoms: C_3  and  C_4
REMARK    4  A    between atoms: C_4  and  C_5
REMARK    5  A    between atoms: C_5  and  N_6
REMARK    6  A    between atoms: C_7  and  C_9
REMARK    7  A    between atoms: C_9  and  S_10
REMARK    8  A    between atoms: S_10  and  C_11
REMARK    9  A    between atoms: C_22  and  C_25
REMARK   10  A    between atoms: C_26  and  C_28
REMARK   11  A    between atoms: C_31  and  C_34
REMARK   12  A    between atoms: C_34  and  C_35
REMARK   13  A    between atoms: C_34  and  C_36
REMARK   14  A    between atoms: C_34  and  C_37
REMARK                            x       y       z     vdW  Elec       q    Type
REMARK                         _______ _______ _______ _____ _____    ______ ____
ROOT
ATOM      1  C   UNL     1       1.753   3.483  -4.421  0.00  0.00    +0.192 A 
ATOM      2  N   UNL     1       1.885   2.923  -3.228  0.00  0.00    -0.207 NA
ATOM      3  C   UNL     1       1.138   1.880  -2.882  0.00  0.00    +0.127 A 
ATOM      4  C   UNL     1       0.213   1.376  -3.798  0.00  0.00    +0.083 A 
ATOM      5  C   UNL     1       0.102   1.992  -5.031  0.00  0.00    +0.135 A 
ATOM      6  N   UNL     1       0.879   3.030  -5.309  0.00  0.00    -0.210 NA
ATOM      7 CL   UNL     1      -1.038   1.410  -6.204  0.00  0.00    -0.062 Cl
ATOM      8  N   UNL     1       1.279   1.297  -1.633  0.00  0.00    -0.312 N 
ATOM      9  C   UNL     1       1.577  -0.137  -1.751  0.00  0.00    +0.125 C 
ATOM     10  C   UNL     1       1.546  -0.778  -0.360  0.00  0.00    +0.127 C 
ATOM     11  N   UNL     1       2.452  -0.025   0.521  0.00  0.00    -0.292 N 
ATOM     12  C   UNL     1       2.303   1.437   0.587  0.00  0.00    +0.091 C 
ATOM     13  C   UNL     1       2.304   1.991  -0.841  0.00  0.00    +0.128 C 
ATOM     14  C   UNL     1       3.471   2.037   1.372  0.00  0.00    +0.029 C 
ATOM     15  C   UNL     1       3.393  -0.658   1.250  0.00  0.00    +0.247 C 
ATOM     16  O   UNL     1       4.201  -0.015   1.890  0.00  0.00    -0.270 OA
ENDROOT
BRANCH  15  17
ATOM     17  C   UNL     1       3.441  -2.136   1.270  0.00  0.00    +0.037 A 
ATOM     18  C   UNL     1       2.264  -2.878   1.159  0.00  0.00    +0.013 A 
ATOM     19  C   UNL     1       2.317  -4.256   1.173  0.00  0.00    +0.005 A 
ATOM     20  C   UNL     1       3.533  -4.903   1.309  0.00  0.00    -0.042 A 
ATOM     21  C   UNL     1       4.703  -4.174   1.426  0.00  0.00    +0.005 A 
ATOM     22  C   UNL     1       4.664  -2.795   1.407  0.00  0.00    +0.013 A 
BRANCH  20  23
ATOM     23  C   UNL     1       3.583  -6.409   1.330  0.00  0.00    -0.013 C 
ATOM     24  C   UNL     1       4.184  -6.881   2.656  0.00  0.00    +0.015 C 
ATOM     25  C   UNL     1       2.166  -6.968   1.185  0.00  0.00    +0.015 C 
ATOM     26  C   UNL     1       4.449  -6.907   0.171  0.00  0.00    +0.015 C 
ENDBRANCH  20  23
ENDBRANCH  15  17
BRANCH   1  27
ATOM     27  S   UNL     1       2.763   4.865  -4.839  0.00  0.00    -0.077 S 
BRANCH  27  28
ATOM     28  C   UNL     1       2.169   5.193  -6.517  0.00  0.00    +0.173 C 
BRANCH  28  30
ATOM     29  N   UNL     1       2.636   6.799  -8.339  0.00  0.00    -0.315 N 
ATOM     30  C   UNL     1       2.913   6.370  -7.092  0.00  0.00    +0.223 C 
ATOM     31  O   UNL     1       3.762   6.932  -6.433  0.00  0.00    -0.275 OA
ATOM     32  H   UNL     1       1.866   6.290  -8.938  0.00  0.00    +0.149 HD
BRANCH  29  33
ATOM     33  C   UNL     1       3.360   7.944  -8.899  0.00  0.00    +0.104 C 
BRANCH  33  34
ATOM     34  C   UNL     1       2.857   8.221 -10.317  0.00  0.00    +0.019 C 
BRANCH  34  35
ATOM     35  C   UNL     1       3.613   9.416 -10.901  0.00  0.00    +0.001 C 
BRANCH  35  37
ATOM     36  C   UNL     1       3.866  10.889 -12.903  0.00  0.00    +0.004 C 
ATOM     37  C   UNL     1       3.111   9.694 -12.319  0.00  0.00    -0.003 C 
ENDBRANCH  35  37
ENDBRANCH  34  35
ENDBRANCH  33  34
ENDBRANCH  29  33
ENDBRANCH  28  30
ENDBRANCH  27  28
ENDBRANCH   1  27
TORSDOF 9
