REMARK  Name = ZINC59807627
REMARK  8 active torsions:
REMARK  status: ('A' for Active; 'I' for Inactive)
REMARK    1  A    between atoms: C_1  and  C_2
REMARK    2  A    between atoms: C_5  and  C_8
REMARK    3  A    between atoms: C_11  and  C_14
REMARK    4  A    between atoms: C_19  and  C_21
REMARK    5  A    between atoms: C_21  and  N_22
REMARK    6  A    between atoms: N_22  and  C_23
REMARK    7  A    between atoms: C_26  and  C_30
REMARK    8  A    between atoms: N_32  and  C_33
REMARK                            x       y       z     vdW  Elec       q    Type
REMARK                         _______ _______ _______ _____ _____    ______ ____
ROOT
ATOM      1  C   UNL     1       0.058  -4.248  -0.021  0.00  0.00    +0.069 C 
ATOM      2  N   UNL     1       0.068  -4.985  -1.077  0.00  0.00    -0.181 NA
ATOM      3  N   UNL     1       0.086  -6.354  -0.816  0.00  0.00    -0.181 N 
ATOM      4  C   UNL     1       0.088  -6.560   0.641  0.00  0.00    +0.173 C 
ATOM      5  C   UNL     1       0.076  -5.127   1.209  0.00  0.00    +0.090 C 
ATOM      6  C   UNL     1       0.098  -7.329  -1.746  0.00  0.00    +0.252 C 
ATOM      7  O   UNL     1       0.113  -8.493  -1.404  0.00  0.00    -0.272 OA
ENDROOT
BRANCH   1  12
ATOM      8  C   UNL     1      -0.018   1.503   0.010  0.00  0.00    +0.044 C 
ATOM      9  C   UNL     1       0.002  -0.004   0.002  0.00  0.00    -0.050 A 
ATOM     10  C   UNL     1       0.006  -0.686  -1.202  0.00  0.00    +0.004 A 
ATOM     11  C   UNL     1       0.024  -2.065  -1.217  0.00  0.00    +0.010 A 
ATOM     12  C   UNL     1       0.039  -2.773  -0.013  0.00  0.00    -0.002 A 
ATOM     13  C   UNL     1       0.036  -2.078   1.198  0.00  0.00    +0.010 A 
ATOM     14  C   UNL     1       0.023  -0.699   1.198  0.00  0.00    +0.004 A 
ENDBRANCH   1  12
BRANCH   4  15
ATOM     15  C   UNL     1       1.335  -7.289   1.071  0.00  0.00    +0.128 A 
ATOM     16  C   UNL     1       1.402  -8.240   2.020  0.00  0.00    +0.046 A 
ATOM     17  C   UNL     1       2.754  -8.646   2.097  0.00  0.00    +0.041 A 
ATOM     18  C   UNL     1       3.432  -7.918   1.192  0.00  0.00    +0.195 A 
ATOM     19  O   UNL     1       2.566  -7.102   0.569  0.00  0.00    -0.466 OA
ENDBRANCH   4  15
BRANCH   6  20
ATOM     20  C   UNL     1       0.095  -6.974  -3.211  0.00  0.00    +0.199 C 
BRANCH  20  21
ATOM     21  N   UNL     1       0.110  -8.201  -4.011  0.00  0.00    -0.335 N 
ATOM     22  H   UNL     1       0.121  -9.066  -3.572  0.00  0.00    +0.147 HD
BRANCH  21  23
ATOM     23  C   UNL     1       0.110  -8.126  -5.399  0.00  0.00    +0.029 A 
ATOM     24  C   UNL     1       0.101  -6.884  -6.028  0.00  0.00    +0.024 A 
ATOM     25  C   UNL     1       0.100  -6.802  -7.391  0.00  0.00    +0.016 A 
ATOM     26  C   UNL     1       0.110  -7.968  -8.162  0.00  0.00    +0.055 A 
ATOM     27  C   UNL     1       0.120  -9.219  -7.534  0.00  0.00    +0.055 A 
ATOM     28  C   UNL     1       0.125  -9.293  -6.157  0.00  0.00    +0.043 A 
ATOM     29 CL   UNL     1       0.132 -10.671  -8.485  0.00  0.00    -0.083 Cl
BRANCH  26  30
ATOM     30  C   UNL     1       0.109  -7.881  -9.634  0.00  0.00    +0.245 C 
ATOM     31  O   UNL     1       0.118  -8.896 -10.303  0.00  0.00    -0.270 OA
ATOM     32  N   UNL     1       0.099  -6.676 -10.238  0.00  0.00    -0.314 N 
ATOM     33  C   UNL     1       0.098  -6.589 -11.700  0.00  0.00    +0.128 C 
ATOM     34  H   UNL     1       0.092  -5.866  -9.704  0.00  0.00    +0.149 HD
ENDBRANCH  26  30
ENDBRANCH  21  23
ENDBRANCH  20  21
ENDBRANCH   6  20
TORSDOF 6
