REMARK  Name = ZINC38806172
REMARK  12 active torsions:
REMARK  status: ('A' for Active; 'I' for Inactive)
REMARK    1  A    between atoms: C_1  and  C_2
REMARK    2  A    between atoms: C_2  and  O_3
REMARK    3  A    between atoms: O_3  and  C_4
REMARK    4  A    between atoms: C_4  and  C_6
REMARK    5  A    between atoms: C_10  and  N_11
REMARK    6  A    between atoms: C_12  and  C_14
REMARK    7  A    between atoms: C_15  and  C_26
REMARK    8  A    between atoms: C_18  and  C_19
REMARK    9  A    between atoms: C_27  and  C_33
REMARK   10  A    between atoms: C_27  and  C_34
REMARK   11  A    between atoms: C_29  and  C_31
REMARK   12  A    between atoms: C_29  and  C_32
REMARK                            x       y       z     vdW  Elec       q    Type
REMARK                         _______ _______ _______ _____ _____    ______ ____
ROOT
ATOM      1  C   UNL     1       1.449  -2.344  -2.516  0.00  0.00    +0.091 A 
ATOM      2  C   UNL     1       2.869  -2.617  -2.532  0.00  0.00    -0.024 A 
ATOM      3  C   UNL     1       3.335  -3.112  -3.701  0.00  0.00    -0.016 A 
ATOM      4  S   UNL     1       1.907  -3.215  -4.736  0.00  0.00    -0.079 S 
ATOM      5  C   UNL     1       0.742  -2.622  -3.681  0.00  0.00    +0.086 A 
ATOM      6  C   UNL     1       4.752  -3.468  -4.012  0.00  0.00    -0.041 C 
ATOM      7  N   UNL     1       5.610  -3.402  -2.830  0.00  0.00    +0.389 N 
ATOM      8  C   UNL     1       4.947  -3.474  -1.535  0.00  0.00    -0.069 C 
ATOM      9  C   UNL     1       3.852  -2.410  -1.389  0.00  0.00    +0.024 C 
ATOM     10  C   UNL     1       4.346  -4.861  -1.297  0.00  0.00    -0.010 C 
ATOM     11  C   UNL     1       5.998  -3.220  -0.438  0.00  0.00    -0.010 C 
ATOM     12  C   UNL     1       4.803  -4.873  -4.628  0.00  0.00    -0.005 C 
ATOM     13  C   UNL     1       5.282  -2.471  -5.062  0.00  0.00    -0.005 C 
ATOM     14  H   UNL     1       6.300  -4.153  -2.885  0.00  0.00    -0.084 HD
ATOM     15  H   UNL     1       6.147  -2.533  -2.868  0.00  0.00    -0.084 HD
ENDROOT
BRANCH   5  16
ATOM     16  N   UNL     1      -0.613  -2.451  -3.913  0.00  0.00    -0.275 N 
ATOM     17  C   UNL     1      -1.137  -2.775  -5.112  0.00  0.00    +0.254 C 
ATOM     18  O   UNL     1      -0.420  -3.218  -5.989  0.00  0.00    -0.270 OA
ATOM     19  H   UNL     1      -1.184  -2.098  -3.213  0.00  0.00    +0.156 HD
BRANCH  17  20
ATOM     20  C   UNL     1      -2.577  -2.593  -5.359  0.00  0.00    +0.106 A 
ATOM     21  C   UNL     1      -3.182  -1.478  -5.859  0.00  0.00    +0.147 A 
ATOM     22  O   UNL     1      -4.495  -1.711  -5.933  0.00  0.00    -0.359 OA
ATOM     23  N   UNL     1      -4.769  -3.018  -5.469  0.00  0.00    -0.077 NA
ATOM     24  C   UNL     1      -3.640  -3.582  -5.120  0.00  0.00    +0.127 A 
ATOM     25  C   UNL     1      -2.488  -0.201  -6.259  0.00  0.00    +0.090 C 
BRANCH  24  26
ATOM     26  C   UNL     1      -3.466  -4.953  -4.583  0.00  0.00    +0.023 A 
ATOM     27  C   UNL     1      -2.196  -5.416  -4.244  0.00  0.00    +0.011 A 
ATOM     28  C   UNL     1      -2.041  -6.693  -3.744  0.00  0.00    +0.001 A 
ATOM     29  C   UNL     1      -3.142  -7.513  -3.579  0.00  0.00    +0.001 A 
ATOM     30  C   UNL     1      -4.405  -7.061  -3.913  0.00  0.00    +0.020 A 
ATOM     31  C   UNL     1      -4.574  -5.782  -4.409  0.00  0.00    +0.050 A 
ATOM     32 CL   UNL     1      -6.161  -5.212  -4.822  0.00  0.00    -0.083 Cl
ENDBRANCH  24  26
ENDBRANCH  17  20
ENDBRANCH   5  16
BRANCH   1  33
ATOM     33  C   UNL     1       0.776  -1.800  -1.335  0.00  0.00    +0.342 C 
ATOM     34  O   UNL     1       0.312  -2.552  -0.499  0.00  0.00    -0.245 OA
BRANCH  33  35
ATOM     35  O   UNL     1       0.671  -0.465  -1.174  0.00  0.00    -0.461 OA
BRANCH  35  37
ATOM     36  C   UNL     1      -0.019   1.526   0.010  0.00  0.00    +0.048 C 
ATOM     37  C   UNL     1       0.002  -0.004   0.002  0.00  0.00    +0.229 C 
ENDBRANCH  35  37
ENDBRANCH  33  35
ENDBRANCH   1  33
TORSDOF 6
