REMARK  Name = ZINC58214334
REMARK  3 active torsions:
REMARK  status: ('A' for Active; 'I' for Inactive)
REMARK    1  A    between atoms: C_1  and  C_2
REMARK    2  A    between atoms: C_7  and  C_12
REMARK    3  A    between atoms: C_18  and  C_20
REMARK                            x       y       z     vdW  Elec       q    Type
REMARK                         _______ _______ _______ _____ _____    ______ ____
ROOT
ATOM      1  C   UNL     1       0.088  -5.558   2.350  0.00  0.00    +0.264 C 
ATOM      2  O   UNL     1      -0.003  -6.610   1.747  0.00  0.00    -0.268 OA
ATOM      3  N   UNL     1       0.196  -5.559   3.694  0.00  0.00    -0.285 N 
ATOM      4  C   UNL     1       0.190  -4.364   4.557  0.00  0.00    +0.109 C 
ATOM      5  C   UNL     1      -0.283  -4.876   5.940  0.00  0.00    +0.021 C 
ATOM      6  C   UNL     1       0.397  -6.269   6.006  0.00  0.00    +0.033 C 
ATOM      7  C   UNL     1       0.332  -6.752   4.542  0.00  0.00    +0.163 C 
ENDROOT
BRANCH   1  14
ATOM      8  C   UNL     1       0.365   1.486  -0.025  0.00  0.00    +0.044 C 
ATOM      9  C   UNL     1       0.213  -0.013  -0.017  0.00  0.00    -0.048 A 
ATOM     10  C   UNL     1      -0.076  -0.681  -1.200  0.00  0.00    +0.004 A 
ATOM     11  C   UNL     1      -0.218  -2.038  -1.215  0.00  0.00    +0.010 A 
ATOM     12  C   UNL     1      -0.070  -2.767  -0.028  0.00  0.00    +0.000 A 
ATOM     13  C   UNL     1      -0.153  -4.146   0.283  0.00  0.00    +0.040 A 
ATOM     14  C   UNL     1       0.081  -4.285   1.614  0.00  0.00    +0.103 A 
ATOM     15  N   UNL     1       0.312  -3.039   2.165  0.00  0.00    -0.351 N 
ATOM     16  H   UNL     1       0.505  -2.862   3.099  0.00  0.00    +0.166 HD
ATOM     17  C   UNL     1       0.223  -2.092   1.173  0.00  0.00    +0.047 A 
ATOM     18  C   UNL     1       0.369  -0.708   1.161  0.00  0.00    +0.029 A 
ENDBRANCH   1  14
BRANCH   7  19
ATOM     19  C   UNL     1       1.600  -7.488   4.191  0.00  0.00    +0.239 C 
ATOM     20  O   UNL     1       2.326  -7.062   3.318  0.00  0.00    -0.273 OA
ATOM     21  N   UNL     1       1.927  -8.618   4.848  0.00  0.00    -0.263 N 
ATOM     22  C   UNL     1       3.096  -9.296   4.525  0.00  0.00    +0.164 A 
ATOM     23  N   UNL     1       3.998  -8.985   3.620  0.00  0.00    -0.233 NA
ATOM     24  C   UNL     1       5.065  -9.740   3.432  0.00  0.00    +0.120 A 
ATOM     25  C   UNL     1       5.184 -10.843   4.211  0.00  0.00    +0.068 A 
ATOM     26  S   UNL     1       3.705 -10.712   5.202  0.00  0.00    -0.061 S 
ATOM     27  H   UNL     1       1.346  -8.958   5.547  0.00  0.00    +0.157 HD
ENDBRANCH   7  19
TORSDOF 2
