REMARK  Name = ZINC13352661
REMARK  6 active torsions:
REMARK  status: ('A' for Active; 'I' for Inactive)
REMARK    1  A    between atoms: C_1  and  C_2
REMARK    2  A    between atoms: C_8  and  C_16
REMARK    3  A    between atoms: C_12  and  C_13
REMARK    4  A    between atoms: C_16  and  S_17
REMARK    5  A    between atoms: S_17  and  C_18
REMARK    6  A    between atoms: C_21  and  C_24
REMARK                            x       y       z     vdW  Elec       q    Type
REMARK                         _______ _______ _______ _____ _____    ______ ____
ROOT
ATOM      1  C   UNL     1      -0.018   1.503   0.010  0.00  0.00    +0.046 C 
ATOM      2  C   UNL     1       0.002  -0.004   0.002  0.00  0.00    -0.015 A 
ATOM      3  C   UNL     1       0.005  -0.700  -1.207  0.00  0.00    +0.076 A 
ATOM      4  C   UNL     1      -0.009  -0.168  -2.590  0.00  0.00    +0.260 A 
ATOM      5  O   UNL     1      -0.026   1.032  -2.798  0.00  0.00    -0.267 OA
ATOM      6  N   UNL     1      -0.002  -1.047  -3.611  0.00  0.00    -0.310 N 
ATOM      7  H   UNL     1      -0.010  -0.716  -4.523  0.00  0.00    +0.170 HD
ATOM      8  C   UNL     1       0.018  -2.385  -3.391  0.00  0.00    +0.121 A 
ATOM      9  N   UNL     1       0.031  -2.886  -2.186  0.00  0.00    -0.226 NA
ATOM     10  C   UNL     1       0.026  -2.110  -1.109  0.00  0.00    +0.116 A 
ATOM     11  S   UNL     1       0.038  -2.402   0.641  0.00  0.00    -0.062 S 
ATOM     12  C   UNL     1       0.023  -0.703   1.188  0.00  0.00    +0.106 A 
ENDROOT
BRANCH  12  13
ATOM     13  C   UNL     1       0.029  -0.199   2.513  0.00  0.00    +0.393 C 
ATOM     14  O   UNL     1       0.015   1.010   2.709  0.00  0.00    -0.240 OA
ATOM     15  O   UNL     1       0.050  -0.973   3.463  0.00  0.00    -0.240 OA
ENDBRANCH  12  13
BRANCH   8  16
ATOM     16  C   UNL     1       0.025  -3.320  -4.573  0.00  0.00    +0.151 C 
BRANCH  16  17
ATOM     17  S   UNL     1       0.052  -5.036  -3.985  0.00  0.00    -0.079 S 
BRANCH  17  18
ATOM     18  C   UNL     1       0.057  -5.993  -5.464  0.00  0.00    +0.185 A 
ATOM     19  N   UNL     1       0.044  -5.519  -6.691  0.00  0.00    -0.201 NA
ATOM     20  H   UNL     1       0.098  -7.964  -4.792  0.00  0.00    +0.191 HD
ATOM     21  C   UNL     1       0.054  -6.535  -7.566  0.00  0.00    +0.182 A 
ATOM     22  N   UNL     1       0.072  -7.669  -6.902  0.00  0.00    -0.152 NA
ATOM     23  N   UNL     1       0.081  -7.343  -5.537  0.00  0.00    -0.253 N 
BRANCH  21  24
ATOM     24  C   UNL     1       0.044  -6.401  -9.044  0.00  0.00    +0.021 A 
ATOM     25  C   UNL     1       0.029  -5.137  -9.631  0.00  0.00    +0.013 A 
ATOM     26  C   UNL     1       0.020  -5.017 -11.006  0.00  0.00    +0.021 A 
ATOM     27  C   UNL     1       0.026  -6.150 -11.802  0.00  0.00    +0.041 A 
ATOM     28  C   UNL     1       0.040  -7.408 -11.223  0.00  0.00    +0.021 A 
ATOM     29  C   UNL     1       0.055  -7.538  -9.850  0.00  0.00    +0.013 A 
ATOM     30 CL   UNL     1       0.014  -5.993 -13.530  0.00  0.00    -0.084 Cl
ENDBRANCH  21  24
ENDBRANCH  17  18
ENDBRANCH  16  17
ENDBRANCH   8  16
TORSDOF 5
