REMARK  Name = ZINC63807075
REMARK  9 active torsions:
REMARK  status: ('A' for Active; 'I' for Inactive)
REMARK    1  A    between atoms: C_1  and  C_2
REMARK    2  A    between atoms: C_4  and  C_21
REMARK    3  A    between atoms: C_7  and  N_10
REMARK    4  A    between atoms: N_10  and  C_11
REMARK    5  A    between atoms: C_11  and  C_12
REMARK    6  A    between atoms: C_18  and  C_20
REMARK    7  A    between atoms: N_23  and  C_24
REMARK    8  A    between atoms: C_24  and  C_25
REMARK    9  A    between atoms: C_25  and  C_26
REMARK                            x       y       z     vdW  Elec       q    Type
REMARK                         _______ _______ _______ _____ _____    ______ ____
ROOT
ATOM      1  C   UNL     1      -0.170   1.483  -0.023  0.00  0.00    +0.025 C 
ATOM      2  C   UNL     1      -0.096  -0.045  -0.011  0.00  0.00    +0.075 C 
ATOM      3  C   UNL     1      -1.535  -0.606   0.094  0.00  0.00    +0.152 C 
ATOM      4  S   UNL     1      -1.236  -2.053   1.205  0.00  0.00    -0.108 S 
ATOM      5  C   UNL     1       0.197  -1.324   2.116  0.00  0.00    +0.205 C 
ATOM      6  N   UNL     1       0.788  -0.456   1.073  0.00  0.00    -0.286 NA
ATOM      7  H   UNL     1       1.640  -0.858   0.713  0.00  0.00    +0.125 HD
ENDROOT
BRANCH   5   8
ATOM      8  N   UNL     1      -0.255  -0.534   3.264  0.00  0.00    -0.275 N 
ATOM      9  C   UNL     1       0.630  -0.134   4.197  0.00  0.00    +0.214 C 
ATOM     10  O   UNL     1       0.244   0.441   5.193  0.00  0.00    -0.276 OA
ATOM     11  C   UNL     1       2.101  -0.399   4.003  0.00  0.00    +0.109 C 
BRANCH   8  12
ATOM     12  C   UNL     1      -1.671  -0.180   3.397  0.00  0.00    +0.141 C 
BRANCH  12  13
ATOM     13  C   UNL     1      -2.397  -1.270   4.187  0.00  0.00    +0.136 C 
ATOM     14  C   UNL     1      -3.910  -0.967   4.229  0.00  0.00    +0.035 C 
ATOM     15  C   UNL     1      -4.288  -1.376   5.679  0.00  0.00    +0.031 C 
ATOM     16  C   UNL     1      -2.997  -0.986   6.441  0.00  0.00    +0.160 C 
ATOM     17  O   UNL     1      -1.920  -1.292   5.537  0.00  0.00    -0.375 OA
ENDBRANCH  12  13
ENDBRANCH   8  12
ENDBRANCH   5   8
BRANCH   3  18
ATOM     18  C   UNL     1      -2.050  -1.046  -1.252  0.00  0.00    +0.228 C 
ATOM     19  O   UNL     1      -1.292  -1.538  -2.061  0.00  0.00    -0.275 OA
ATOM     20  N   UNL     1      -3.354  -0.893  -1.557  0.00  0.00    -0.314 N 
ATOM     21  H   UNL     1      -3.960  -0.500  -0.910  0.00  0.00    +0.149 HD
BRANCH  20  22
ATOM     22  C   UNL     1      -3.855  -1.321  -2.866  0.00  0.00    +0.108 C 
BRANCH  22  23
ATOM     23  C   UNL     1      -5.356  -1.037  -2.955  0.00  0.00    +0.052 C 
BRANCH  23  24
ATOM     24  C   UNL     1      -5.871  -1.477  -4.301  0.00  0.00    -0.040 C 
ATOM     25  C   UNL     1      -6.449  -2.662  -4.603  0.00  0.00    -0.001 A 
ATOM     26  C   UNL     1      -6.758  -3.851  -3.800  0.00  0.00    +0.010 A 
ATOM     27  C   UNL     1      -7.353  -4.909  -4.396  0.00  0.00    +0.001 A 
ATOM     28  C   UNL     1      -7.681  -4.899  -5.759  0.00  0.00    +0.002 A 
ATOM     29  C   UNL     1      -7.428  -3.843  -6.561  0.00  0.00    +0.026 A 
ATOM     30  C   UNL     1      -6.806  -2.676  -6.040  0.00  0.00    +0.043 A 
ATOM     31  N   UNL     1      -6.462  -1.544  -6.604  0.00  0.00    -0.380 N 
ATOM     32  C   UNL     1      -5.852  -0.680  -5.586  0.00  0.00    +0.144 C 
ATOM     33  H   UNL     1      -6.592  -1.314  -7.537  0.00  0.00    +0.160 HD
ENDBRANCH  23  24
ENDBRANCH  22  23
ENDBRANCH  20  22
ENDBRANCH   3  18
TORSDOF 7
