REMARK  Name = ZINC00725832
REMARK  5 active torsions:
REMARK  status: ('A' for Active; 'I' for Inactive)
REMARK    1  A    between atoms: C_1  and  C_2
REMARK    2  A    between atoms: C_3  and  C_19
REMARK    3  A    between atoms: C_4  and  C_10
REMARK    4  A    between atoms: C_14  and  N_16
REMARK    5  A    between atoms: N_21  and  C_22
REMARK                            x       y       z     vdW  Elec       q    Type
REMARK                         _______ _______ _______ _____ _____    ______ ____
ROOT
ATOM      1  C   UNL     1      -1.629   6.976   2.458  0.00  0.00    +0.061 C 
ATOM      2  C   UNL     1      -1.313   6.252   1.174  0.00  0.00    +0.019 C 
ATOM      3  C   UNL     1      -0.323   5.335   1.156  0.00  0.00    +0.056 C 
ATOM      4  C   UNL     1      -0.039   4.630  -0.155  0.00  0.00    +0.142 C 
ATOM      5  N   UNL     1      -0.873   5.005  -1.309  0.00  0.00    -0.288 N 
ATOM      6  C   UNL     1      -1.828   5.941  -1.134  0.00  0.00    +0.304 C 
ATOM      7  O   UNL     1      -2.522   6.257  -2.080  0.00  0.00    -0.252 OA
ATOM      8  N   UNL     1      -2.035   6.533   0.049  0.00  0.00    -0.273 N 
ATOM      9  H   UNL     1      -0.739   4.589  -2.175  0.00  0.00    +0.151 HD
ATOM     10  H   UNL     1      -2.738   7.199   0.110  0.00  0.00    +0.156 HD
ENDROOT
BRANCH   4  11
ATOM     11  C   UNL     1      -0.198   3.149   0.071  0.00  0.00    -0.020 A 
ATOM     12  C   UNL     1      -1.436   2.554  -0.085  0.00  0.00    +0.006 A 
ATOM     13  C   UNL     1      -1.581   1.195   0.118  0.00  0.00    +0.003 A 
ATOM     14  C   UNL     1      -0.489   0.431   0.486  0.00  0.00    +0.033 A 
ATOM     15  C   UNL     1       0.750   1.025   0.641  0.00  0.00    +0.127 A 
ATOM     16  C   UNL     1       0.895   2.384   0.434  0.00  0.00    +0.038 A 
BRANCH  15  17
ATOM     17  N   UNL     1       1.920   0.206   1.030  0.00  0.00    +0.056 N 
ATOM     18  O   UNL     1       1.792  -0.991   1.213  0.00  0.00    -0.126 OA
ATOM     19  O   UNL     1       3.011   0.730   1.167  0.00  0.00    -0.126 OA
ENDBRANCH  15  17
ENDBRANCH   4  11
BRANCH   3  20
ATOM     20  C   UNL     1       0.426   5.043   2.322  0.00  0.00    +0.248 C 
ATOM     21  O   UNL     1       1.599   5.362   2.389  0.00  0.00    -0.270 OA
ATOM     22  N   UNL     1      -0.160   4.410   3.358  0.00  0.00    -0.282 N 
ATOM     23  H   UNL     1      -1.116   4.243   3.346  0.00  0.00    +0.155 HD
BRANCH  22  24
ATOM     24  C   UNL     1       0.609   3.994   4.449  0.00  0.00    +0.034 A 
ATOM     25  C   UNL     1       1.719   4.732   4.840  0.00  0.00    +0.024 A 
ATOM     26  C   UNL     1       2.474   4.321   5.921  0.00  0.00    +0.017 A 
ATOM     27  C   UNL     1       2.132   3.170   6.608  0.00  0.00    +0.018 A 
ATOM     28  C   UNL     1       1.030   2.430   6.218  0.00  0.00    +0.017 A 
ATOM     29  C   UNL     1       0.269   2.838   5.141  0.00  0.00    +0.024 A 
ATOM     30 BR   UNL     1       3.173   2.607   8.083  0.00  0.00    -0.050 Br
ENDBRANCH  22  24
ENDBRANCH   3  20
TORSDOF 4
