REMARK  Name = ZINC38490138
REMARK  5 active torsions:
REMARK  status: ('A' for Active; 'I' for Inactive)
REMARK    1  A    between atoms: C_4  and  N_15
REMARK    2  A    between atoms: C_5  and  N_7
REMARK    3  A    between atoms: C_8  and  C_10
REMARK    4  A    between atoms: C_16  and  C_18
REMARK    5  A    between atoms: C_18  and  C_23
REMARK                            x       y       z     vdW  Elec       q    Type
REMARK                         _______ _______ _______ _____ _____    ______ ____
ROOT
ATOM      1  C   UNL     1      -0.343   0.940  -0.331  0.00  0.00    +0.002 A 
ATOM      2  C   UNL     1       0.593   1.687   0.361  0.00  0.00    +0.002 A 
ATOM      3  C   UNL     1       1.897   1.242   0.465  0.00  0.00    +0.025 A 
ATOM      4  C   UNL     1       2.271   0.044  -0.124  0.00  0.00    +0.055 A 
ATOM      5  C   UNL     1       1.327  -0.710  -0.821  0.00  0.00    +0.055 A 
ATOM      6  C   UNL     1       0.020  -0.256  -0.921  0.00  0.00    +0.025 A 
ENDROOT
BRANCH   5   7
ATOM      7  N   UNL     1       1.697  -1.921  -1.418  0.00  0.00    -0.277 N 
ATOM      8  C   UNL     1       0.772  -2.878  -1.630  0.00  0.00    +0.284 C 
ATOM      9  O   UNL     1      -0.397  -2.663  -1.369  0.00  0.00    -0.266 OA
ATOM     10  H   UNL     1       2.619  -2.071  -1.679  0.00  0.00    +0.155 HD
BRANCH   8  11
ATOM     11  C   UNL     1       1.175  -4.178  -2.175  0.00  0.00    +0.189 A 
ATOM     12  C   UNL     1       0.344  -5.228  -2.443  0.00  0.00    +0.054 A 
ATOM     13  C   UNL     1       1.149  -6.261  -2.949  0.00  0.00    +0.042 A 
ATOM     14  C   UNL     1       2.420  -5.802  -2.968  0.00  0.00    +0.196 A 
ATOM     15  O   UNL     1       2.430  -4.544  -2.507  0.00  0.00    -0.458 OA
ENDBRANCH   8  11
ENDBRANCH   5   7
BRANCH   4  16
ATOM     16  N   UNL     1       3.592  -0.408  -0.020  0.00  0.00    -0.283 N 
ATOM     17  C   UNL     1       4.609   0.477  -0.009  0.00  0.00    +0.228 C 
ATOM     18  O   UNL     1       4.388   1.656  -0.190  0.00  0.00    -0.274 OA
ATOM     19  H   UNL     1       3.776  -1.359   0.044  0.00  0.00    +0.155 HD
BRANCH  17  20
ATOM     20  C   UNL     1       6.019   0.002   0.229  0.00  0.00    +0.078 C 
ATOM     21  C   UNL     1       6.453  -0.952  -0.903  0.00  0.00    +0.021 C 
ATOM     22  C   UNL     1       7.215  -0.040  -1.897  0.00  0.00    +0.001 C 
ATOM     23  C   UNL     1       7.980   0.925  -0.957  0.00  0.00    +0.001 C 
ATOM     24  C   UNL     1       6.990   1.196   0.194  0.00  0.00    +0.021 C 
BRANCH  20  25
ATOM     25  C   UNL     1       6.110  -0.699   1.560  0.00  0.00    +0.005 A 
ATOM     26  C   UNL     1       5.445  -1.797   1.994  0.00  0.00    +0.012 A 
ATOM     27  C   UNL     1       5.691  -2.270   3.269  0.00  0.00    +0.008 A 
ATOM     28  C   UNL     1       6.591  -1.622   4.048  0.00  0.00    +0.045 A 
ATOM     29  S   UNL     1       7.128  -0.302   2.972  0.00  0.00    -0.101 S 
ENDBRANCH  20  25
ENDBRANCH  17  20
ENDBRANCH   4  16
TORSDOF 5
