REMARK  Name = ZINC38994753
REMARK  10 active torsions:
REMARK  status: ('A' for Active; 'I' for Inactive)
REMARK    1  A    between atoms: C_1  and  C_2
REMARK    2  A    between atoms: C_2  and  C_3
REMARK    3  A    between atoms: C_3  and  C_4
REMARK    4  A    between atoms: C_4  and  C_5
REMARK    5  A    between atoms: C_5  and  C_6
REMARK    6  A    between atoms: C_6  and  N_7
REMARK    7  A    between atoms: C_8  and  O_32
REMARK    8  A    between atoms: C_10  and  C_16
REMARK    9  A    between atoms: C_11  and  O_15
REMARK   10  A    between atoms: N_30  and  C_31
REMARK                            x       y       z     vdW  Elec       q    Type
REMARK                         _______ _______ _______ _____ _____    ______ ____
ROOT
ATOM      1  N   UNL     1       2.610  -4.545   3.854  0.00  0.00    -0.256 N 
ATOM      2  C   UNL     1       4.052  -4.835   3.778  0.00  0.00    +0.240 C 
ATOM      3  C   UNL     1       4.698  -5.452   5.001  0.00  0.00    +0.057 C 
ATOM      4  C   UNL     1       3.931  -5.690   6.059  0.00  0.00    +0.190 C 
ATOM      5  N   UNL     1       2.579  -5.386   6.047  0.00  0.00    -0.240 N 
ATOM      6  C   UNL     1       1.956  -4.836   4.996  0.00  0.00    +0.311 C 
ATOM      7  O   UNL     1       0.767  -4.596   5.073  0.00  0.00    -0.252 OA
ATOM      8  H   UNL     1       2.057  -5.577   6.842  0.00  0.00    +0.159 HD
ENDROOT
BRANCH   3   9
ATOM      9  C   UNL     1       6.168  -5.784   5.017  0.00  0.00    +0.139 C 
ATOM     10  C   UNL     1       6.691  -5.707   6.432  0.00  0.00    +0.042 A 
ATOM     11  H   UNL     1       5.852  -3.968   7.216  0.00  0.00    +0.166 HD
ATOM     12  C   UNL     1       7.522  -6.632   6.962  0.00  0.00    -0.016 A 
ATOM     13  C   UNL     1       7.801  -6.227   8.322  0.00  0.00    +0.003 A 
ATOM     14  C   UNL     1       8.583  -6.784   9.338  0.00  0.00    +0.010 A 
ATOM     15  C   UNL     1       8.619  -6.111  10.534  0.00  0.00    +0.001 A 
ATOM     16  C   UNL     1       7.918  -4.934  10.738  0.00  0.00    +0.002 A 
ATOM     17  C   UNL     1       7.136  -4.360   9.750  0.00  0.00    +0.026 A 
ATOM     18  C   UNL     1       7.081  -5.021   8.525  0.00  0.00    +0.047 A 
ATOM     19  N   UNL     1       6.423  -4.739   7.361  0.00  0.00    -0.356 N 
ATOM     20  C   UNL     1       8.020  -7.836   6.202  0.00  0.00    +0.053 C 
ATOM     21  C   UNL     1       7.760  -7.595   4.709  0.00  0.00    +0.090 C 
ATOM     22  N   UNL     1       6.371  -7.153   4.515  0.00  0.00    -0.293 NA
ATOM     23  C   UNL     1       5.431  -8.089   5.145  0.00  0.00    +0.105 C 
ENDBRANCH   3   9
BRANCH   4  24
ATOM     24  O   UNL     1       4.480  -6.242   7.170  0.00  0.00    -0.495 OA
ATOM     25  H   UNL     1       3.852  -6.381   7.892  0.00  0.00    +0.293 HD
ENDBRANCH   4  24
BRANCH   2  26
ATOM     26  O   UNL     1       4.732  -3.612   3.491  0.00  0.00    -0.370 OA
ATOM     27  H   UNL     1       4.537  -3.249   2.616  0.00  0.00    +0.212 HD
ENDBRANCH   2  26
BRANCH   1  28
ATOM     28  C   UNL     1       1.905  -3.949   2.717  0.00  0.00    +0.112 C 
BRANCH  28  29
ATOM     29  C   UNL     1       1.958  -2.424   2.827  0.00  0.00    +0.019 C 
BRANCH  29  30
ATOM     30  C   UNL     1       1.221  -1.801   1.639  0.00  0.00    +0.002 C 
BRANCH  30  31
ATOM     31  C   UNL     1       1.273  -0.276   1.749  0.00  0.00    -0.000 C 
BRANCH  31  33
ATOM     32  C   UNL     1       0.589   1.872   0.672  0.00  0.00    +0.004 C 
ATOM     33  C   UNL     1       0.536   0.347   0.562  0.00  0.00    -0.003 C 
ENDBRANCH  31  33
ENDBRANCH  30  31
ENDBRANCH  29  30
ENDBRANCH  28  29
ENDBRANCH   1  28
TORSDOF 8
