REMARK  Name = ZINC64131746
REMARK  6 active torsions:
REMARK  status: ('A' for Active; 'I' for Inactive)
REMARK    1  A    between atoms: C_6  and  C_7
REMARK    2  A    between atoms: C_7  and  C_8
REMARK    3  A    between atoms: C_8  and  C_14
REMARK    4  A    between atoms: C_14  and  C_15
REMARK    5  A    between atoms: C_15  and  C_16
REMARK    6  A    between atoms: C_22  and  C_24
REMARK                            x       y       z     vdW  Elec       q    Type
REMARK                         _______ _______ _______ _____ _____    ______ ____
ROOT
ATOM      1  C   UNL     1      -2.523  -3.570  -0.760  0.00  0.00    +0.098 C 
ENDROOT
BRANCH   1   2
ATOM      2  C   UNL     1      -3.927  -4.118  -0.780  0.00  0.00    +0.216 C 
ATOM      3  O   UNL     1      -4.799  -3.529  -1.384  0.00  0.00    -0.276 OA
ATOM      4  N   UNL     1      -4.214  -5.262  -0.128  0.00  0.00    -0.295 N 
ATOM      5  C   UNL     1      -3.238  -6.126   0.560  0.00  0.00    +0.108 C 
ATOM      6  C   UNL     1      -4.066  -6.895   1.620  0.00  0.00    +0.021 C 
ATOM      7  C   UNL     1      -5.396  -7.138   0.858  0.00  0.00    +0.028 C 
ATOM      8  C   UNL     1      -5.552  -5.851   0.020  0.00  0.00    +0.119 C 
BRANCH   8   9
ATOM      9  C   UNL     1      -6.124  -6.197  -1.356  0.00  0.00    +0.195 C 
ATOM     10  N   UNL     1      -7.439  -6.833  -1.211  0.00  0.00    -0.362 N 
ATOM     11  C   UNL     1      -7.357  -8.024  -1.728  0.00  0.00    +0.060 A 
ATOM     12  C   UNL     1      -8.329  -9.117  -1.877  0.00  0.00    +0.030 A 
ATOM     13  C   UNL     1      -7.952 -10.267  -2.469  0.00  0.00    +0.040 A 
ATOM     14  C   UNL     1      -6.647 -10.475  -2.960  0.00  0.00    +0.125 A 
ATOM     15  C   UNL     1      -5.679  -9.535  -2.873  0.00  0.00    +0.065 A 
ATOM     16  C   UNL     1      -5.979  -8.243  -2.246  0.00  0.00    +0.063 A 
ATOM     17  N   UNL     1      -5.261  -7.176  -2.029  0.00  0.00    -0.362 N 
ATOM     18  F   UNL     1      -6.352 -11.659  -3.539  0.00  0.00    -0.205 F 
ATOM     19  H   UNL     1      -8.226  -6.437  -0.803  0.00  0.00    +0.162 HD
ATOM     20  H   UNL     1      -4.329  -7.052  -2.268  0.00  0.00    +0.162 HD
ENDBRANCH   8   9
ENDBRANCH   1   2
BRANCH   1  21
ATOM     21  C   UNL     1      -2.470  -2.273  -1.570  0.00  0.00    +0.035 C 
BRANCH  21  22
ATOM     22  C   UNL     1      -1.045  -1.717  -1.550  0.00  0.00    +0.039 C 
ATOM     23  C   UNL     1      -0.961  -0.424  -2.389  0.00  0.00    +0.035 C 
ATOM     24  C   UNL     1      -0.515  -0.969  -3.766  0.00  0.00    +0.098 C 
ATOM     25  C   UNL     1       0.188  -2.269  -3.439  0.00  0.00    +0.214 C 
ATOM     26  O   UNL     1       0.925  -2.868  -4.193  0.00  0.00    -0.276 OA
ATOM     27  N   UNL     1      -0.122  -2.661  -2.191  0.00  0.00    -0.309 N 
ATOM     28  H   UNL     1       0.220  -3.465  -1.769  0.00  0.00    +0.149 HD
BRANCH  22  29
ATOM     29  C   UNL     1      -0.605  -1.443  -0.110  0.00  0.00    +0.061 C 
BRANCH  29  35
ATOM     30  C   UNL     1       0.970   0.500  -0.183  0.00  0.00    +0.007 A 
ATOM     31  C   UNL     1       2.246   1.032  -0.184  0.00  0.00    +0.050 A 
ATOM     32  C   UNL     1       3.346   0.194  -0.114  0.00  0.00    +0.166 A 
ATOM     33  C   UNL     1       3.163  -1.185  -0.042  0.00  0.00    +0.166 A 
ATOM     34  C   UNL     1       1.882  -1.711  -0.041  0.00  0.00    +0.053 A 
ATOM     35  C   UNL     1       0.788  -0.869  -0.111  0.00  0.00    -0.042 A 
ATOM     36  O   UNL     1       4.388  -1.785   0.018  0.00  0.00    -0.453 OA
ATOM     37  C   UNL     1       5.326  -0.789  -0.430  0.00  0.00    +0.466 C 
ATOM     38  O   UNL     1       4.686   0.458  -0.099  0.00  0.00    -0.453 OA
ENDBRANCH  29  35
ENDBRANCH  22  29
ENDBRANCH  21  22
ENDBRANCH   1  21
TORSDOF 6
