REMARK  Name = ZINC38110329
REMARK  5 active torsions:
REMARK  status: ('A' for Active; 'I' for Inactive)
REMARK    1  A    between atoms: C_1  and  C_2
REMARK    2  A    between atoms: C_3  and  C_8
REMARK    3  A    between atoms: C_8  and  N_9
REMARK    4  A    between atoms: N_9  and  S_10
REMARK    5  A    between atoms: S_10  and  C_13
REMARK                            x       y       z     vdW  Elec       q    Type
REMARK                         _______ _______ _______ _____ _____    ______ ____
ROOT
ATOM      1  N   UNL     1       1.347   0.058  -2.960  0.00  0.00    -0.185 NA
ATOM      2  H   UNL     1       2.027   0.201  -2.284  0.00  0.00    +0.148 HD
ENDROOT
BRANCH   1   3
ATOM      3  S   UNL     1       1.714   0.268  -4.561  0.00  0.00    +0.062 S 
ATOM      4  O   UNL     1       3.074   0.676  -4.616  0.00  0.00    -0.153 OA
ATOM      5  O   UNL     1       1.237  -0.885  -5.242  0.00  0.00    -0.153 OA
BRANCH   3   6
ATOM      6  C   UNL     1       0.756   1.628  -5.142  0.00  0.00    +0.141 A 
ATOM      7  C   UNL     1      -0.510   1.430  -5.670  0.00  0.00    +0.144 A 
ATOM      8  N   UNL     1      -1.201   2.475  -6.096  0.00  0.00    -0.224 NA
ATOM      9  C   UNL     1      -0.698   3.693  -6.023  0.00  0.00    +0.223 A 
ATOM     10  N   UNL     1       0.503   3.918  -5.527  0.00  0.00    -0.224 NA
ATOM     11  C   UNL     1       1.249   2.922  -5.076  0.00  0.00    +0.144 A 
ATOM     12 CL   UNL     1      -1.641   5.033  -6.595  0.00  0.00    -0.041 Cl
ENDBRANCH   3   6
ENDBRANCH   1   3
BRANCH   1  13
ATOM     13  C   UNL     1      -0.006  -0.343  -2.566  0.00  0.00    +0.144 C 
BRANCH  13  16
ATOM     14  C   UNL     1      -0.018   1.503   0.010  0.00  0.00    +0.068 C 
ATOM     15  C   UNL     1       0.002  -0.004   0.002  0.00  0.00    +0.064 A 
ATOM     16  C   UNL     1       0.008  -0.818  -1.135  0.00  0.00    +0.008 A 
ATOM     17  C   UNL     1       0.028  -2.107  -0.725  0.00  0.00    +0.110 A 
ATOM     18  N   UNL     1       0.034  -2.109   0.625  0.00  0.00    -0.284 N 
ATOM     19  H   UNL     1       0.048  -2.894   1.194  0.00  0.00    +0.188 HD
ATOM     20  N   UNL     1       0.023  -0.777   1.058  0.00  0.00    -0.179 NA
ENDBRANCH  13  16
ENDBRANCH   1  13
TORSDOF 4
