REMARK  Name = ZINC34750031
REMARK  9 active torsions:
REMARK  status: ('A' for Active; 'I' for Inactive)
REMARK    1  A    between atoms: C_1  and  C_2
REMARK    2  A    between atoms: C_2  and  C_4
REMARK    3  A    between atoms: C_4  and  S_5
REMARK    4  A    between atoms: S_5  and  C_6
REMARK    5  A    between atoms: C_17  and  C_19
REMARK    6  A    between atoms: C_17  and  C_20
REMARK    7  A    between atoms: N_24  and  C_27
REMARK    8  A    between atoms: C_27  and  C_28
REMARK    9  A    between atoms: N_30  and  C_31
REMARK                            x       y       z     vdW  Elec       q    Type
REMARK                         _______ _______ _______ _____ _____    ______ ____
ROOT
ATOM      1  C   UNL     1      -1.173  -3.211  -3.748  0.00  0.00    +0.191 A 
ATOM      2  N   UNL     1      -2.242  -3.295  -4.532  0.00  0.00    -0.206 NA
ATOM      3  C   UNL     1      -2.497  -2.400  -5.471  0.00  0.00    +0.134 A 
ATOM      4  C   UNL     1      -1.603  -1.308  -5.654  0.00  0.00    +0.051 A 
ATOM      5  C   UNL     1      -1.680  -0.211  -6.617  0.00  0.00    -0.020 A 
ATOM      6  C   UNL     1      -0.692   0.709  -6.582  0.00  0.00    +0.021 A 
ATOM      7  S   UNL     1       0.385   0.179  -5.282  0.00  0.00    -0.071 S 
ATOM      8  C   UNL     1      -0.492  -1.282  -4.786  0.00  0.00    +0.115 A 
ATOM      9  N   UNL     1      -0.309  -2.212  -3.869  0.00  0.00    -0.215 NA
ATOM     10  C   UNL     1      -0.566   1.908  -7.471  0.00  0.00    +0.203 C 
ATOM     11  O   UNL     1      -1.484   1.746  -8.564  0.00  0.00    -0.368 OA
ATOM     12  C   UNL     1      -2.802   1.375  -8.151  0.00  0.00    +0.068 C 
ATOM     13  C   UNL     1      -2.807  -0.068  -7.638  0.00  0.00    +0.071 C 
ATOM     14  C   UNL     1      -3.266   2.313  -7.035  0.00  0.00    +0.041 C 
ATOM     15  C   UNL     1      -3.758   1.494  -9.340  0.00  0.00    +0.041 C 
ATOM     16  N   UNL     1      -3.621  -2.524  -6.268  0.00  0.00    -0.318 N 
ATOM     17  C   UNL     1      -3.546  -3.174  -7.585  0.00  0.00    +0.088 C 
ATOM     18  C   UNL     1      -4.654  -4.229  -7.670  0.00  0.00    -0.059 C 
ATOM     19  N   UNL     1      -5.949  -3.603  -7.376  0.00  0.00    +0.387 N 
ATOM     20  C   UNL     1      -5.968  -3.121  -5.989  0.00  0.00    -0.059 C 
ATOM     21  C   UNL     1      -4.926  -2.016  -5.819  0.00  0.00    +0.088 C 
ATOM     22  H   UNL     1      -6.095  -2.826  -8.003  0.00  0.00    -0.081 HD
ENDROOT
BRANCH   1  23
ATOM     23  S   UNL     1      -0.902  -4.444  -2.519  0.00  0.00    -0.082 S 
BRANCH  23  24
ATOM     24  C   UNL     1       0.633  -3.924  -1.706  0.00  0.00    +0.107 C 
BRANCH  24  26
ATOM     25  C   UNL     1       0.216  -4.901   0.678  0.00  0.00    +0.039 C 
ATOM     26  C   UNL     1       0.984  -4.907  -0.619  0.00  0.00    -0.069 C 
ATOM     27  C   UNL     1       1.956  -5.766  -0.801  0.00  0.00    +0.008 C 
ENDBRANCH  24  26
ENDBRANCH  23  24
ENDBRANCH   1  23
BRANCH  19  28
ATOM     28  C   UNL     1      -7.022  -4.588  -7.565  0.00  0.00    +0.019 C 
BRANCH  28  29
ATOM     29  C   UNL     1      -8.358  -3.917  -7.384  0.00  0.00    +0.197 C 
ATOM     30  O   UNL     1      -8.412  -2.733  -7.123  0.00  0.00    -0.278 OA
ATOM     31  N   UNL     1      -9.494  -4.631  -7.511  0.00  0.00    -0.314 N 
ATOM     32  H   UNL     1      -9.451  -5.577  -7.720  0.00  0.00    +0.149 HD
BRANCH  31  33
ATOM     33  C   UNL     1     -10.794  -3.978  -7.335  0.00  0.00    +0.073 C 
ATOM     34  C   UNL     1     -11.152  -3.949  -5.848  0.00  0.00    +0.022 C 
ATOM     35  C   UNL     1     -12.509  -3.267  -5.664  0.00  0.00    +0.002 C 
ATOM     36  C   UNL     1     -13.580  -4.045  -6.431  0.00  0.00    +0.000 C 
ATOM     37  C   UNL     1     -13.221  -4.074  -7.918  0.00  0.00    +0.002 C 
ATOM     38  C   UNL     1     -11.864  -4.756  -8.102  0.00  0.00    +0.022 C 
ENDBRANCH  31  33
ENDBRANCH  28  29
ENDBRANCH  19  28
TORSDOF 6
