REMARK  Name = ZINC31829209
REMARK  10 active torsions:
REMARK  status: ('A' for Active; 'I' for Inactive)
REMARK    1  A    between atoms: C_1  and  C_2
REMARK    2  A    between atoms: C_5  and  C_8
REMARK    3  A    between atoms: C_9  and  N_26
REMARK    4  A    between atoms: N_13  and  N_14
REMARK    5  A    between atoms: C_15  and  C_16
REMARK    6  A    between atoms: C_19  and  C_22
REMARK    7  A    between atoms: C_22  and  C_23
REMARK    8  A    between atoms: C_22  and  C_24
REMARK    9  A    between atoms: C_22  and  C_25
REMARK   10  A    between atoms: C_27  and  C_29
REMARK                            x       y       z     vdW  Elec       q    Type
REMARK                         _______ _______ _______ _____ _____    ______ ____
ROOT
ATOM      1  C   UNL     1      -1.042   2.291  -0.921  0.00  0.00    +0.102 A 
ATOM      2  C   UNL     1      -0.123   1.447  -0.344  0.00  0.00    +0.101 A 
ATOM      3  S   UNL     1       1.201   2.593   0.018  0.00  0.00    -0.035 S 
ATOM      4  C   UNL     1       0.409   4.063  -0.617  0.00  0.00    +0.180 A 
ATOM      5  N   UNL     1      -0.748   3.585  -1.035  0.00  0.00    -0.222 NA
ATOM      6  N   UNL     1       0.885   5.364  -0.659  0.00  0.00    -0.215 N 
ATOM      7  H   UNL     1       0.263   6.163  -1.090  0.00  0.00    +0.176 HD
ENDROOT
BRANCH   1  12
ATOM      8  C   UNL     1      -6.095   0.268  -2.796  0.00  0.00    +0.044 C 
ATOM      9  C   UNL     1      -4.772   0.798  -2.305  0.00  0.00    -0.050 A 
ATOM     10  C   UNL     1      -4.699   2.064  -1.752  0.00  0.00    +0.004 A 
ATOM     11  C   UNL     1      -3.491   2.554  -1.300  0.00  0.00    +0.010 A 
ATOM     12  C   UNL     1      -2.342   1.771  -1.403  0.00  0.00    +0.003 A 
ATOM     13  C   UNL     1      -2.421   0.497  -1.966  0.00  0.00    +0.010 A 
ATOM     14  C   UNL     1      -3.636   0.016  -2.409  0.00  0.00    +0.004 A 
ENDBRANCH   1  12
BRANCH   2  15
ATOM     15  N   UNL     1      -0.199   0.075  -0.113  0.00  0.00    -0.274 N 
ATOM     16  C   UNL     1       0.833  -0.569   0.468  0.00  0.00    +0.249 C 
ATOM     17  O   UNL     1       1.830   0.048   0.790  0.00  0.00    -0.270 OA
ATOM     18  H   UNL     1      -1.102  -0.483  -0.404  0.00  0.00    +0.156 HD
BRANCH  16  19
ATOM     19  C   UNL     1       0.751  -2.023   0.714  0.00  0.00    +0.037 A 
ATOM     20  C   UNL     1      -0.395  -2.732   0.351  0.00  0.00    +0.016 A 
ATOM     21  C   UNL     1      -0.463  -4.090   0.578  0.00  0.00    +0.039 A 
ATOM     22  C   UNL     1       0.600  -4.750   1.175  0.00  0.00    +0.123 A 
ATOM     23  C   UNL     1       1.738  -4.050   1.544  0.00  0.00    +0.039 A 
ATOM     24  C   UNL     1       1.819  -2.692   1.316  0.00  0.00    +0.016 A 
ATOM     25  F   UNL     1       0.526  -6.080   1.400  0.00  0.00    -0.205 F 
ENDBRANCH  16  19
ENDBRANCH   2  15
BRANCH   6  26
ATOM     26  N   UNL     1       2.157   5.661  -0.155  0.00  0.00    -0.188 NA
ATOM     27  C   UNL     1       2.557   6.895  -0.086  0.00  0.00    +0.138 C 
BRANCH  27  28
ATOM     28  C   UNL     1       1.569   7.990  -0.072  0.00  0.00    -0.005 A 
ATOM     29  C   UNL     1       1.981   9.309  -0.274  0.00  0.00    +0.010 A 
ATOM     30  C   UNL     1       1.051  10.328  -0.264  0.00  0.00    +0.005 A 
ATOM     31  C   UNL     1      -0.286  10.046  -0.045  0.00  0.00    -0.042 A 
ATOM     32  C   UNL     1      -0.701   8.742   0.161  0.00  0.00    +0.005 A 
ATOM     33  C   UNL     1       0.217   7.713   0.149  0.00  0.00    +0.010 A 
BRANCH  31  34
ATOM     34  C   UNL     1      -1.295  11.165  -0.030  0.00  0.00    -0.013 C 
ATOM     35  C   UNL     1      -1.990  11.207   1.332  0.00  0.00    +0.015 C 
ATOM     36  C   UNL     1      -0.584  12.497  -0.281  0.00  0.00    +0.015 C 
ATOM     37  C   UNL     1      -2.336  10.928  -1.127  0.00  0.00    +0.015 C 
ENDBRANCH  31  34
ENDBRANCH  27  28
ENDBRANCH   6  26
TORSDOF 6
