REMARK  Name = ZINC63908199
REMARK  10 active torsions:
REMARK  status: ('A' for Active; 'I' for Inactive)
REMARK    1  A    between atoms: C_1  and  N_2
REMARK    2  A    between atoms: N_2  and  C_3
REMARK    3  A    between atoms: N_2  and  C_4
REMARK    4  A    between atoms: C_4  and  C_6
REMARK    5  A    between atoms: C_4  and  C_32
REMARK    6  A    between atoms: C_6  and  N_7
REMARK    7  A    between atoms: C_8  and  C_10
REMARK    8  A    between atoms: C_13  and  S_21
REMARK    9  A    between atoms: S_21  and  N_24
REMARK   10  A    between atoms: N_24  and  C_25
REMARK                            x       y       z     vdW  Elec       q    Type
REMARK                         _______ _______ _______ _____ _____    ______ ____
ROOT
ATOM      1  C   UNL     1       0.457  -5.650   2.627  0.00  0.00    +0.032 C 
ATOM      2  C   UNL     1       0.367  -7.015   2.805  0.00  0.00    +0.007 A 
ATOM      3  C   UNL     1      -0.546  -7.822   1.996  0.00  0.00    +0.039 A 
ATOM      4  C   UNL     1      -0.598  -9.160   2.209  0.00  0.00    +0.109 A 
ATOM      5  C   UNL     1       0.199  -9.778   3.180  0.00  0.00    +0.030 A 
ATOM      6  C   UNL     1       1.065  -9.090   3.963  0.00  0.00    +0.026 A 
ATOM      7  C   UNL     1       1.198  -7.691   3.824  0.00  0.00    +0.041 A 
ATOM      8  N   UNL     1       2.047  -7.025   4.593  0.00  0.00    -0.285 N 
ATOM      9  C   UNL     1       2.223  -5.711   4.517  0.00  0.00    +0.222 C 
ATOM     10  O   UNL     1       3.020  -5.161   5.252  0.00  0.00    -0.275 OA
ATOM     11  C   UNL     1       1.438  -4.902   3.510  0.00  0.00    +0.137 C 
ATOM     12  H   UNL     1       2.567  -7.522   5.244  0.00  0.00    +0.155 HD
ENDROOT
BRANCH   1  14
ATOM     13  N   UNL     1      -0.161  -3.637   1.380  0.00  0.00    -0.313 N 
ATOM     14  C   UNL     1      -0.361  -4.949   1.617  0.00  0.00    +0.241 C 
ATOM     15  O   UNL     1      -1.215  -5.554   1.000  0.00  0.00    -0.271 OA
ATOM     16  H   UNL     1       0.521  -3.154   1.872  0.00  0.00    +0.149 HD
BRANCH  13  17
ATOM     17  C   UNL     1      -0.973  -2.942   0.378  0.00  0.00    +0.097 C 
BRANCH  17  18
ATOM     18  C   UNL     1      -0.635  -1.450   0.394  0.00  0.00    +0.016 C 
BRANCH  18  19
ATOM     19  C   UNL     1       0.788  -1.252  -0.060  0.00  0.00    +0.093 A 
ATOM     20  C   UNL     1       1.175  -0.868  -1.290  0.00  0.00    +0.043 A 
ATOM     21  C   UNL     1       2.588  -0.810  -1.276  0.00  0.00    +0.041 A 
ATOM     22  C   UNL     1       2.980  -1.162  -0.038  0.00  0.00    +0.195 A 
ATOM     23  O   UNL     1       1.885  -1.422   0.696  0.00  0.00    -0.469 OA
ENDBRANCH  18  19
BRANCH  18  25
ATOM     24  C   UNL     1      -0.557   0.523   1.757  0.00  0.00    -0.096 C 
ATOM     25  N   UNL     1      -0.790  -0.927   1.758  0.00  0.00    +0.384 N 
ATOM     26  C   UNL     1      -2.152  -1.204   2.236  0.00  0.00    -0.096 C 
ATOM     27  H   UNL     1      -0.123  -1.375   2.368  0.00  0.00    -0.082 HD
ENDBRANCH  18  25
ENDBRANCH  17  18
ENDBRANCH  13  17
ENDBRANCH   1  14
BRANCH   4  28
ATOM     28  S   UNL     1      -1.694 -10.144   1.241  0.00  0.00    +0.072 S 
ATOM     29  O   UNL     1      -2.062 -11.255   2.047  0.00  0.00    -0.150 OA
ATOM     30  O   UNL     1      -2.654  -9.255   0.685  0.00  0.00    -0.150 OA
BRANCH  28  31
ATOM     31  N   UNL     1      -0.819 -10.749  -0.027  0.00  0.00    -0.216 N 
ATOM     32  H   UNL     1      -0.709 -11.707  -0.128  0.00  0.00    +0.174 HD
BRANCH  31  33
ATOM     33  C   UNL     1      -0.237  -9.878  -0.954  0.00  0.00    +0.048 A 
ATOM     34  C   UNL     1      -0.975  -8.823  -1.475  0.00  0.00    +0.027 A 
ATOM     35  C   UNL     1      -0.399  -7.964  -2.389  0.00  0.00    +0.040 A 
ATOM     36  C   UNL     1       0.914  -8.153  -2.788  0.00  0.00    +0.124 A 
ATOM     37  C   UNL     1       1.651  -9.205  -2.270  0.00  0.00    +0.040 A 
ATOM     38  C   UNL     1       1.081 -10.063  -1.351  0.00  0.00    +0.027 A 
ATOM     39  F   UNL     1       1.476  -7.312  -3.683  0.00  0.00    -0.205 F 
ENDBRANCH  31  33
ENDBRANCH  28  31
ENDBRANCH   4  28
TORSDOF 8
