REMARK  Name = ZINC63165295
REMARK  9 active torsions:
REMARK  status: ('A' for Active; 'I' for Inactive)
REMARK    1  A    between atoms: C_1  and  C_2
REMARK    2  A    between atoms: C_2  and  O_3
REMARK    3  A    between atoms: O_3  and  C_4
REMARK    4  A    between atoms: C_7  and  N_10
REMARK    5  A    between atoms: C_11  and  C_28
REMARK    6  A    between atoms: C_15  and  S_17
REMARK    7  A    between atoms: S_17  and  C_18
REMARK    8  A    between atoms: C_18  and  C_19
REMARK    9  A    between atoms: C_32  and  C_34
REMARK                            x       y       z     vdW  Elec       q    Type
REMARK                         _______ _______ _______ _____ _____    ______ ____
ROOT
ATOM      1  N   UNL     1       2.232  -5.428  -2.550  0.00  0.00    -0.284 N 
ATOM      2  C   UNL     1       1.470  -6.627  -2.943  0.00  0.00    +0.188 C 
ATOM      3  N   UNL     1       0.644  -7.004  -1.774  0.00  0.00    -0.230 NA
ATOM      4  N   UNL     1       1.348  -6.418  -0.623  0.00  0.00    -0.226 NA
ATOM      5  C   UNL     1       1.846  -5.125  -1.156  0.00  0.00    +0.217 C 
ATOM      6  H   UNL     1      -0.290  -6.630  -1.855  0.00  0.00    +0.143 HD
ATOM      7  H   UNL     1       0.717  -6.272   0.151  0.00  0.00    +0.143 HD
ENDROOT
BRANCH   2   8
ATOM      8  C   UNL     1       0.586  -6.313  -4.122  0.00  0.00    -0.011 A 
ATOM      9  C   UNL     1      -0.469  -5.432  -3.979  0.00  0.00    +0.007 A 
ATOM     10  C   UNL     1      -1.280  -5.144  -5.061  0.00  0.00    +0.001 A 
ATOM     11  C   UNL     1      -1.036  -5.737  -6.286  0.00  0.00    +0.003 A 
ATOM     12  C   UNL     1       0.020  -6.618  -6.428  0.00  0.00    -0.050 A 
ATOM     13  C   UNL     1       0.834  -6.902  -5.348  0.00  0.00    +0.010 A 
ATOM     14  C   UNL     1       0.287  -7.265  -7.763  0.00  0.00    +0.044 C 
ENDBRANCH   2   8
BRANCH   1  18
ATOM     15  C   UNL     1       4.952  -3.318  -4.899  0.00  0.00    +0.121 A 
ATOM     16  C   UNL     1       4.606  -2.842  -3.644  0.00  0.00    +0.047 A 
ATOM     17  C   UNL     1       3.704  -3.540  -2.865  0.00  0.00    +0.027 A 
ATOM     18  C   UNL     1       3.145  -4.720  -3.338  0.00  0.00    +0.033 A 
ATOM     19  C   UNL     1       3.493  -5.196  -4.596  0.00  0.00    +0.027 A 
ATOM     20  C   UNL     1       4.390  -4.493  -5.376  0.00  0.00    +0.047 A 
BRANCH  15  21
ATOM     21  O   UNL     1       5.840  -2.630  -5.666  0.00  0.00    -0.492 OA
BRANCH  21  23
ATOM     22  C   UNL     1       7.352  -0.798  -6.112  0.00  0.00    +0.048 C 
ATOM     23  C   UNL     1       6.380  -1.429  -5.112  0.00  0.00    +0.225 C 
ENDBRANCH  21  23
ENDBRANCH  15  21
ENDBRANCH   1  18
BRANCH   5  24
ATOM     24  S   UNL     1       0.528  -3.879  -1.119  0.00  0.00    -0.118 S 
BRANCH  24  25
ATOM     25  C   UNL     1       0.716  -3.090   0.503  0.00  0.00    +0.119 C 
BRANCH  25  26
ATOM     26  C   UNL     1      -0.264  -1.920   0.618  0.00  0.00    +0.184 C 
ATOM     27  N   UNL     1      -1.638  -2.390   0.400  0.00  0.00    -0.363 N 
ATOM     28  C   UNL     1      -2.106  -1.760  -0.639  0.00  0.00    +0.060 A 
ATOM     29  C   UNL     1      -3.400  -1.802  -1.333  0.00  0.00    +0.027 A 
ATOM     30  C   UNL     1      -3.603  -1.016  -2.409  0.00  0.00    +0.002 A 
ATOM     31  C   UNL     1      -2.619  -0.144  -2.908  0.00  0.00    +0.002 A 
ATOM     32  C   UNL     1      -1.399  -0.028  -2.347  0.00  0.00    +0.027 A 
ATOM     33  C   UNL     1      -1.064  -0.837  -1.166  0.00  0.00    +0.060 A 
ATOM     34  N   UNL     1       0.007  -0.931  -0.433  0.00  0.00    -0.363 N 
ATOM     35  H   UNL     1      -2.110  -3.049   0.932  0.00  0.00    +0.162 HD
ATOM     36  H   UNL     1       0.834  -0.439  -0.558  0.00  0.00    +0.162 HD
ENDBRANCH  25  26
ENDBRANCH  24  25
ENDBRANCH   5  24
TORSDOF 7
