REMARK  Name = ZINC66329809
REMARK  7 active torsions:
REMARK  status: ('A' for Active; 'I' for Inactive)
REMARK    1  A    between atoms: C_1  and  C_2
REMARK    2  A    between atoms: C_2  and  C_4
REMARK    3  A    between atoms: C_2  and  N_21
REMARK    4  A    between atoms: C_4  and  C_5
REMARK    5  A    between atoms: N_7  and  C_8
REMARK    6  A    between atoms: C_11  and  N_15
REMARK    7  A    between atoms: C_22  and  C_24
REMARK                            x       y       z     vdW  Elec       q    Type
REMARK                         _______ _______ _______ _____ _____    ______ ____
ROOT
ATOM      1  C   UNL     1       0.702  -2.026  -1.288  0.00  0.00    +0.219 C 
ATOM      2  O   UNL     1       0.136  -2.666  -0.427  0.00  0.00    -0.275 OA
ATOM      3  N   UNL     1       1.449  -2.657  -2.215  0.00  0.00    -0.285 N 
ATOM      4  H   UNL     1       1.839  -2.155  -2.948  0.00  0.00    +0.155 HD
ENDROOT
BRANCH   3   5
ATOM      5  C   UNL     1       1.663  -4.039  -2.121  0.00  0.00    +0.039 A 
ATOM      6  C   UNL     1       1.788  -4.802  -3.274  0.00  0.00    +0.063 A 
ATOM      7  C   UNL     1       1.999  -6.166  -3.182  0.00  0.00    +0.149 A 
ATOM      8  C   UNL     1       2.087  -6.772  -1.934  0.00  0.00    +0.101 A 
ATOM      9  C   UNL     1       1.962  -6.007  -0.780  0.00  0.00    +0.149 A 
ATOM     10  C   UNL     1       1.756  -4.643  -0.874  0.00  0.00    +0.063 A 
ATOM     11  F   UNL     1       2.047  -6.596   0.433  0.00  0.00    -0.203 F 
ATOM     12  F   UNL     1       2.120  -6.909  -4.304  0.00  0.00    -0.203 F 
BRANCH   8  13
ATOM     13  N   UNL     1       2.301  -8.155  -1.839  0.00  0.00    -0.325 N 
ATOM     14  C   UNL     1       1.251  -9.183  -1.794  0.00  0.00    +0.105 C 
ATOM     15  C   UNL     1       1.955 -10.551  -1.664  0.00  0.00    +0.020 C 
ATOM     16  C   UNL     1       3.340 -10.174  -1.074  0.00  0.00    +0.020 C 
ATOM     17  C   UNL     1       3.616  -8.818  -1.776  0.00  0.00    +0.105 C 
ENDBRANCH   8  13
ENDBRANCH   3   5
BRANCH   1  18
ATOM     18  C   UNL     1       0.570  -0.525  -1.321  0.00  0.00    +0.118 C 
BRANCH  18  20
ATOM     19  C   UNL     1      -0.360   1.462  -0.126  0.00  0.00    +0.028 C 
ATOM     20  C   UNL     1      -0.326  -0.067  -0.168  0.00  0.00    +0.079 C 
BRANCH  20  21
ATOM     21  N   UNL     1      -1.683  -0.580  -0.370  0.00  0.00    -0.312 N 
ATOM     22  C   UNL     1      -2.500  -0.756   0.687  0.00  0.00    +0.216 C 
ATOM     23  O   UNL     1      -2.112  -0.490   1.805  0.00  0.00    -0.276 OA
ATOM     24  H   UNL     1      -1.993  -0.793  -1.264  0.00  0.00    +0.149 HD
BRANCH  22  25
ATOM     25  C   UNL     1      -3.897  -1.284   0.480  0.00  0.00    +0.075 C 
ATOM     26  C   UNL     1      -4.672  -0.332  -0.432  0.00  0.00    +0.013 C 
ATOM     27  C   UNL     1      -6.089  -0.868  -0.643  0.00  0.00    +0.001 C 
ATOM     28  C   UNL     1      -6.801  -0.973   0.708  0.00  0.00    +0.000 C 
ATOM     29  C   UNL     1      -6.025  -1.925   1.620  0.00  0.00    +0.001 C 
ATOM     30  C   UNL     1      -4.608  -1.389   1.831  0.00  0.00    +0.013 C 
ENDBRANCH  22  25
ENDBRANCH  20  21
ENDBRANCH  18  20
ENDBRANCH   1  18
TORSDOF 6
