REMARK  Name = ZINC47167380
REMARK  8 active torsions:
REMARK  status: ('A' for Active; 'I' for Inactive)
REMARK    1  A    between atoms: C_1  and  C_2
REMARK    2  A    between atoms: C_5  and  C_8
REMARK    3  A    between atoms: C_11  and  C_13
REMARK    4  A    between atoms: C_13  and  C_14
REMARK    5  A    between atoms: C_14  and  C_15
REMARK    6  A    between atoms: N_17  and  C_18
REMARK    7  A    between atoms: C_22  and  C_24
REMARK    8  A    between atoms: C_24  and  C_31
REMARK                            x       y       z     vdW  Elec       q    Type
REMARK                         _______ _______ _______ _____ _____    ______ ____
ROOT
ATOM      1  C   UNL     1       1.566  -9.182   2.658  0.00  0.00    +0.218 C 
ATOM      2  O   UNL     1       0.522  -9.687   3.015  0.00  0.00    -0.275 OA
ATOM      3  N   UNL     1       2.740  -9.717   3.047  0.00  0.00    -0.285 N 
ATOM      4  H   UNL     1       3.574  -9.356   2.708  0.00  0.00    +0.155 HD
ENDROOT
BRANCH   3   5
ATOM      5  C   UNL     1       2.757 -10.795   3.940  0.00  0.00    +0.034 A 
ATOM      6  C   UNL     1       1.760 -11.760   3.884  0.00  0.00    +0.023 A 
ATOM      7  C   UNL     1       1.779 -12.822   4.767  0.00  0.00    +0.002 A 
ATOM      8  C   UNL     1       2.789 -12.924   5.707  0.00  0.00    +0.006 A 
ATOM      9  C   UNL     1       3.782 -11.964   5.765  0.00  0.00    -0.014 A 
ATOM     10  C   UNL     1       3.772 -10.903   4.881  0.00  0.00    +0.029 A 
BRANCH   9  11
ATOM     11  C   UNL     1       4.880 -12.079   6.791  0.00  0.00    +0.135 C 
ATOM     12  C   UNL     1       6.217 -12.313   6.117  0.00  0.00    +0.248 C 
ATOM     13  O   UNL     1       6.784 -11.577   5.338  0.00  0.00    -0.273 OA
ATOM     14  N   UNL     1       6.646 -13.510   6.564  0.00  0.00    -0.238 N 
ATOM     15  C   UNL     1       5.775 -14.059   7.418  0.00  0.00    +0.307 C 
ATOM     16  O   UNL     1       5.942 -15.137   7.954  0.00  0.00    -0.252 OA
ATOM     17  N   UNL     1       4.693 -13.284   7.617  0.00  0.00    -0.282 N 
ATOM     18  C   UNL     1       4.928 -10.827   7.669  0.00  0.00    +0.047 C 
ATOM     19  H   UNL     1       7.483 -13.923   6.298  0.00  0.00    +0.159 HD
ATOM     20  H   UNL     1       3.938 -13.481   8.193  0.00  0.00    +0.152 HD
ENDBRANCH   9  11
ENDBRANCH   3   5
BRANCH   1  21
ATOM     21  C   UNL     1       1.550  -7.958   1.780  0.00  0.00    +0.105 C 
BRANCH  21  22
ATOM     22  C   UNL     1       0.102  -7.559   1.487  0.00  0.00    +0.105 C 
BRANCH  22  26
ATOM     23  C   UNL     1       0.062  -4.261  -0.043  0.00  0.00    +0.155 A 
ATOM     24  C   UNL     1       0.067  -5.071  -1.133  0.00  0.00    +0.161 A 
ATOM     25  N   UNL     1       0.082  -6.338  -0.695  0.00  0.00    -0.221 NA
ATOM     26  C   UNL     1       0.086  -6.335   0.609  0.00  0.00    +0.197 A 
ATOM     27  O   UNL     1       0.079  -5.066   1.042  0.00  0.00    -0.440 OA
BRANCH  23  32
ATOM     28  C   UNL     1      -0.000   1.493  -0.042  0.00  0.00    +0.044 C 
ATOM     29  C   UNL     1       0.016  -0.014  -0.042  0.00  0.00    -0.050 A 
ATOM     30  C   UNL     1       0.014  -0.703  -1.242  0.00  0.00    +0.004 A 
ATOM     31  C   UNL     1       0.029  -2.082  -1.249  0.00  0.00    +0.012 A 
ATOM     32  C   UNL     1       0.046  -2.783  -0.043  0.00  0.00    +0.019 A 
ATOM     33  C   UNL     1       0.049  -2.082   1.165  0.00  0.00    +0.012 A 
ATOM     34  C   UNL     1       0.039  -0.703   1.157  0.00  0.00    +0.004 A 
ENDBRANCH  23  32
ENDBRANCH  22  26
ENDBRANCH  21  22
ENDBRANCH   1  21
TORSDOF 6
