REMARK  Name = ZINC49600050
REMARK  16 active torsions:
REMARK  status: ('A' for Active; 'I' for Inactive)
REMARK    1  A    between atoms: C_1  and  C_2
REMARK    2  A    between atoms: C_3  and  O_32
REMARK    3  A    between atoms: C_8  and  C_9
REMARK    4  A    between atoms: C_9  and  C_31
REMARK    5  A    between atoms: C_10  and  C_11
REMARK    6  A    between atoms: C_11  and  C_12
REMARK    7  A    between atoms: C_11  and  C_13
REMARK    8  A    between atoms: C_11  and  O_30
REMARK    9  A    between atoms: C_13  and  C_15
REMARK   10  A    between atoms: C_13  and  O_29
REMARK   11  A    between atoms: C_15  and  C_28
REMARK   12  A    between atoms: C_16  and  C_17
REMARK   13  A    between atoms: C_17  and  C_27
REMARK   14  A    between atoms: C_20  and  C_26
REMARK   15  A    between atoms: C_22  and  C_25
REMARK   16  A    between atoms: O_32  and  C_33
REMARK                            x       y       z     vdW  Elec       q    Type
REMARK                         _______ _______ _______ _____ _____    ______ ____
ROOT
ATOM      1  C   UNL     1      -0.424   1.344   4.592  0.00  0.00    +0.111 C 
ATOM      2  C   UNL     1      -0.076   0.432   3.414  0.00  0.00    +0.049 C 
ENDROOT
BRANCH   1   4
ATOM      3  C   UNL     1      -0.618   3.650   3.758  0.00  0.00    -0.009 C 
ATOM      4  C   UNL     1      -1.230   2.518   4.096  0.00  0.00    +0.017 C 
ATOM      5  C   UNL     1       0.887   3.707   3.709  0.00  0.00    +0.047 C 
BRANCH   3  13
ATOM      6  C   UNL     1      -2.353   3.584   1.503  0.00  0.00    +0.051 C 
ATOM      7  C   UNL     1      -2.244   4.823   2.353  0.00  0.00    +0.034 A 
ATOM      8  C   UNL     1      -3.007   5.963   2.041  0.00  0.00    +0.133 A 
ATOM      9  C   UNL     1      -2.885   7.088   2.842  0.00  0.00    +0.138 A 
ATOM     10  C   UNL     1      -2.009   7.055   3.933  0.00  0.00    +0.341 A 
ATOM     11  O   UNL     1      -1.891   8.037   4.647  0.00  0.00    -0.245 OA
ATOM     12  O   UNL     1      -1.297   5.945   4.197  0.00  0.00    -0.422 OA
ATOM     13  C   UNL     1      -1.409   4.844   3.431  0.00  0.00    +0.141 A 
BRANCH   8  14
ATOM     14  O   UNL     1      -3.845   5.963   0.978  0.00  0.00    -0.494 OA
ATOM     15  C   UNL     1      -4.583   7.162   0.732  0.00  0.00    +0.277 C 
ENDBRANCH   8  14
ENDBRANCH   3  13
ENDBRANCH   1   4
BRANCH   1  16
ATOM     16  O   UNL     1       0.779   1.816   5.202  0.00  0.00    -0.382 OA
ATOM     17  H   UNL     1       0.633   2.389   5.967  0.00  0.00    +0.211 HD
ENDBRANCH   1  16
BRANCH   1  18
ATOM     18  C   UNL     1      -1.244   0.560   5.619  0.00  0.00    +0.175 C 
BRANCH  18  19
ATOM     19  C   UNL     1      -1.609   1.466   6.767  0.00  0.00    -0.043 C 
ATOM     20  C   UNL     1      -2.853   1.839   6.937  0.00  0.00    +0.011 C 
ATOM     21  C   UNL     1      -0.543   1.942   7.720  0.00  0.00    +0.041 C 
BRANCH  20  22
ATOM     22  C   UNL     1      -3.192   2.887   7.965  0.00  0.00    +0.114 C 
ATOM     23  C   UNL     1      -4.090   3.979   7.345  0.00  0.00    +0.189 C 
ATOM     24  C   UNL     1      -3.601   5.288   8.004  0.00  0.00    +0.122 C 
ATOM     25  O   UNL     1      -4.937   4.729   8.219  0.00  0.00    -0.359 OA
ATOM     26  C   UNL     1      -2.464   4.831   8.945  0.00  0.00    +0.151 C 
ATOM     27  O   UNL     1      -1.998   3.584   8.384  0.00  0.00    -0.361 OA
ATOM     28  C   UNL     1      -1.336   5.865   8.959  0.00  0.00    +0.041 C 
ATOM     29  C   UNL     1      -3.426   6.595   7.228  0.00  0.00    +0.047 C 
ATOM     30  C   UNL     1      -3.884   2.245   9.170  0.00  0.00    +0.049 C 
ENDBRANCH  20  22
ENDBRANCH  18  19
BRANCH  18  31
ATOM     31  O   UNL     1      -0.471  -0.539   6.106  0.00  0.00    -0.384 OA
ATOM     32  H   UNL     1       0.354  -0.278   6.538  0.00  0.00    +0.210 HD
ENDBRANCH  18  31
ENDBRANCH   1  18
TORSDOF 8
