REMARK  Name = ZINC46022190
REMARK  10 active torsions:
REMARK  status: ('A' for Active; 'I' for Inactive)
REMARK    1  A    between atoms: C_1  and  C_2
REMARK    2  A    between atoms: C_2  and  C_3
REMARK    3  A    between atoms: C_2  and  C_4
REMARK    4  A    between atoms: C_2  and  N_5
REMARK    5  A    between atoms: C_6  and  C_8
REMARK    6  A    between atoms: C_8  and  N_9
REMARK    7  A    between atoms: N_16  and  C_17
REMARK    8  A    between atoms: C_21  and  C_23
REMARK    9  A    between atoms: N_26  and  C_27
REMARK   10  A    between atoms: C_27  and  C_28
REMARK                            x       y       z     vdW  Elec       q    Type
REMARK                         _______ _______ _______ _____ _____    ______ ____
ROOT
ATOM      1  N   UNL     1       3.834  -0.581  -4.061  0.00  0.00    -0.291 NA
ATOM      2  C   UNL     1       3.789   0.871  -3.841  0.00  0.00    +0.104 C 
ATOM      3  C   UNL     1       5.120   1.335  -3.240  0.00  0.00    +0.123 C 
ATOM      4  N   UNL     1       6.212   0.872  -4.111  0.00  0.00    -0.301 N 
ATOM      5  C   UNL     1       6.245  -0.549  -4.489  0.00  0.00    +0.123 C 
ATOM      6  C   UNL     1       4.870  -0.939  -5.040  0.00  0.00    +0.104 C 
ATOM      7  C   UNL     1       7.173   1.742  -4.559  0.00  0.00    +0.183 C 
ATOM      8  N   UNL     1       8.425   1.353  -4.641  0.00  0.00    -0.219 NA
ATOM      9  N   UNL     1       6.827   3.020  -4.920  0.00  0.00    -0.314 N 
ATOM     10  H   UNL     1       5.917   3.331  -4.793  0.00  0.00    +0.149 HD
ENDROOT
BRANCH   8  11
ATOM     11  C   UNL     1       8.799   0.139  -4.128  0.00  0.00    +0.068 A 
ATOM     12  C   UNL     1       8.591  -0.145  -2.776  0.00  0.00    +0.028 A 
ATOM     13  C   UNL     1       8.968  -1.368  -2.257  0.00  0.00    +0.003 A 
ATOM     14  C   UNL     1       9.552  -2.319  -3.070  0.00  0.00    +0.015 A 
ATOM     15  C   UNL     1       9.767  -2.050  -4.424  0.00  0.00    +0.065 A 
ATOM     16  C   UNL     1       9.383  -0.818  -4.956  0.00  0.00    +0.043 A 
BRANCH  15  17
ATOM     17  C   UNL     1      10.392  -3.067  -5.291  0.00  0.00    +0.387 C 
ATOM     18  O   UNL     1      10.723  -4.148  -4.825  0.00  0.00    -0.241 OA
ATOM     19  O   UNL     1      10.579  -2.829  -6.476  0.00  0.00    -0.241 OA
ENDBRANCH  15  17
ENDBRANCH   8  11
BRANCH   1  20
ATOM     20  C   UNL     1       2.521  -1.092  -4.474  0.00  0.00    +0.180 C 
BRANCH  20  22
ATOM     21  N   UNL     1       0.261  -1.326  -3.495  0.00  0.00    -0.310 N 
ATOM     22  C   UNL     1       1.538  -0.925  -3.343  0.00  0.00    +0.227 C 
ATOM     23  O   UNL     1       1.898  -0.428  -2.296  0.00  0.00    -0.274 OA
ATOM     24  H   UNL     1      -0.026  -1.723  -4.332  0.00  0.00    +0.149 HD
BRANCH  21  26
ATOM     25  C   UNL     1      -0.812   0.320  -2.039  0.00  0.00    +0.031 C 
ATOM     26  C   UNL     1      -0.694  -1.163  -2.396  0.00  0.00    +0.026 C 
ATOM     27  C   UNL     1      -0.203  -1.944  -1.174  0.00  0.00    +0.031 C 
ATOM     28  C   UNL     1      -2.062  -1.696  -2.825  0.00  0.00    +0.031 C 
ENDBRANCH  21  26
ENDBRANCH  20  22
ENDBRANCH   1  20
BRANCH   9  29
ATOM     29  C   UNL     1       7.832   3.915  -5.499  0.00  0.00    +0.135 C 
BRANCH  29  30
ATOM     30  C   UNL     1       7.191   5.269  -5.811  0.00  0.00    +0.135 C 
ATOM     31  C   UNL     1       8.210   6.178  -6.532  0.00  0.00    +0.035 C 
ATOM     32  C   UNL     1       7.921   7.565  -5.896  0.00  0.00    +0.031 C 
ATOM     33  C   UNL     1       7.540   7.154  -4.452  0.00  0.00    +0.160 C 
ATOM     34  O   UNL     1       6.814   5.920  -4.592  0.00  0.00    -0.375 OA
ENDBRANCH  29  30
ENDBRANCH   9  29
TORSDOF 7
