REMARK  Name = ZINC40000469
REMARK  9 active torsions:
REMARK  status: ('A' for Active; 'I' for Inactive)
REMARK    1  A    between atoms: C_1  and  C_2
REMARK    2  A    between atoms: C_2  and  S_3
REMARK    3  A    between atoms: S_3  and  C_4
REMARK    4  A    between atoms: C_10  and  C_28
REMARK    5  A    between atoms: C_12  and  C_17
REMARK    6  A    between atoms: C_17  and  C_19
REMARK    7  A    between atoms: C_31  and  N_34
REMARK    8  A    between atoms: N_34  and  C_35
REMARK    9  A    between atoms: N_34  and  C_36
REMARK                            x       y       z     vdW  Elec       q    Type
REMARK                         _______ _______ _______ _____ _____    ______ ____
ROOT
ATOM      1  C   UNL     1       1.912  -2.383  -1.431  0.00  0.00    +0.160 A 
ATOM      2  N   UNL     1       1.112  -2.989  -0.564  0.00  0.00    -0.133 NA
ATOM      3  N   UNL     1       0.909  -4.233  -0.601  0.00  0.00    -0.125 NA
ATOM      4  C   UNL     1       1.483  -5.011  -1.506  0.00  0.00    +0.192 A 
ATOM      5  S   UNL     1       2.423  -3.788  -2.416  0.00  0.00    -0.024 S 
ATOM      6  N   UNL     1       1.381  -6.383  -1.698  0.00  0.00    -0.230 N 
ATOM      7  C   UNL     1       0.567  -7.309  -0.901  0.00  0.00    +0.152 C 
ATOM      8  C   UNL     1       0.787  -8.681  -1.495  0.00  0.00    +0.080 C 
ATOM      9  C   UNL     1       1.647  -8.524  -2.529  0.00  0.00    +0.250 C 
ATOM     10  C   UNL     1       2.005  -7.098  -2.652  0.00  0.00    +0.293 C 
ATOM     11  O   UNL     1       2.756  -6.637  -3.489  0.00  0.00    -0.266 OA
ATOM     12  O   UNL     1       2.103  -9.518  -3.327  0.00  0.00    -0.282 OA
ENDROOT
BRANCH   7  13
ATOM     13  C   UNL     1      -0.889  -6.930  -0.993  0.00  0.00    -0.022 A 
ATOM     14  C   UNL     1      -1.398  -6.431  -2.178  0.00  0.00    +0.007 A 
ATOM     15  C   UNL     1      -2.732  -6.084  -2.265  0.00  0.00    +0.023 A 
ATOM     16  C   UNL     1      -3.562  -6.235  -1.161  0.00  0.00    +0.029 A 
ATOM     17  C   UNL     1      -3.047  -6.737   0.027  0.00  0.00    +0.023 A 
ATOM     18  C   UNL     1      -1.713  -7.088   0.106  0.00  0.00    +0.007 A 
BRANCH  16  19
ATOM     19  N   UNL     1      -4.911  -5.884  -1.247  0.00  0.00    -0.336 N 
ATOM     20  C   UNL     1      -5.422  -5.227  -2.452  0.00  0.00    +0.129 C 
ATOM     21  C   UNL     1      -5.815  -6.173  -0.130  0.00  0.00    +0.129 C 
ENDBRANCH  16  19
ENDBRANCH   7  13
BRANCH   8  22
ATOM     22  C   UNL     1       0.186  -9.938  -1.039  0.00  0.00    +0.230 C 
ATOM     23  O   UNL     1      -0.460 -10.620  -1.815  0.00  0.00    -0.283 OA
BRANCH  22  24
ATOM     24  C   UNL     1       0.363 -10.375   0.352  0.00  0.00    +0.176 A 
ATOM     25  C   UNL     1      -0.062 -11.564   0.860  0.00  0.00    +0.061 A 
ATOM     26  C   UNL     1       0.327 -11.564   2.269  0.00  0.00    +0.021 A 
ATOM     27  C   UNL     1       0.184 -12.476   3.318  0.00  0.00    +0.011 A 
ATOM     28  C   UNL     1       0.674 -12.166   4.556  0.00  0.00    +0.001 A 
ATOM     29  C   UNL     1       1.312 -10.952   4.776  0.00  0.00    +0.004 A 
ATOM     30  C   UNL     1       1.463 -10.040   3.754  0.00  0.00    +0.047 A 
ATOM     31  C   UNL     1       0.974 -10.333   2.487  0.00  0.00    +0.136 A 
ATOM     32  O   UNL     1       0.976  -9.661   1.319  0.00  0.00    -0.452 OA
ENDBRANCH  22  24
ENDBRANCH   8  22
BRANCH   1  33
ATOM     33  S   UNL     1       2.344  -0.681  -1.575  0.00  0.00    -0.097 S 
BRANCH  33  35
ATOM     34  C   UNL     1       1.722   1.621  -0.236  0.00  0.00    +0.016 C 
ATOM     35  C   UNL     1       1.433   0.119  -0.225  0.00  0.00    +0.073 C 
ENDBRANCH  33  35
ENDBRANCH   1  33
TORSDOF 6
