REMARK  Name = ZINC64871067
REMARK  6 active torsions:
REMARK  status: ('A' for Active; 'I' for Inactive)
REMARK    1  A    between atoms: C_1  and  C_2
REMARK    2  A    between atoms: C_2  and  C_3
REMARK    3  A    between atoms: C_6  and  C_9
REMARK    4  A    between atoms: C_12  and  C_16
REMARK    5  A    between atoms: N_26  and  C_29
REMARK    6  A    between atoms: C_29  and  C_30
REMARK                            x       y       z     vdW  Elec       q    Type
REMARK                         _______ _______ _______ _____ _____    ______ ____
ROOT
ATOM      1  C   UNL     1       2.779  -3.923   7.483  0.00  0.00    -0.000 A 
ATOM      2  C   UNL     1       2.592  -2.741   8.184  0.00  0.00    +0.008 A 
ATOM      3  C   UNL     1       2.584  -2.742   9.563  0.00  0.00    +0.016 A 
ATOM      4  C   UNL     1       2.764  -3.940  10.250  0.00  0.00    +0.063 A 
ATOM      5  C   UNL     1       2.953  -5.137   9.538  0.00  0.00    +0.056 A 
ATOM      6  C   UNL     1       2.953  -5.118   8.151  0.00  0.00    +0.034 A 
ATOM      7  N   UNL     1       3.129  -6.316  10.248  0.00  0.00    -0.307 N 
ATOM      8  H   UNL     1       3.261  -7.149   9.770  0.00  0.00    +0.170 HD
ATOM      9  C   UNL     1       3.120  -6.313  11.592  0.00  0.00    +0.330 A 
ATOM     10  O   UNL     1       3.279  -7.367  12.177  0.00  0.00    -0.246 OA
ATOM     11  N   UNL     1       2.943  -5.197  12.316  0.00  0.00    -0.256 N 
ATOM     12  C   UNL     1       2.763  -3.997  11.723  0.00  0.00    +0.265 A 
ATOM     13  O   UNL     1       2.603  -2.991  12.386  0.00  0.00    -0.267 OA
ENDROOT
BRANCH   1  16
ATOM     14  C   UNL     1       2.797  -1.919   4.683  0.00  0.00    +0.180 C 
ATOM     15  N   UNL     1       1.923  -2.809   5.484  0.00  0.00    -0.265 NA
ATOM     16  C   UNL     1       2.785  -3.903   5.976  0.00  0.00    +0.242 C 
ATOM     17  O   UNL     1       4.117  -3.646   5.492  0.00  0.00    -0.274 OA
ATOM     18  N   UNL     1       3.932  -2.797   4.292  0.00  0.00    -0.177 NA
ATOM     19  H   UNL     1       1.502  -2.308   6.251  0.00  0.00    +0.127 HD
ATOM     20  H   UNL     1       4.760  -2.253   4.100  0.00  0.00    +0.156 HD
BRANCH  14  24
ATOM     21  C   UNL     1       0.731  -0.503   1.223  0.00  0.00    -0.048 A 
ATOM     22  C   UNL     1       2.097  -0.710   1.176  0.00  0.00    +0.004 A 
ATOM     23  C   UNL     1       2.766  -1.167   2.296  0.00  0.00    +0.007 A 
ATOM     24  C   UNL     1       2.068  -1.419   3.463  0.00  0.00    -0.014 A 
ATOM     25  C   UNL     1       0.702  -1.212   3.510  0.00  0.00    +0.007 A 
ATOM     26  C   UNL     1       0.034  -0.750   2.391  0.00  0.00    +0.004 A 
BRANCH  21  28
ATOM     27  C   UNL     1      -0.019   1.526   0.010  0.00  0.00    +0.009 C 
ATOM     28  C   UNL     1       0.002  -0.004   0.002  0.00  0.00    +0.032 C 
ENDBRANCH  21  28
ENDBRANCH  14  24
ENDBRANCH   1  16
BRANCH  11  29
ATOM     29  C   UNL     1       2.946  -5.281  13.779  0.00  0.00    +0.165 C 
BRANCH  29  30
ATOM     30  C   UNL     1       4.352  -5.094  14.290  0.00  0.00    -0.026 A 
ATOM     31  C   UNL     1       5.180  -6.189  14.450  0.00  0.00    +0.005 A 
ATOM     32  C   UNL     1       6.469  -6.019  14.919  0.00  0.00    +0.002 A 
ATOM     33  C   UNL     1       6.931  -4.753  15.228  0.00  0.00    +0.020 A 
ATOM     34  C   UNL     1       6.102  -3.657  15.068  0.00  0.00    +0.041 A 
ATOM     35  C   UNL     1       4.814  -3.828  14.593  0.00  0.00    +0.025 A 
ATOM     36 CL   UNL     1       6.681  -2.067  15.455  0.00  0.00    -0.084 Cl
ENDBRANCH  29  30
ENDBRANCH  11  29
TORSDOF 5
