REMARK  Name = ZINC11028360
REMARK  11 active torsions:
REMARK  status: ('A' for Active; 'I' for Inactive)
REMARK    1  A    between atoms: C_1  and  C_2
REMARK    2  A    between atoms: C_4  and  C_18
REMARK    3  A    between atoms: C_5  and  C_17
REMARK    4  A    between atoms: N_6  and  C_7
REMARK    5  A    between atoms: C_10  and  S_13
REMARK    6  A    between atoms: S_13  and  N_16
REMARK    7  A    between atoms: C_18  and  C_20
REMARK    8  A    between atoms: C_20  and  O_21
REMARK    9  A    between atoms: O_21  and  C_22
REMARK   10  A    between atoms: C_22  and  C_24
REMARK   11  A    between atoms: C_24  and  C_25
REMARK                            x       y       z     vdW  Elec       q    Type
REMARK                         _______ _______ _______ _____ _____    ______ ____
ROOT
ATOM      1  C   UNL     1      -5.370   3.061   3.692  0.00  0.00    +0.064 C 
ATOM      2  C   UNL     1      -4.432   3.232   4.859  0.00  0.00    +0.022 A 
ATOM      3  C   UNL     1      -4.792   3.591   6.102  0.00  0.00    +0.034 A 
ATOM      4  C   UNL     1      -3.557   3.638   6.896  0.00  0.00    +0.042 A 
ATOM      5  C   UNL     1      -2.537   3.285   6.032  0.00  0.00    +0.032 A 
ATOM      6  N   UNL     1      -3.078   3.044   4.822  0.00  0.00    -0.317 N 
ATOM      7  C   UNL     1      -1.075   3.188   6.382  0.00  0.00    +0.064 C 
ENDROOT
BRANCH   6   8
ATOM      8  C   UNL     1      -2.355   2.659   3.684  0.00  0.00    +0.047 A 
ATOM      9  C   UNL     1      -2.560   1.408   3.119  0.00  0.00    +0.028 A 
ATOM     10  C   UNL     1      -1.846   1.032   1.999  0.00  0.00    +0.030 A 
ATOM     11  C   UNL     1      -0.927   1.900   1.439  0.00  0.00    +0.105 A 
ATOM     12  C   UNL     1      -0.716   3.145   2.003  0.00  0.00    +0.030 A 
ATOM     13  C   UNL     1      -1.432   3.529   3.120  0.00  0.00    +0.028 A 
BRANCH  11  14
ATOM     14  S   UNL     1      -0.017   1.417   0.010  0.00  0.00    +0.056 S 
ATOM     15  O   UNL     1       0.002  -0.004   0.002  0.00  0.00    -0.153 OA
ATOM     16  O   UNL     1       1.172   2.195   0.003  0.00  0.00    -0.153 OA
BRANCH  14  17
ATOM     17  N   UNL     1      -0.897   1.885  -1.312  0.00  0.00    -0.204 NA
ATOM     18  H   UNL     1      -1.201   1.223  -1.952  0.00  0.00    +0.144 HD
ATOM     19  H   UNL     1      -1.110   2.822  -1.446  0.00  0.00    +0.144 HD
ENDBRANCH  14  17
ENDBRANCH  11  14
ENDBRANCH   6   8
BRANCH   4  20
ATOM     20  C   UNL     1      -3.431   3.986   8.313  0.00  0.00    +0.202 C 
ATOM     21  O   UNL     1      -2.340   3.983   8.844  0.00  0.00    -0.288 OA
BRANCH  20  22
ATOM     22  C   UNL     1      -4.657   4.347   9.111  0.00  0.00    +0.311 C 
BRANCH  22  23
ATOM     23  O   UNL     1      -4.272   4.649  10.479  0.00  0.00    -0.456 OA
BRANCH  23  24
ATOM     24  C   UNL     1      -5.254   4.993  11.326  0.00  0.00    +0.312 C 
ATOM     25  O   UNL     1      -6.398   5.039  10.939  0.00  0.00    -0.250 OA
BRANCH  24  26
ATOM     26  C   UNL     1      -4.931   5.320  12.761  0.00  0.00    +0.160 C 
BRANCH  26  27
ATOM     27  C   UNL     1      -6.199   5.670  13.495  0.00  0.00    +0.017 A 
ATOM     28  C   UNL     1      -6.930   4.679  14.129  0.00  0.00    +0.128 A 
ATOM     29  C   UNL     1      -8.095   5.002  14.802  0.00  0.00    +0.039 A 
ATOM     30  C   UNL     1      -8.529   6.314  14.842  0.00  0.00    +0.004 A 
ATOM     31  C   UNL     1      -7.800   7.303  14.210  0.00  0.00    +0.020 A 
ATOM     32  C   UNL     1      -6.632   6.983  13.541  0.00  0.00    +0.047 A 
ATOM     33 CL   UNL     1      -5.714   8.228  12.753  0.00  0.00    -0.083 Cl
ATOM     34  F   UNL     1      -6.505   3.397  14.089  0.00  0.00    -0.205 F 
ENDBRANCH  26  27
ENDBRANCH  24  26
ENDBRANCH  23  24
ENDBRANCH  22  23
ENDBRANCH  20  22
ENDBRANCH   4  20
TORSDOF 9
