REMARK  Name = ZINC39610175
REMARK  8 active torsions:
REMARK  status: ('A' for Active; 'I' for Inactive)
REMARK    1  A    between atoms: C_1  and  C_2
REMARK    2  A    between atoms: C_2  and  C_3
REMARK    3  A    between atoms: C_3  and  C_4
REMARK    4  A    between atoms: C_3  and  C_6
REMARK    5  A    between atoms: C_4  and  C_5
REMARK    6  A    between atoms: C_10  and  C_19
REMARK    7  A    between atoms: N_21  and  C_22
REMARK    8  A    between atoms: C_22  and  C_23
REMARK                            x       y       z     vdW  Elec       q    Type
REMARK                         _______ _______ _______ _____ _____    ______ ____
ROOT
ATOM      1  C   UNL     1       0.177  -2.353  -1.285  0.00  0.00    +0.219 C 
ATOM      2  O   UNL     1       1.089  -3.141  -1.416  0.00  0.00    -0.275 OA
ATOM      3  N   UNL     1      -1.097  -2.767  -1.429  0.00  0.00    -0.300 N 
ATOM      4  C   UNL     1      -2.334  -1.959  -1.313  0.00  0.00    +0.121 C 
ATOM      5  C   UNL     1      -3.254  -2.490  -2.435  0.00  0.00    +0.100 C 
ATOM      6  C   UNL     1      -2.755  -3.919  -2.708  0.00  0.00    -0.004 C 
ATOM      7  C   UNL     1      -1.579  -4.134  -1.744  0.00  0.00    +0.115 C 
ATOM      8  C   UNL     1      -2.277  -4.045  -4.151  0.00  0.00    -0.010 C 
ATOM      9  C   UNL     1      -1.839  -5.488  -4.414  0.00  0.00    -0.082 C 
ATOM     10  N   UNL     1      -2.966  -6.396  -4.170  0.00  0.00    +0.379 N 
ATOM     11  C   UNL     1      -3.361  -6.337  -2.758  0.00  0.00    -0.082 C 
ATOM     12  C   UNL     1      -3.862  -4.929  -2.424  0.00  0.00    -0.010 C 
ATOM     13  H   UNL     1      -3.748  -6.122  -4.748  0.00  0.00    -0.086 HD
ATOM     14  H   UNL     1      -2.694  -7.339  -4.403  0.00  0.00    -0.086 HD
ENDROOT
BRANCH   5  15
ATOM     15  C   UNL     1      -3.119  -1.639  -3.671  0.00  0.00    +0.218 C 
ATOM     16  O   UNL     1      -2.048  -1.145  -3.954  0.00  0.00    -0.275 OA
ATOM     17  N   UNL     1      -4.189  -1.428  -4.463  0.00  0.00    -0.311 N 
ATOM     18  H   UNL     1      -5.046  -1.823  -4.238  0.00  0.00    +0.149 HD
BRANCH  17  19
ATOM     19  C   UNL     1      -4.058  -0.601  -5.666  0.00  0.00    +0.139 C 
BRANCH  19  20
ATOM     20  C   UNL     1      -5.388  -0.522  -6.369  0.00  0.00    -0.027 A 
ATOM     21  C   UNL     1      -5.719  -1.464  -7.326  0.00  0.00    +0.009 A 
ATOM     22  C   UNL     1      -6.939  -1.396  -7.974  0.00  0.00    +0.050 A 
ATOM     23  C   UNL     1      -7.833  -0.384  -7.665  0.00  0.00    +0.166 A 
ATOM     24  C   UNL     1      -7.499   0.564  -6.701  0.00  0.00    +0.167 A 
ATOM     25  C   UNL     1      -6.278   0.487  -6.052  0.00  0.00    +0.054 A 
ATOM     26  O   UNL     1      -8.534   1.446  -6.580  0.00  0.00    -0.453 OA
ATOM     27  C   UNL     1      -9.331   1.268  -7.766  0.00  0.00    +0.466 C 
ATOM     28  O   UNL     1      -9.076  -0.097  -8.148  0.00  0.00    -0.453 OA
ENDBRANCH  19  20
ENDBRANCH  17  19
ENDBRANCH   5  15
BRANCH   1  29
ATOM     29  C   UNL     1       0.468  -0.910  -0.961  0.00  0.00    +0.075 C 
BRANCH  29  31
ATOM     30  C   UNL     1      -0.015   0.954   0.631  0.00  0.00    +0.004 C 
ATOM     31  C   UNL     1      -0.192  -0.543   0.370  0.00  0.00    +0.009 C 
ENDBRANCH  29  31
BRANCH  29  32
ATOM     32  C   UNL     1       1.981  -0.708  -0.852  0.00  0.00    +0.009 C 
ATOM     33  C   UNL     1       2.623  -0.914  -2.226  0.00  0.00    +0.004 C 
ENDBRANCH  29  32
ENDBRANCH   1  29
TORSDOF 6
