REMARK  Name = ZINC05185581
REMARK  8 active torsions:
REMARK  status: ('A' for Active; 'I' for Inactive)
REMARK    1  A    between atoms: C_1  and  C_2
REMARK    2  A    between atoms: C_2  and  C_3
REMARK    3  A    between atoms: C_3  and  C_4
REMARK    4  A    between atoms: C_4  and  O_5
REMARK    5  A    between atoms: O_5  and  C_6
REMARK    6  A    between atoms: C_9  and  C_12
REMARK    7  A    between atoms: N_14  and  C_15
REMARK    8  A    between atoms: C_19  and  N_26
REMARK                            x       y       z     vdW  Elec       q    Type
REMARK                         _______ _______ _______ _____ _____    ______ ____
ROOT
ATOM      1  C   UNL     1      -1.304   2.116   0.030  0.00  0.00    +0.248 C 
ATOM      2  O   UNL     1      -2.351   1.496   0.031  0.00  0.00    -0.270 OA
ATOM      3  N   UNL     1      -1.320   3.463   0.027  0.00  0.00    -0.276 N 
ATOM      4  H   UNL     1      -0.488   3.958   0.091  0.00  0.00    +0.155 HD
ENDROOT
BRANCH   3   5
ATOM      5  C   UNL     1      -2.536   4.149  -0.069  0.00  0.00    +0.120 A 
ATOM      6  C   UNL     1      -3.660   3.644   0.510  0.00  0.00    +0.042 A 
ATOM      7  C   UNL     1      -4.907   4.404   0.385  0.00  0.00    +0.022 A 
ATOM      8  C   UNL     1      -6.090   3.932   0.966  0.00  0.00    +0.044 A 
ATOM      9  C   UNL     1      -7.245   4.649   0.835  0.00  0.00    +0.127 A 
ATOM     10  C   UNL     1      -7.254   5.844   0.129  0.00  0.00    +0.036 A 
ATOM     11  C   UNL     1      -6.100   6.326  -0.451  0.00  0.00    +0.049 A 
ATOM     12  C   UNL     1      -4.913   5.613  -0.331  0.00  0.00    +0.139 A 
ATOM     13  O   UNL     1      -3.779   6.079  -0.897  0.00  0.00    -0.421 OA
ATOM     14  C   UNL     1      -2.618   5.415  -0.798  0.00  0.00    +0.359 A 
ATOM     15  O   UNL     1      -1.619   5.871  -1.324  0.00  0.00    -0.243 OA
BRANCH   9  16
ATOM     16  N   UNL     1      -8.495   4.149   1.450  0.00  0.00    +0.056 N 
ATOM     17  O   UNL     1      -9.527   4.786   1.335  0.00  0.00    -0.126 OA
ATOM     18  O   UNL     1      -8.492   3.101   2.070  0.00  0.00    -0.126 OA
ENDBRANCH   9  16
ENDBRANCH   3   5
BRANCH   1  22
ATOM     19  C   UNL     1       2.397   0.034   0.029  0.00  0.00    +0.121 A 
ATOM     20  C   UNL     1       1.202  -0.676   0.035  0.00  0.00    +0.046 A 
ATOM     21  C   UNL     1      -0.000  -0.005   0.037  0.00  0.00    +0.016 A 
ATOM     22  C   UNL     1      -0.018   1.392   0.034  0.00  0.00    +0.037 A 
ATOM     23  C   UNL     1       1.185   2.103   0.028  0.00  0.00    +0.016 A 
ATOM     24  C   UNL     1       2.383   1.424   0.026  0.00  0.00    +0.046 A 
BRANCH  19  25
ATOM     25  O   UNL     1       3.580  -0.631   0.027  0.00  0.00    -0.492 OA
BRANCH  25  26
ATOM     26  C   UNL     1       4.769   0.161   0.021  0.00  0.00    +0.229 C 
BRANCH  26  27
ATOM     27  C   UNL     1       5.993  -0.757   0.019  0.00  0.00    +0.041 C 
BRANCH  27  29
ATOM     28  C   UNL     1       8.491  -0.828   0.010  0.00  0.00    +0.004 C 
ATOM     29  C   UNL     1       7.267   0.091   0.012  0.00  0.00    -0.000 C 
ENDBRANCH  27  29
ENDBRANCH  26  27
ENDBRANCH  25  26
ENDBRANCH  19  25
ENDBRANCH   1  22
TORSDOF 7
