REMARK  Name = ZINC05064278
REMARK  9 active torsions:
REMARK  status: ('A' for Active; 'I' for Inactive)
REMARK    1  A    between atoms: C_1  and  C_2
REMARK    2  A    between atoms: C_2  and  O_3
REMARK    3  A    between atoms: O_3  and  C_4
REMARK    4  A    between atoms: C_6  and  C_13
REMARK    5  A    between atoms: C_9  and  O_10
REMARK    6  A    between atoms: O_10  and  C_11
REMARK    7  A    between atoms: C_15  and  C_22
REMARK    8  A    between atoms: C_16  and  C_21
REMARK    9  A    between atoms: C_22  and  C_24
REMARK                            x       y       z     vdW  Elec       q    Type
REMARK                         _______ _______ _______ _____ _____    ______ ____
ROOT
ATOM      1  C   UNL     1      -0.710   1.916   3.581  0.00  0.00    +0.138 C 
ATOM      2  C   UNL     1      -0.171   1.735   2.176  0.00  0.00    +0.036 C 
ATOM      3  C   UNL     1      -1.054   1.802   1.149  0.00  0.00    +0.015 C 
ATOM      4  N   UNL     1      -2.378   2.031   1.375  0.00  0.00    -0.300 N 
ATOM      5  C   UNL     1      -2.907   2.192   2.594  0.00  0.00    +0.135 C 
ATOM      6  S   UNL     1      -4.591   2.465   2.735  0.00  0.00    -0.019 S 
ATOM      7  N   UNL     1      -2.158   2.152   3.714  0.00  0.00    -0.315 N 
ATOM      8  C   UNL     1      -0.563   1.628  -0.265  0.00  0.00    +0.061 C 
ATOM      9  H   UNL     1      -2.971   2.075   0.609  0.00  0.00    +0.154 HD
ATOM     10  H   UNL     1      -2.563   2.275   4.587  0.00  0.00    +0.149 HD
ENDROOT
BRANCH   1  13
ATOM     11  C   UNL     1       1.006  -0.425   5.999  0.00  0.00    +0.163 A 
ATOM     12  C   UNL     1       0.691   0.707   5.265  0.00  0.00    +0.055 A 
ATOM     13  C   UNL     1      -0.366   0.682   4.374  0.00  0.00    -0.018 A 
ATOM     14  C   UNL     1      -1.103  -0.475   4.204  0.00  0.00    +0.025 A 
ATOM     15  C   UNL     1      -0.790  -1.611   4.929  0.00  0.00    +0.063 A 
ATOM     16  C   UNL     1       0.264  -1.590   5.829  0.00  0.00    +0.175 A 
ATOM     17 BR   UNL     1      -1.802  -3.192   4.694  0.00  0.00    -0.046 Br
BRANCH  16  18
ATOM     18  O   UNL     1       0.573  -2.705   6.543  0.00  0.00    -0.490 OA
ATOM     19  C   UNL     1       1.515  -3.609   5.962  0.00  0.00    +0.277 C 
ENDBRANCH  16  18
BRANCH  11  20
ATOM     20  O   UNL     1       2.041  -0.400   6.881  0.00  0.00    -0.489 OA
BRANCH  20  22
ATOM     21  C   UNL     1       3.877   0.667   8.034  0.00  0.00    +0.048 C 
ATOM     22  C   UNL     1       2.758   0.830   7.004  0.00  0.00    +0.226 C 
ENDBRANCH  20  22
ENDBRANCH  11  20
ENDBRANCH   1  13
BRANCH   2  23
ATOM     23  C   UNL     1       1.195   1.505   1.946  0.00  0.00    +0.160 C 
ATOM     24  O   UNL     1       1.565   0.439   1.496  0.00  0.00    -0.293 OA
ATOM     25  C   UNL     1       2.203   2.582   2.257  0.00  0.00    +0.091 C 
ENDBRANCH   2  23
TORSDOF 5
