REMARK  Name = ZINC63234739
REMARK  6 active torsions:
REMARK  status: ('A' for Active; 'I' for Inactive)
REMARK    1  A    between atoms: C_7  and  C_10
REMARK    2  A    between atoms: C_10  and  C_11
REMARK    3  A    between atoms: N_15  and  C_19
REMARK    4  A    between atoms: C_19  and  C_20
REMARK    5  A    between atoms: N_22  and  C_23
REMARK    6  A    between atoms: C_25  and  C_33
REMARK                            x       y       z     vdW  Elec       q    Type
REMARK                         _______ _______ _______ _____ _____    ______ ____
ROOT
ATOM      1  C   UNL     1       0.925  -5.570  -0.828  0.00  0.00    +0.165 C 
ATOM      2  C   UNL     1      -0.299  -6.383  -1.200  0.00  0.00    +0.244 C 
ATOM      3  O   UNL     1      -0.463  -7.574  -1.045  0.00  0.00    -0.273 OA
ATOM      4  N   UNL     1      -1.169  -5.505  -1.739  0.00  0.00    -0.216 N 
ATOM      5  C   UNL     1      -0.668  -4.264  -1.759  0.00  0.00    +0.310 C 
ATOM      6  O   UNL     1      -1.267  -3.302  -2.198  0.00  0.00    -0.252 OA
ATOM      7  N   UNL     1       0.574  -4.200  -1.240  0.00  0.00    -0.287 N 
ATOM      8  H   UNL     1       1.129  -3.409  -1.152  0.00  0.00    +0.151 HD
ENDROOT
BRANCH   1   9
ATOM      9  C   UNL     1       1.174  -5.632   0.681  0.00  0.00    +0.065 C 
BRANCH   9  16
ATOM     10  C   UNL     1       1.931  -1.322   2.061  0.00  0.00    +0.001 A 
ATOM     11  C   UNL     1       3.286  -1.025   2.259  0.00  0.00    +0.002 A 
ATOM     12  C   UNL     1       4.267  -1.931   2.061  0.00  0.00    +0.026 A 
ATOM     13  C   UNL     1       3.953  -3.250   1.633  0.00  0.00    +0.043 A 
ATOM     14  N   UNL     1       4.710  -4.288   1.375  0.00  0.00    -0.380 N 
ATOM     15  C   UNL     1       3.851  -5.404   0.965  0.00  0.00    +0.144 C 
ATOM     16  C   UNL     1       2.434  -4.876   1.013  0.00  0.00    -0.039 C 
ATOM     17  C   UNL     1       2.528  -3.588   1.415  0.00  0.00    -0.001 A 
ATOM     18  C   UNL     1       1.523  -2.546   1.654  0.00  0.00    +0.010 A 
ATOM     19  H   UNL     1       5.677  -4.314   1.444  0.00  0.00    +0.160 HD
ENDBRANCH   9  16
ENDBRANCH   1   9
BRANCH   4  20
ATOM     20  C   UNL     1      -2.497  -5.865  -2.243  0.00  0.00    +0.213 C 
BRANCH  20  21
ATOM     21  C   UNL     1      -3.505  -5.746  -1.129  0.00  0.00    +0.232 C 
ATOM     22  O   UNL     1      -3.149  -5.395  -0.024  0.00  0.00    -0.274 OA
ATOM     23  N   UNL     1      -4.802  -6.030  -1.361  0.00  0.00    -0.301 N 
ATOM     24  H   UNL     1      -5.086  -6.311  -2.245  0.00  0.00    +0.150 HD
BRANCH  23  25
ATOM     25  C   UNL     1      -5.782  -5.914  -0.278  0.00  0.00    +0.151 C 
ATOM     26  C   UNL     1      -7.188  -5.568  -0.820  0.00  0.00    +0.132 C 
ATOM     27  C   UNL     1      -7.919  -4.611   0.101  0.00  0.00    -0.046 C 
ATOM     28  C   UNL     1      -7.195  -3.917   0.961  0.00  0.00    -0.013 C 
ATOM     29  S   UNL     1      -5.494  -4.406   0.736  0.00  0.00    -0.106 S 
ATOM     30  C   UNL     1      -8.037  -2.987   1.802  0.00  0.00    +0.042 C 
ATOM     31  C   UNL     1      -9.381  -2.894   1.048  0.00  0.00    +0.009 C 
ATOM     32  C   UNL     1      -9.394  -4.233   0.286  0.00  0.00    +0.033 C 
BRANCH  26  33
ATOM     33  C   UNL     1      -7.049  -4.931  -2.179  0.00  0.00    +0.220 C 
ATOM     34  O   UNL     1      -6.842  -3.740  -2.271  0.00  0.00    -0.275 OA
ATOM     35  N   UNL     1      -7.154  -5.685  -3.291  0.00  0.00    -0.329 N 
ATOM     36  H   UNL     1      -7.391  -6.623  -3.220  0.00  0.00    +0.145 HD
ATOM     37  H   UNL     1      -6.994  -5.290  -4.162  0.00  0.00    +0.145 HD
ENDBRANCH  26  33
ENDBRANCH  23  25
ENDBRANCH  20  21
ENDBRANCH   4  20
TORSDOF 6
