REMARK  Name = ZINC21219084
REMARK  10 active torsions:
REMARK  status: ('A' for Active; 'I' for Inactive)
REMARK    1  A    between atoms: C_1  and  C_2
REMARK    2  A    between atoms: C_2  and  O_3
REMARK    3  A    between atoms: O_3  and  C_4
REMARK    4  A    between atoms: C_7  and  C_10
REMARK    5  A    between atoms: C_15  and  C_20
REMARK    6  A    between atoms: C_23  and  O_26
REMARK    7  A    between atoms: O_26  and  C_27
REMARK    8  A    between atoms: C_27  and  C_28
REMARK    9  A    between atoms: C_28  and  C_29
REMARK   10  A    between atoms: C_28  and  C_30
REMARK                            x       y       z     vdW  Elec       q    Type
REMARK                         _______ _______ _______ _____ _____    ______ ____
ROOT
ATOM      1  C   UNL     1       3.671   2.186  -0.020  0.00  0.00    +0.136 C 
ATOM      2  C   UNL     1       3.904   2.742   1.365  0.00  0.00    +0.036 C 
ATOM      3  C   UNL     1       3.831   4.037   1.717  0.00  0.00    +0.017 C 
ATOM      4  C   UNL     1       4.102   4.463   3.150  0.00  0.00    +0.059 C 
ATOM      5  C   UNL     1       3.666   3.362   4.114  0.00  0.00    +0.032 C 
ATOM      6  C   UNL     1       4.465   2.099   3.771  0.00  0.00    +0.088 C 
ATOM      7  C   UNL     1       4.221   1.758   2.331  0.00  0.00    +0.163 C 
ATOM      8  O   UNL     1       4.299   0.597   1.982  0.00  0.00    -0.292 OA
ATOM      9  N   UNL     1       3.537   5.053   0.866  0.00  0.00    -0.316 N 
ATOM     10  C   UNL     1       2.497   5.045  -0.056  0.00  0.00    +0.052 A 
ATOM     11  C   UNL     1       1.423   5.913   0.030  0.00  0.00    +0.025 A 
ATOM     12  C   UNL     1       0.447   5.884  -0.951  0.00  0.00    +0.002 A 
ATOM     13  C   UNL     1       0.545   4.996  -2.007  0.00  0.00    +0.002 A 
ATOM     14  C   UNL     1       1.609   4.114  -2.084  0.00  0.00    +0.025 A 
ATOM     15  C   UNL     1       2.576   4.127  -1.093  0.00  0.00    +0.049 A 
ATOM     16  N   UNL     1       3.603   3.184  -1.066  0.00  0.00    -0.331 N 
ATOM     17  H   UNL     1       4.144   5.970   0.875  0.00  0.00    +0.152 HD
ATOM     18  H   UNL     1       4.369   3.207  -1.855  0.00  0.00    +0.147 HD
ENDROOT
BRANCH   1  22
ATOM     19  C   UNL     1       0.002  -0.004  -0.001  0.00  0.00    +0.121 A 
ATOM     20  C   UNL     1       1.199  -0.656  -0.259  0.00  0.00    +0.046 A 
ATOM     21  C   UNL     1       2.384   0.054  -0.264  0.00  0.00    +0.009 A 
ATOM     22  C   UNL     1       2.377   1.414  -0.013  0.00  0.00    -0.023 A 
ATOM     23  C   UNL     1       1.186   2.066   0.246  0.00  0.00    +0.009 A 
ATOM     24  C   UNL     1      -0.002   1.360   0.252  0.00  0.00    +0.046 A 
BRANCH  19  25
ATOM     25  O   UNL     1      -1.165  -0.700   0.004  0.00  0.00    -0.492 OA
BRANCH  25  27
ATOM     26  C   UNL     1      -3.561  -0.909   0.241  0.00  0.00    +0.048 C 
ATOM     27  C   UNL     1      -2.359   0.036   0.278  0.00  0.00    +0.225 C 
ENDBRANCH  25  27
ENDBRANCH  19  25
ENDBRANCH   1  22
BRANCH   5  28
ATOM     28  C   UNL     1       3.956   3.781   5.533  0.00  0.00    -0.043 A 
ATOM     29  C   UNL     1       5.254   4.056   5.919  0.00  0.00    +0.007 A 
ATOM     30  C   UNL     1       5.521   4.446   7.217  0.00  0.00    +0.046 A 
ATOM     31  C   UNL     1       4.487   4.550   8.136  0.00  0.00    +0.121 A 
ATOM     32  C   UNL     1       3.186   4.267   7.747  0.00  0.00    +0.046 A 
ATOM     33  C   UNL     1       2.923   3.883   6.446  0.00  0.00    +0.007 A 
BRANCH  31  34
ATOM     34  O   UNL     1       4.748   4.928   9.415  0.00  0.00    -0.492 OA
BRANCH  34  35
ATOM     35  C   UNL     1       6.111   5.203   9.745  0.00  0.00    +0.232 C 
BRANCH  35  36
ATOM     36  C   UNL     1       6.208   5.610  11.217  0.00  0.00    +0.020 C 
ATOM     37  C   UNL     1       7.678   5.784  11.602  0.00  0.00    +0.010 C 
ATOM     38  C   UNL     1       5.465   6.931  11.430  0.00  0.00    +0.010 C 
ENDBRANCH  35  36
ENDBRANCH  34  35
ENDBRANCH  31  34
ENDBRANCH   5  28
TORSDOF 7
