REMARK  Name = ZINC22938704
REMARK  10 active torsions:
REMARK  status: ('A' for Active; 'I' for Inactive)
REMARK    1  A    between atoms: C_1  and  C_2
REMARK    2  A    between atoms: C_2  and  C_3
REMARK    3  A    between atoms: C_2  and  C_14
REMARK    4  A    between atoms: C_2  and  N_20
REMARK    5  A    between atoms: C_3  and  N_4
REMARK    6  A    between atoms: N_4  and  S_5
REMARK    7  A    between atoms: S_5  and  C_8
REMARK    8  A    between atoms: N_23  and  C_26
REMARK    9  A    between atoms: C_26  and  C_27
REMARK   10  A    between atoms: C_26  and  C_33
REMARK                            x       y       z     vdW  Elec       q    Type
REMARK                         _______ _______ _______ _____ _____    ______ ____
ROOT
ATOM      1  C   UNL     1       0.973   1.472  -0.026  0.00  0.00    +0.034 C 
ATOM      2  C   UNL     1      -0.060   1.816  -1.102  0.00  0.00    +0.058 C 
ENDROOT
BRANCH   2   3
ATOM      3  N   UNL     1      -0.242   3.273  -1.157  0.00  0.00    -0.295 NA
ATOM      4  C   UNL     1      -0.476   3.825   0.185  0.00  0.00    +0.067 C 
ATOM      5  C   UNL     1      -0.582   5.350   0.094  0.00  0.00    -0.062 C 
ATOM      6  N   UNL     1      -1.676   5.709  -0.818  0.00  0.00    +0.389 N 
ATOM      7  C   UNL     1      -1.442   5.157  -2.160  0.00  0.00    -0.062 C 
ATOM      8  C   UNL     1      -1.336   3.632  -2.070  0.00  0.00    +0.067 C 
ATOM      9  H   UNL     1      -2.604   5.268  -0.426  0.00  0.00    -0.080 HD
BRANCH   6  10
ATOM     10  C   UNL     1      -1.858   7.166  -0.874  0.00  0.00    -0.007 C 
BRANCH  10  11
ATOM     11  C   UNL     1      -2.978   7.496  -1.826  0.00  0.00    -0.057 A 
ATOM     12  C   UNL     1      -4.160   6.781  -1.776  0.00  0.00    +0.002 A 
ATOM     13  C   UNL     1      -5.190   7.087  -2.647  0.00  0.00    +0.000 A 
ATOM     14  C   UNL     1      -5.034   8.102  -3.572  0.00  0.00    +0.000 A 
ATOM     15  C   UNL     1      -3.850   8.813  -3.625  0.00  0.00    +0.000 A 
ATOM     16  C   UNL     1      -2.822   8.510  -2.752  0.00  0.00    +0.002 A 
ENDBRANCH  10  11
BRANCH  10  17
ATOM     17  C   UNL     1      -2.198   7.682   0.501  0.00  0.00    -0.057 A 
ATOM     18  C   UNL     1      -3.109   7.003   1.288  0.00  0.00    +0.002 A 
ATOM     19  C   UNL     1      -3.418   7.474   2.551  0.00  0.00    +0.000 A 
ATOM     20  C   UNL     1      -2.822   8.629   3.022  0.00  0.00    +0.000 A 
ATOM     21  C   UNL     1      -1.915   9.311   2.233  0.00  0.00    +0.000 A 
ATOM     22  C   UNL     1      -1.603   8.837   0.972  0.00  0.00    +0.002 A 
ENDBRANCH  10  17
ENDBRANCH   6  10
ENDBRANCH   2   3
BRANCH   2  23
ATOM     23  C   UNL     1      -1.373   1.158  -0.766  0.00  0.00    -0.026 A 
ATOM     24  C   UNL     1      -2.451   1.928  -0.371  0.00  0.00    +0.005 A 
ATOM     25  C   UNL     1      -3.657   1.324  -0.067  0.00  0.00    +0.000 A 
ATOM     26  C   UNL     1      -3.783  -0.050  -0.150  0.00  0.00    +0.000 A 
ATOM     27  C   UNL     1      -2.703  -0.820  -0.541  0.00  0.00    +0.000 A 
ATOM     28  C   UNL     1      -1.499  -0.216  -0.849  0.00  0.00    +0.005 A 
ENDBRANCH   2  23
BRANCH   2  29
ATOM     29  C   UNL     1       0.431   1.312  -2.460  0.00  0.00    +0.132 C 
BRANCH  29  30
ATOM     30  N   UNL     1       1.642   2.041  -2.843  0.00  0.00    -0.188 NA
ATOM     31  H   UNL     1       1.815   3.059  -2.463  0.00  0.00    +0.148 HD
BRANCH  30  32
ATOM     32  S   UNL     1       2.626   1.445  -4.034  0.00  0.00    +0.058 S 
ATOM     33  O   UNL     1       3.686   2.378  -4.191  0.00  0.00    -0.153 OA
ATOM     34  O   UNL     1       2.855   0.077  -3.725  0.00  0.00    -0.153 OA
BRANCH  32  35
ATOM     35  C   UNL     1       1.704   1.474  -5.535  0.00  0.00    +0.105 A 
ATOM     36  C   UNL     1       0.947   0.377  -5.903  0.00  0.00    +0.028 A 
ATOM     37  C   UNL     1       0.220   0.402  -7.078  0.00  0.00    +0.002 A 
ATOM     38  C   UNL     1       0.257   1.519  -7.891  0.00  0.00    +0.000 A 
ATOM     39  C   UNL     1       1.018   2.614  -7.526  0.00  0.00    +0.002 A 
ATOM     40  C   UNL     1       1.742   2.591  -6.348  0.00  0.00    +0.028 A 
ENDBRANCH  32  35
ENDBRANCH  30  32
ENDBRANCH  29  30
ENDBRANCH   2  29
TORSDOF 9
