REMARK  Name = ZINC39843481
REMARK  5 active torsions:
REMARK  status: ('A' for Active; 'I' for Inactive)
REMARK    1  A    between atoms: N_8  and  N_9
REMARK    2  A    between atoms: C_14  and  C_17
REMARK    3  A    between atoms: C_17  and  C_18
REMARK    4  A    between atoms: N_20  and  C_21
REMARK    5  A    between atoms: C_24  and  N_27
REMARK                            x       y       z     vdW  Elec       q    Type
REMARK                         _______ _______ _______ _____ _____    ______ ____
ROOT
ATOM      1  N   UNL     1       1.228  -4.338  -0.047  0.00  0.00    -0.126 NA
ATOM      2  C   UNL     1       0.411  -5.387  -0.041  0.00  0.00    +0.183 C 
ATOM      3  N   UNL     1      -0.954  -5.368  -0.027  0.00  0.00    -0.263 N 
ATOM      4  C   UNL     1      -1.681  -6.476  -0.022  0.00  0.00    +0.233 C 
ATOM      5  O   UNL     1      -2.893  -6.479  -0.009  0.00  0.00    -0.274 OA
ATOM      6  C   UNL     1      -0.840  -7.744  -0.033  0.00  0.00    +0.149 C 
ATOM      7  S   UNL     1       0.846  -7.012  -0.056  0.00  0.00    -0.075 S 
ATOM      8  H   UNL     1      -1.409  -4.511  -0.020  0.00  0.00    +0.157 HD
ENDROOT
BRANCH   1  16
ATOM      9  C   UNL     1      -0.063   1.379   0.002  0.00  0.00    +0.001 A 
ATOM     10  C   UNL     1       1.122   2.095  -0.013  0.00  0.00    +0.002 A 
ATOM     11  C   UNL     1       2.338   1.443  -0.034  0.00  0.00    +0.024 A 
ATOM     12  C   UNL     1       2.385   0.053  -0.042  0.00  0.00    +0.043 A 
ATOM     13  C   UNL     1       1.183  -0.668  -0.027  0.00  0.00    +0.028 A 
ATOM     14  C   UNL     1      -0.038  -0.001  -0.005  0.00  0.00    +0.012 A 
ATOM     15  C   UNL     1       1.556  -2.099  -0.040  0.00  0.00    +0.157 C 
ATOM     16  N   UNL     1       0.743  -3.143  -0.034  0.00  0.00    -0.142 NA
ATOM     17  C   UNL     1       3.025  -2.111  -0.063  0.00  0.00    +0.269 C 
ATOM     18  O   UNL     1       3.732  -3.103  -0.080  0.00  0.00    -0.268 OA
ATOM     19  N   UNL     1       3.451  -0.837  -0.063  0.00  0.00    -0.280 N 
ATOM     20  H   UNL     1       4.384  -0.572  -0.076  0.00  0.00    +0.155 HD
ENDBRANCH   1  16
BRANCH   6  21
ATOM     21  C   UNL     1      -1.099  -8.571  -1.294  0.00  0.00    +0.120 C 
BRANCH  21  22
ATOM     22  C   UNL     1      -0.342  -9.871  -1.207  0.00  0.00    +0.219 C 
ATOM     23  O   UNL     1       0.338 -10.113  -0.232  0.00  0.00    -0.275 OA
ATOM     24  N   UNL     1      -0.421 -10.766  -2.212  0.00  0.00    -0.285 N 
ATOM     25  H   UNL     1      -1.016 -10.604  -2.960  0.00  0.00    +0.155 HD
BRANCH  24  26
ATOM     26  C   UNL     1       0.357 -11.929  -2.176  0.00  0.00    +0.034 A 
ATOM     27  C   UNL     1       0.874 -12.456  -3.352  0.00  0.00    +0.025 A 
ATOM     28  C   UNL     1       1.641 -13.604  -3.313  0.00  0.00    +0.034 A 
ATOM     29  C   UNL     1       1.894 -14.228  -2.105  0.00  0.00    +0.126 A 
ATOM     30  C   UNL     1       1.380 -13.705  -0.933  0.00  0.00    +0.034 A 
ATOM     31  C   UNL     1       0.617 -12.554  -0.964  0.00  0.00    +0.025 A 
BRANCH  29  32
ATOM     32  N   UNL     1       2.717 -15.458  -2.067  0.00  0.00    +0.056 N 
ATOM     33  O   UNL     1       3.167 -15.916  -3.092  0.00  0.00    -0.126 OA
ATOM     34  O   UNL     1       2.939 -16.005  -1.012  0.00  0.00    -0.126 OA
ENDBRANCH  29  32
ENDBRANCH  24  26
ENDBRANCH  21  22
ENDBRANCH   6  21
TORSDOF 5
