REMARK  Name = ZINC67341495
REMARK  7 active torsions:
REMARK  status: ('A' for Active; 'I' for Inactive)
REMARK    1  A    between atoms: C_1  and  C_2
REMARK    2  A    between atoms: C_2  and  O_3
REMARK    3  A    between atoms: O_3  and  C_4
REMARK    4  A    between atoms: C_9  and  C_10
REMARK    5  A    between atoms: C_12  and  C_15
REMARK    6  A    between atoms: N_25  and  C_28
REMARK    7  A    between atoms: C_28  and  C_29
REMARK                            x       y       z     vdW  Elec       q    Type
REMARK                         _______ _______ _______ _____ _____    ______ ____
ROOT
ATOM      1  C   UNL     1       3.717  -0.761  -6.581  0.00  0.00    +0.041 A 
ATOM      2  C   UNL     1       4.053  -1.981  -7.176  0.00  0.00    +0.014 A 
ATOM      3  C   UNL     1       4.721  -2.008  -8.368  0.00  0.00    +0.016 A 
ATOM      4  C   UNL     1       5.070  -0.813  -8.995  0.00  0.00    +0.063 A 
ATOM      5  C   UNL     1       4.737   0.419  -8.405  0.00  0.00    +0.056 A 
ATOM      6  C   UNL     1       4.056   0.441  -7.200  0.00  0.00    +0.039 A 
ATOM      7  N   UNL     1       5.099   1.591  -9.055  0.00  0.00    -0.307 N 
ATOM      8  H   UNL     1       4.876   2.448  -8.660  0.00  0.00    +0.170 HD
ATOM      9  C   UNL     1       5.756   1.549 -10.227  0.00  0.00    +0.330 A 
ATOM     10  O   UNL     1       6.056   2.598 -10.764  0.00  0.00    -0.246 OA
ATOM     11  N   UNL     1       6.097   0.399 -10.829  0.00  0.00    -0.256 N 
ATOM     12  C   UNL     1       5.791  -0.797 -10.281  0.00  0.00    +0.265 A 
ATOM     13  O   UNL     1       6.103  -1.834 -10.834  0.00  0.00    -0.267 OA
ENDROOT
BRANCH   1  16
ATOM     14  C   UNL     1       1.986  -1.420  -3.486  0.00  0.00    +0.206 A 
ATOM     15  N   UNL     1       2.618  -1.801  -4.608  0.00  0.00    -0.187 NA
ATOM     16  C   UNL     1       2.993  -0.746  -5.291  0.00  0.00    +0.259 A 
ATOM     17  O   UNL     1       2.608   0.351  -4.616  0.00  0.00    -0.332 OA
ATOM     18  N   UNL     1       1.949  -0.110  -3.446  0.00  0.00    -0.056 NA
BRANCH  14  24
ATOM     19  C   UNL     1       0.777  -1.809  -1.336  0.00  0.00    +0.131 A 
ATOM     20  C   UNL     1       0.243  -2.668  -0.388  0.00  0.00    +0.046 A 
ATOM     21  C   UNL     1       0.352  -4.035  -0.554  0.00  0.00    +0.004 A 
ATOM     22  C   UNL     1       0.992  -4.555  -1.666  0.00  0.00    +0.001 A 
ATOM     23  C   UNL     1       1.528  -3.712  -2.617  0.00  0.00    +0.015 A 
ATOM     24  C   UNL     1       1.419  -2.331  -2.463  0.00  0.00    +0.064 A 
BRANCH  19  25
ATOM     25  O   UNL     1       0.671  -0.465  -1.174  0.00  0.00    -0.492 OA
BRANCH  25  27
ATOM     26  C   UNL     1      -0.019   1.526   0.010  0.00  0.00    +0.048 C 
ATOM     27  C   UNL     1       0.002  -0.004   0.002  0.00  0.00    +0.226 C 
ENDBRANCH  25  27
ENDBRANCH  19  25
ENDBRANCH  14  24
ENDBRANCH   1  16
BRANCH  11  28
ATOM     28  C   UNL     1       6.814   0.441 -12.106  0.00  0.00    +0.165 C 
BRANCH  28  29
ATOM     29  C   UNL     1       8.298   0.459 -11.848  0.00  0.00    -0.028 A 
ATOM     30  C   UNL     1       8.959   1.663 -11.695  0.00  0.00    +0.005 A 
ATOM     31  C   UNL     1      10.321   1.679 -11.459  0.00  0.00    +0.000 A 
ATOM     32  C   UNL     1      11.022   0.490 -11.375  0.00  0.00    +0.000 A 
ATOM     33  C   UNL     1      10.361  -0.714 -11.527  0.00  0.00    +0.000 A 
ATOM     34  C   UNL     1       8.998  -0.730 -11.759  0.00  0.00    +0.005 A 
ENDBRANCH  28  29
ENDBRANCH  11  28
TORSDOF 6
