REMARK  Name = ZINC09294984
REMARK  7 active torsions:
REMARK  status: ('A' for Active; 'I' for Inactive)
REMARK    1  A    between atoms: C_1  and  C_2
REMARK    2  A    between atoms: C_2  and  C_3
REMARK    3  A    between atoms: C_3  and  C_4
REMARK    4  A    between atoms: C_10  and  C_25
REMARK    5  A    between atoms: C_12  and  C_15
REMARK    6  A    between atoms: N_17  and  C_18
REMARK    7  A    between atoms: C_28  and  C_31
REMARK                            x       y       z     vdW  Elec       q    Type
REMARK                         _______ _______ _______ _____ _____    ______ ____
ROOT
ATOM      1  C   UNL     1       5.618   1.289  -1.982  0.00  0.00    +0.151 A 
ATOM      2  N   UNL     1       6.640   0.556  -1.635  0.00  0.00    -0.132 NA
ATOM      3  N   UNL     1       6.408  -0.023  -0.508  0.00  0.00    -0.121 NA
ATOM      4  C   UNL     1       5.221   0.313  -0.083  0.00  0.00    +0.209 A 
ATOM      5  N   UNL     1       4.677   1.167  -1.000  0.00  0.00    -0.225 N 
ATOM      6  N   UNL     1       3.461   1.767  -0.938  0.00  0.00    -0.272 N 
ATOM      7  C   UNL     1       2.508   1.077  -0.067  0.00  0.00    +0.140 C 
ATOM      8  C   UNL     1       3.047   1.004   1.367  0.00  0.00    +0.166 C 
ATOM      9  S   UNL     1       4.402  -0.208   1.391  0.00  0.00    -0.069 S 
ATOM     10  H   UNL     1       3.549   2.738  -0.679  0.00  0.00    +0.167 HD
ENDROOT
BRANCH   7  11
ATOM     11  C   UNL     1       1.199   1.825  -0.070  0.00  0.00    -0.024 A 
ATOM     12  C   UNL     1       0.005   1.128  -0.089  0.00  0.00    +0.006 A 
ATOM     13  C   UNL     1      -1.195   1.814  -0.097  0.00  0.00    +0.004 A 
ATOM     14  C   UNL     1      -1.202   3.196  -0.075  0.00  0.00    -0.050 A 
ATOM     15  C   UNL     1      -0.008   3.893  -0.055  0.00  0.00    +0.004 A 
ATOM     16  C   UNL     1       1.193   3.207  -0.052  0.00  0.00    +0.006 A 
ATOM     17  C   UNL     1      -2.510   3.944  -0.078  0.00  0.00    +0.044 C 
ENDBRANCH   7  11
BRANCH   8  18
ATOM     18  C   UNL     1       3.565   2.356   1.787  0.00  0.00    +0.233 C 
ATOM     19  O   UNL     1       4.752   2.597   1.725  0.00  0.00    -0.274 OA
ATOM     20  N   UNL     1       2.708   3.297   2.230  0.00  0.00    -0.283 N 
ATOM     21  H   UNL     1       1.772   3.079   2.361  0.00  0.00    +0.155 HD
BRANCH  20  22
ATOM     22  C   UNL     1       3.169   4.591   2.502  0.00  0.00    +0.052 A 
ATOM     23  C   UNL     1       4.191   5.140   1.738  0.00  0.00    +0.025 A 
ATOM     24  C   UNL     1       4.643   6.417   2.008  0.00  0.00    +0.002 A 
ATOM     25  C   UNL     1       4.080   7.149   3.038  0.00  0.00    +0.002 A 
ATOM     26  C   UNL     1       3.063   6.605   3.801  0.00  0.00    +0.022 A 
ATOM     27  C   UNL     1       2.602   5.330   3.533  0.00  0.00    +0.062 A 
ATOM     28 CL   UNL     1       1.320   4.651   4.486  0.00  0.00    -0.082 Cl
ENDBRANCH  20  22
ENDBRANCH   8  18
BRANCH   1  29
ATOM     29  C   UNL     1       5.498   2.119  -3.235  0.00  0.00    +0.078 C 
BRANCH  29  31
ATOM     30  C   UNL     1       5.912   4.369  -4.239  0.00  0.00    +0.004 C 
ATOM     31  C   UNL     1       6.034   3.527  -2.967  0.00  0.00    +0.004 C 
ENDBRANCH  29  31
ENDBRANCH   1  29
TORSDOF 5
