REMARK  Name = ZINC06443890
REMARK  14 active torsions:
REMARK  status: ('A' for Active; 'I' for Inactive)
REMARK    1  A    between atoms: C_1  and  C_2
REMARK    2  A    between atoms: C_12  and  C_14
REMARK    3  A    between atoms: C_14  and  C_16
REMARK    4  A    between atoms: C_14  and  N_74
REMARK    5  A    between atoms: N_20  and  C_21
REMARK    6  A    between atoms: C_21  and  C_22
REMARK    7  A    between atoms: C_21  and  C_23
REMARK    8  A    between atoms: C_21  and  C_24
REMARK    9  A    between atoms: C_25  and  C_26
REMARK   10  A    between atoms: C_25  and  N_74
REMARK   11  A    between atoms: C_29  and  O_32
REMARK   12  A    between atoms: O_32  and  C_33
REMARK   13  A    between atoms: C_34  and  C_35
REMARK   14  A    between atoms: C_34  and  N_74
REMARK                            x       y       z     vdW  Elec       q    Type
REMARK                         _______ _______ _______ _____ _____    ______ ____
ROOT
ATOM      1  C   UNL     1      -1.874   3.012   0.346  0.00  0.00    +0.039 C 
ENDROOT
BRANCH   1  13
ATOM      2  C   UNL     1       2.753  -1.324   2.077  0.00  0.00    +0.046 C 
ATOM      3  C   UNL     1       2.707   0.178   2.185  0.00  0.00    -0.026 A 
ATOM      4  C   UNL     1       3.770   0.866   2.728  0.00  0.00    +0.005 A 
ATOM      5  C   UNL     1       3.740   2.249   2.834  0.00  0.00    +0.001 A 
ATOM      6  C   UNL     1       2.654   2.956   2.401  0.00  0.00    +0.010 A 
ATOM      7  C   UNL     1       1.563   2.279   1.846  0.00  0.00    -0.001 A 
ATOM      8  C   UNL     1       1.590   0.876   1.737  0.00  0.00    +0.052 A 
ATOM      9  N   UNL     1       0.512   0.214   1.189  0.00  0.00    -0.322 N 
ATOM     10  H   UNL     1       0.533  -0.753   1.115  0.00  0.00    +0.169 HD
ATOM     11  C   UNL     1      -0.564   0.890   0.751  0.00  0.00    +0.251 A 
ATOM     12  O   UNL     1      -1.497   0.272   0.267  0.00  0.00    -0.268 OA
ATOM     13  C   UNL     1      -0.644   2.296   0.843  0.00  0.00    +0.011 A 
ATOM     14  C   UNL     1       0.383   3.005   1.372  0.00  0.00    +0.017 A 
ENDBRANCH   1  13
BRANCH   1  15
ATOM     15  C   UNL     1      -3.074   2.558   1.136  0.00  0.00    +0.143 A 
ATOM     16  N   UNL     1      -3.730   1.433   0.985  0.00  0.00    -0.115 NA
ATOM     17  N   UNL     1      -4.689   1.414   1.845  0.00  0.00    -0.023 NA
ATOM     18  N   UNL     1      -4.662   2.497   2.541  0.00  0.00    -0.043 NA
ATOM     19  N   UNL     1      -3.677   3.226   2.137  0.00  0.00    -0.225 N 
BRANCH  19  20
ATOM     20  C   UNL     1      -3.289   4.536   2.666  0.00  0.00    +0.059 C 
ATOM     21  C   UNL     1      -3.614   5.619   1.635  0.00  0.00    +0.036 C 
ATOM     22  C   UNL     1      -4.062   4.813   3.957  0.00  0.00    +0.036 C 
ATOM     23  C   UNL     1      -1.788   4.544   2.958  0.00  0.00    +0.036 C 
ENDBRANCH  19  20
ENDBRANCH   1  15
BRANCH   1  24
ATOM     24  N   UNL     1      -2.088   2.677  -1.078  0.00  0.00    +0.394 N 
ATOM     25  H   UNL     1      -2.461   1.722  -1.143  0.00  0.00    -0.080 HD
BRANCH  24  26
ATOM     26  C   UNL     1      -0.807   2.744  -1.812  0.00  0.00    -0.041 C 
BRANCH  26  27
ATOM     27  C   UNL     1      -0.970   2.041  -3.134  0.00  0.00    -0.064 A 
ATOM     28  C   UNL     1      -0.837   0.666  -3.206  0.00  0.00    +0.005 A 
ATOM     29  C   UNL     1      -0.991   0.018  -4.416  0.00  0.00    +0.046 A 
ATOM     30  C   UNL     1      -1.267   0.749  -5.563  0.00  0.00    +0.120 A 
ATOM     31  C   UNL     1      -1.395   2.129  -5.489  0.00  0.00    +0.046 A 
ATOM     32  C   UNL     1      -1.246   2.771  -4.275  0.00  0.00    +0.005 A 
BRANCH  30  33
ATOM     33  O   UNL     1      -1.413   0.115  -6.756  0.00  0.00    -0.495 OA
ATOM     34  C   UNL     1      -1.268  -1.307  -6.756  0.00  0.00    +0.277 C 
ENDBRANCH  30  33
ENDBRANCH  26  27
ENDBRANCH  24  26
BRANCH  24  35
ATOM     35  C   UNL     1      -3.063   3.614  -1.676  0.00  0.00    -0.045 C 
BRANCH  35  36
ATOM     36  C   UNL     1      -2.524   5.045  -1.637  0.00  0.00    +0.102 C 
ATOM     37  C   UNL     1      -3.626   6.046  -2.049  0.00  0.00    +0.032 C 
ATOM     38  C   UNL     1      -2.872   7.121  -2.864  0.00  0.00    +0.030 C 
ATOM     39  C   UNL     1      -1.403   6.642  -2.847  0.00  0.00    +0.160 C 
ATOM     40  O   UNL     1      -1.480   5.217  -2.619  0.00  0.00    -0.378 OA
ENDBRANCH  35  36
ENDBRANCH  24  35
ENDBRANCH   1  24
TORSDOF 9
