REMARK  Name = ZINC12467835
REMARK  5 active torsions:
REMARK  status: ('A' for Active; 'I' for Inactive)
REMARK    1  A    between atoms: C_8  and  N_52
REMARK    2  A    between atoms: C_15  and  C_17
REMARK    3  A    between atoms: C_17  and  C_18
REMARK    4  A    between atoms: N_20  and  C_21
REMARK    5  A    between atoms: C_21  and  C_22
REMARK                            x       y       z     vdW  Elec       q    Type
REMARK                         _______ _______ _______ _____ _____    ______ ____
ROOT
ATOM      1  C   UNL     1       1.294   3.096   0.003  0.00  0.00    -0.058 C 
ATOM      2  C   UNL     1       2.695   3.582   0.384  0.00  0.00    +0.085 C 
ATOM      3  N   UNL     1       3.693   2.949  -0.473  0.00  0.00    -0.318 N 
ATOM      4  C   UNL     1       3.447   1.842  -1.182  0.00  0.00    +0.200 C 
ATOM      5  O   UNL     1       4.343   1.365  -1.845  0.00  0.00    -0.278 OA
ATOM      6  C   UNL     1       2.105   1.165  -1.192  0.00  0.00    +0.028 C 
ATOM      7  H   UNL     1       4.575   3.350  -0.531  0.00  0.00    +0.149 HD
ATOM      8  N   UNL     1       1.316   1.620  -0.032  0.00  0.00    +0.391 N 
ATOM      9  H   UNL     1       1.752   1.270   0.829  0.00  0.00    -0.080 HD
ENDROOT
BRANCH   8  17
ATOM     10  C   UNL     1      -2.680   4.996  -0.860  0.00  0.00    +0.000 A 
ATOM     11  C   UNL     1      -2.744   4.970   0.520  0.00  0.00    +0.000 A 
ATOM     12  C   UNL     1      -2.197   3.909   1.216  0.00  0.00    +0.004 A 
ATOM     13  C   UNL     1      -1.586   2.870   0.534  0.00  0.00    -0.046 A 
ATOM     14  C   UNL     1      -1.522   2.896  -0.846  0.00  0.00    -0.046 A 
ATOM     15  C   UNL     1      -2.071   3.961  -1.542  0.00  0.00    +0.004 A 
ATOM     16  C   UNL     1      -0.811   1.658  -1.349  0.00  0.00    +0.020 C 
ATOM     17  C   UNL     1      -0.065   1.094  -0.121  0.00  0.00    -0.059 C 
ATOM     18  C   UNL     1      -0.917   1.613   1.057  0.00  0.00    +0.020 C 
ENDBRANCH   8  17
BRANCH   6  19
ATOM     19  C   UNL     1       2.300  -0.349  -1.097  0.00  0.00    +0.089 C 
BRANCH  19  20
ATOM     20  C   UNL     1       2.978  -0.688   0.205  0.00  0.00    +0.212 C 
ATOM     21  O   UNL     1       3.185   0.181   1.025  0.00  0.00    -0.276 OA
ATOM     22  N   UNL     1       3.355  -1.957   0.459  0.00  0.00    -0.311 N 
ATOM     23  H   UNL     1       3.189  -2.652  -0.197  0.00  0.00    +0.149 HD
BRANCH  22  24
ATOM     24  C   UNL     1       4.014  -2.287   1.725  0.00  0.00    +0.139 C 
BRANCH  24  25
ATOM     25  C   UNL     1       4.329  -3.760   1.758  0.00  0.00    -0.030 A 
ATOM     26  C   UNL     1       3.409  -4.652   2.278  0.00  0.00    +0.008 A 
ATOM     27  C   UNL     1       3.696  -6.003   2.305  0.00  0.00    +0.038 A 
ATOM     28  C   UNL     1       4.908  -6.464   1.821  0.00  0.00    +0.123 A 
ATOM     29  C   UNL     1       5.831  -5.569   1.306  0.00  0.00    +0.038 A 
ATOM     30  C   UNL     1       5.541  -4.218   1.275  0.00  0.00    +0.008 A 
ATOM     31  F   UNL     1       5.191  -7.784   1.851  0.00  0.00    -0.205 F 
ENDBRANCH  24  25
ENDBRANCH  22  24
ENDBRANCH  19  20
ENDBRANCH   6  19
TORSDOF 5
