REMARK  Name = ZINC15906319
REMARK  5 active torsions:
REMARK  status: ('A' for Active; 'I' for Inactive)
REMARK    1  A    between atoms: C_4  and  C_7
REMARK    2  A    between atoms: C_10  and  N_16
REMARK    3  A    between atoms: C_11  and  N_13
REMARK    4  A    between atoms: N_16  and  N_17
REMARK    5  A    between atoms: N_21  and  C_24
REMARK                            x       y       z     vdW  Elec       q    Type
REMARK                         _______ _______ _______ _____ _____    ______ ____
ROOT
ATOM      1  N   UNL     1       7.329  -2.674  -0.248  0.00  0.00    -0.235 N 
ATOM      2  H   UNL     1       7.300  -3.619  -0.467  0.00  0.00    +0.174 HD
ENDROOT
BRANCH   1   3
ATOM      3  N   UNL     1       8.463  -2.066  -0.161  0.00  0.00    -0.174 NA
ATOM      4  C   UNL     1       9.583  -2.722  -0.396  0.00  0.00    +0.186 C 
ATOM      5  C   UNL     1       9.783  -4.184  -0.409  0.00  0.00    +0.167 C 
ATOM      6  N   UNL     1      11.038  -4.404  -0.684  0.00  0.00    -0.155 NA
ATOM      7  N   UNL     1      11.735  -3.209  -0.864  0.00  0.00    -0.154 N 
ATOM      8  C   UNL     1      10.907  -2.157  -0.707  0.00  0.00    +0.294 C 
ATOM      9  O   UNL     1      11.196  -0.977  -0.802  0.00  0.00    -0.266 OA
ATOM     10  N   UNL     1       8.810  -5.152  -0.172  0.00  0.00    -0.340 N 
ATOM     11  H   UNL     1       7.877  -4.895  -0.102  0.00  0.00    +0.144 HD
ATOM     12  H   UNL     1       9.065  -6.084  -0.078  0.00  0.00    +0.144 HD
BRANCH   7  13
ATOM     13  C   UNL     1      13.098  -3.117  -1.168  0.00  0.00    +0.060 A 
ATOM     14  C   UNL     1      13.694  -1.871  -1.320  0.00  0.00    +0.025 A 
ATOM     15  C   UNL     1      15.039  -1.783  -1.620  0.00  0.00    +0.002 A 
ATOM     16  C   UNL     1      15.792  -2.933  -1.770  0.00  0.00    +0.000 A 
ATOM     17  C   UNL     1      15.202  -4.175  -1.619  0.00  0.00    +0.002 A 
ATOM     18  C   UNL     1      13.859  -4.270  -1.313  0.00  0.00    +0.025 A 
ENDBRANCH   7  13
ENDBRANCH   1   3
BRANCH   1  22
ATOM     19  C   UNL     1       3.788  -0.581   0.406  0.00  0.00    -0.016 A 
ATOM     20  C   UNL     1       5.017   0.045   0.611  0.00  0.00    +0.010 A 
ATOM     21  C   UNL     1       6.188  -0.649   0.394  0.00  0.00    +0.027 A 
ATOM     22  C   UNL     1       6.144  -1.974  -0.029  0.00  0.00    +0.078 A 
ATOM     23  C   UNL     1       4.918  -2.599  -0.234  0.00  0.00    +0.149 A 
ATOM     24  C   UNL     1       3.746  -1.910  -0.012  0.00  0.00    +0.043 A 
BRANCH  19  28
ATOM     25  C   UNL     1       0.173   1.557   1.073  0.00  0.00    +0.000 A 
ATOM     26  C   UNL     1       1.391   2.183   1.271  0.00  0.00    +0.001 A 
ATOM     27  C   UNL     1       2.567   1.494   1.057  0.00  0.00    +0.008 A 
ATOM     28  C   UNL     1       2.527   0.165   0.639  0.00  0.00    -0.018 A 
ATOM     29  C   UNL     1       1.298  -0.461   0.440  0.00  0.00    +0.008 A 
ATOM     30  C   UNL     1       0.127   0.238   0.658  0.00  0.00    +0.001 A 
ENDBRANCH  19  28
BRANCH  23  31
ATOM     31  N   UNL     1       4.874  -4.009  -0.685  0.00  0.00    +0.058 N 
ATOM     32  O   UNL     1       3.817  -4.517  -0.977  0.00  0.00    -0.126 OA
ATOM     33  O   UNL     1       5.895  -4.652  -0.761  0.00  0.00    -0.126 OA
ENDBRANCH  23  31
ENDBRANCH   1  22
TORSDOF 5
