REMARK  Name = ZINC19325494
REMARK  4 active torsions:
REMARK  status: ('A' for Active; 'I' for Inactive)
REMARK    1  A    between atoms: C_1  and  C_2
REMARK    2  A    between atoms: C_2  and  N_3
REMARK    3  A    between atoms: N_3  and  C_4
REMARK    4  A    between atoms: N_19  and  C_22
REMARK                            x       y       z     vdW  Elec       q    Type
REMARK                         _______ _______ _______ _____ _____    ______ ____
ROOT
ATOM      1  N   UNL     1      -1.372  -0.511   0.012  0.00  0.00    -0.273 N 
ATOM      2  C   UNL     1      -1.628  -1.330   1.089  0.00  0.00    +0.192 C 
ATOM      3  N   UNL     1      -2.429  -2.343   0.956  0.00  0.00    -0.211 NA
ATOM      4  C   UNL     1      -2.721  -3.247   2.060  0.00  0.00    +0.260 C 
ATOM      5  C   UNL     1      -2.026  -4.571   1.847  0.00  0.00    +0.032 A 
ATOM      6  C   UNL     1      -0.700  -4.929   1.745  0.00  0.00    +0.010 A 
ATOM      7  C   UNL     1      -0.356  -6.255   1.546  0.00  0.00    +0.001 A 
ATOM      8  C   UNL     1      -1.346  -7.216   1.451  0.00  0.00    +0.002 A 
ATOM      9  C   UNL     1      -2.675  -6.860   1.552  0.00  0.00    +0.024 A 
ATOM     10  C   UNL     1      -3.030  -5.527   1.752  0.00  0.00    +0.044 A 
ATOM     11  N   UNL     1      -4.282  -4.927   1.883  0.00  0.00    -0.270 N 
ATOM     12  C   UNL     1      -4.193  -3.598   2.065  0.00  0.00    +0.275 C 
ATOM     13  O   UNL     1      -5.118  -2.826   2.206  0.00  0.00    -0.270 OA
ATOM     14  C   UNL     1      -5.549  -5.660   1.829  0.00  0.00    +0.138 C 
ATOM     15  N   UNL     1      -2.341  -2.682   3.348  0.00  0.00    -0.212 NA
ATOM     16  C   UNL     1      -1.541  -1.663   3.444  0.00  0.00    +0.182 C 
ATOM     17  N   UNL     1      -1.027  -1.075   2.305  0.00  0.00    -0.260 N 
ATOM     18  N   UNL     1      -1.202  -1.173   4.683  0.00  0.00    -0.331 N 
ATOM     19  H   UNL     1      -0.257  -0.487   2.359  0.00  0.00    +0.157 HD
ATOM     20  H   UNL     1      -1.559  -1.588   5.483  0.00  0.00    +0.145 HD
ATOM     21  H   UNL     1      -0.605  -0.412   4.756  0.00  0.00    +0.145 HD
ENDROOT
BRANCH   1  22
ATOM     22  C   UNL     1      -2.016  -0.740  -1.208  0.00  0.00    +0.036 A 
ATOM     23  C   UNL     1      -3.253  -0.161  -1.462  0.00  0.00    +0.023 A 
ATOM     24  C   UNL     1      -3.885  -0.389  -2.668  0.00  0.00    +0.002 A 
ATOM     25  C   UNL     1      -3.288  -1.191  -3.623  0.00  0.00    +0.000 A 
ATOM     26  C   UNL     1      -2.057  -1.769  -3.374  0.00  0.00    +0.002 A 
ATOM     27  C   UNL     1      -1.417  -1.541  -2.172  0.00  0.00    +0.023 A 
ENDBRANCH   1  22
BRANCH   1  29
ATOM     28  C   UNL     1      -1.174   1.855   0.597  0.00  0.00    +0.025 C 
ATOM     29  C   UNL     1      -0.426   0.600   0.145  0.00  0.00    +0.110 C 
ENDBRANCH   1  29
TORSDOF 2
