REMARK  Name = ZINC08775017
REMARK  6 active torsions:
REMARK  status: ('A' for Active; 'I' for Inactive)
REMARK    1  A    between atoms: C_6  and  C_7
REMARK    2  A    between atoms: C_7  and  N_8
REMARK    3  A    between atoms: C_12  and  S_14
REMARK    4  A    between atoms: S_14  and  C_15
REMARK    5  A    between atoms: C_15  and  C_16
REMARK    6  A    between atoms: N_18  and  N_19
REMARK                            x       y       z     vdW  Elec       q    Type
REMARK                         _______ _______ _______ _____ _____    ______ ____
ROOT
ATOM      1  C   UNL     1       1.298  -9.339  -2.161  0.00  0.00    +0.173 C 
ENDROOT
BRANCH   1   2
ATOM      2  C   UNL     1       1.310 -10.712  -2.781  0.00  0.00    +0.240 C 
ATOM      3  O   UNL     1       1.300 -10.833  -3.988  0.00  0.00    -0.273 OA
ATOM      4  N   UNL     1       1.332 -11.806  -1.995  0.00  0.00    -0.223 N 
ATOM      5  H   UNL     1       1.340 -11.710  -1.030  0.00  0.00    +0.174 HD
BRANCH   4   6
ATOM      6  N   UNL     1       1.343 -13.083  -2.571  0.00  0.00    -0.137 N 
ATOM      7  C   UNL     1       2.430 -13.879  -2.630  0.00  0.00    +0.263 C 
ATOM      8  O   UNL     1       3.541 -13.636  -2.211  0.00  0.00    -0.271 OA
ATOM      9  C   UNL     1       1.972 -15.139  -3.329  0.00  0.00    +0.114 C 
ATOM     10  C   UNL     1       2.133 -16.345  -2.410  0.00  0.00    +0.035 C 
ATOM     11  C   UNL     1       1.637 -17.604  -3.126  0.00  0.00    +0.003 C 
ATOM     12  C   UNL     1       2.442 -17.810  -4.411  0.00  0.00    +0.000 C 
ATOM     13  C   UNL     1       2.251 -16.603  -5.332  0.00  0.00    +0.003 C 
ATOM     14  C   UNL     1       2.748 -15.339  -4.626  0.00  0.00    +0.035 C 
ATOM     15  N   UNL     1       0.552 -14.892  -3.612  0.00  0.00    -0.284 N 
ATOM     16  C   UNL     1       0.274 -13.667  -3.127  0.00  0.00    +0.326 C 
ATOM     17  O   UNL     1      -0.824 -13.149  -3.189  0.00  0.00    -0.251 OA
ATOM     18  H   UNL     1      -0.065 -15.495  -4.057  0.00  0.00    +0.151 HD
ENDBRANCH   4   6
ENDBRANCH   1   2
BRANCH   1  19
ATOM     19  S   UNL     1       1.270  -8.084  -3.471  0.00  0.00    -0.088 S 
BRANCH  19  24
ATOM     20  N   UNL     1       1.220  -2.668  -1.403  0.00  0.00    -0.318 N 
ATOM     21  C   UNL     1       1.235  -4.033  -1.664  0.00  0.00    +0.183 A 
ATOM     22  N   UNL     1       1.256  -5.045  -0.819  0.00  0.00    -0.125 NA
ATOM     23  N   UNL     1       1.268  -6.336  -1.295  0.00  0.00    -0.133 NA
ATOM     24  C   UNL     1       1.259  -6.555  -2.596  0.00  0.00    +0.160 A 
ATOM     25  S   UNL     1       1.224  -4.886  -3.233  0.00  0.00    -0.025 S 
ATOM     26  H   UNL     1       1.205  -2.034  -2.138  0.00  0.00    +0.148 HD
BRANCH  20  27
ATOM     27  C   UNL     1       1.227  -2.186  -0.020  0.00  0.00    +0.138 C 
BRANCH  27  33
ATOM     28  C   UNL     1       0.002  -0.004   0.002  0.00  0.00    +0.008 A 
ATOM     29  C   UNL     1      -0.017   1.378   0.010  0.00  0.00    +0.038 A 
ATOM     30  C   UNL     1       1.173   2.086   0.002  0.00  0.00    +0.123 A 
ATOM     31  C   UNL     1       2.381   1.408  -0.013  0.00  0.00    +0.038 A 
ATOM     32  C   UNL     1       2.397   0.026  -0.020  0.00  0.00    +0.008 A 
ATOM     33  C   UNL     1       1.208  -0.679  -0.013  0.00  0.00    -0.030 A 
ATOM     34  F   UNL     1       1.156   3.437   0.009  0.00  0.00    -0.205 F 
ENDBRANCH  27  33
ENDBRANCH  20  27
ENDBRANCH  19  24
ENDBRANCH   1  19
TORSDOF 6
