REMARK  Name = ZINC21222812
REMARK  9 active torsions:
REMARK  status: ('A' for Active; 'I' for Inactive)
REMARK    1  A    between atoms: C_1  and  C_2
REMARK    2  A    between atoms: C_2  and  O_3
REMARK    3  A    between atoms: O_3  and  C_4
REMARK    4  A    between atoms: C_7  and  C_12
REMARK    5  A    between atoms: C_9  and  O_10
REMARK    6  A    between atoms: O_10  and  C_11
REMARK    7  A    between atoms: C_17  and  C_22
REMARK    8  A    between atoms: C_27  and  O_28
REMARK    9  A    between atoms: O_28  and  C_29
REMARK                            x       y       z     vdW  Elec       q    Type
REMARK                         _______ _______ _______ _____ _____    ______ ____
ROOT
ATOM      1  C   UNL     1      -3.256   1.229   1.319  0.00  0.00    +0.136 C 
ATOM      2  C   UNL     1      -3.765   2.635   1.522  0.00  0.00    +0.036 C 
ATOM      3  C   UNL     1      -3.360   3.726   0.848  0.00  0.00    +0.017 C 
ATOM      4  C   UNL     1      -3.966   5.086   1.148  0.00  0.00    +0.060 C 
ATOM      5  C   UNL     1      -4.339   5.176   2.627  0.00  0.00    +0.035 C 
ATOM      6  C   UNL     1      -5.354   4.065   2.920  0.00  0.00    +0.088 C 
ATOM      7  C   UNL     1      -4.747   2.749   2.534  0.00  0.00    +0.163 C 
ATOM      8  O   UNL     1      -5.112   1.744   3.112  0.00  0.00    -0.292 OA
ATOM      9  N   UNL     1      -2.423   3.721  -0.133  0.00  0.00    -0.316 N 
ATOM     10  C   UNL     1      -1.197   3.071  -0.060  0.00  0.00    +0.052 A 
ATOM     11  C   UNL     1       0.006   3.753  -0.079  0.00  0.00    +0.025 A 
ATOM     12  C   UNL     1       1.192   3.039  -0.065  0.00  0.00    +0.002 A 
ATOM     13  C   UNL     1       1.175   1.657  -0.044  0.00  0.00    +0.002 A 
ATOM     14  C   UNL     1      -0.028   0.972  -0.015  0.00  0.00    +0.025 A 
ATOM     15  C   UNL     1      -1.216   1.685  -0.008  0.00  0.00    +0.049 A 
ATOM     16  N   UNL     1      -2.447   1.046   0.133  0.00  0.00    -0.331 N 
ATOM     17  H   UNL     1      -2.609   4.261  -1.073  0.00  0.00    +0.152 HD
ATOM     18  H   UNL     1      -2.801   0.393  -0.679  0.00  0.00    +0.147 HD
ENDROOT
BRANCH   1  22
ATOM     19  C   UNL     1      -0.913   0.135   4.725  0.00  0.00    +0.162 A 
ATOM     20  C   UNL     1      -0.512   1.184   3.913  0.00  0.00    +0.050 A 
ATOM     21  C   UNL     1      -1.272   1.534   2.812  0.00  0.00    +0.009 A 
ATOM     22  C   UNL     1      -2.432   0.842   2.520  0.00  0.00    -0.019 A 
ATOM     23  C   UNL     1      -2.840  -0.202   3.329  0.00  0.00    +0.055 A 
ATOM     24  C   UNL     1      -2.080  -0.562   4.431  0.00  0.00    +0.162 A 
BRANCH  24  25
ATOM     25  O   UNL     1      -2.478  -1.592   5.225  0.00  0.00    -0.491 OA
ATOM     26  C   UNL     1      -3.686  -2.263   4.862  0.00  0.00    +0.277 C 
ENDBRANCH  24  25
BRANCH  19  27
ATOM     27  O   UNL     1      -0.167  -0.210   5.808  0.00  0.00    -0.489 OA
BRANCH  27  29
ATOM     28  C   UNL     1       1.720   0.018   7.301  0.00  0.00    +0.048 C 
ATOM     29  C   UNL     1       1.019   0.550   6.050  0.00  0.00    +0.226 C 
ENDBRANCH  27  29
ENDBRANCH  19  27
ENDBRANCH   1  22
BRANCH   5  30
ATOM     30  C   UNL     1      -4.955   6.520   2.919  0.00  0.00    -0.002 A 
ATOM     31  C   UNL     1      -6.088   6.923   2.240  0.00  0.00    +0.007 A 
ATOM     32  C   UNL     1      -6.654   8.156   2.509  0.00  0.00    +0.001 A 
ATOM     33  C   UNL     1      -6.087   8.988   3.456  0.00  0.00    +0.004 A 
ATOM     34  C   UNL     1      -4.953   8.590   4.137  0.00  0.00    +0.046 A 
ATOM     35  C   UNL     1      -4.386   7.351   3.873  0.00  0.00    +0.124 A 
BRANCH  35  36
ATOM     36  O   UNL     1      -3.274   6.954   4.546  0.00  0.00    -0.495 OA
ATOM     37  C   UNL     1      -2.744   7.861   5.515  0.00  0.00    +0.277 C 
ENDBRANCH  35  36
ENDBRANCH   5  30
TORSDOF 6
