REMARK  Name = ZINC05077734
REMARK  8 active torsions:
REMARK  status: ('A' for Active; 'I' for Inactive)
REMARK    1  A    between atoms: C_1  and  C_2
REMARK    2  A    between atoms: C_2  and  C_25
REMARK    3  A    between atoms: C_4  and  N_9
REMARK    4  A    between atoms: C_6  and  C_7
REMARK    5  A    between atoms: C_6  and  C_8
REMARK    6  A    between atoms: C_10  and  C_12
REMARK    7  A    between atoms: C_12  and  O_13
REMARK    8  A    between atoms: O_13  and  C_14
REMARK                            x       y       z     vdW  Elec       q    Type
REMARK                         _______ _______ _______ _____ _____    ______ ____
ROOT
ATOM      1  N   UNL     1       3.159  10.292   0.022  0.00  0.00    -0.310 N 
ATOM      2  C   UNL     1       2.100   9.458   0.028  0.00  0.00    +0.251 C 
ATOM      3  O   UNL     1       0.974   9.907   0.041  0.00  0.00    -0.272 OA
ATOM      4  H   UNL     1       4.060   9.932   0.011  0.00  0.00    +0.149 HD
ENDROOT
BRANCH   1   8
ATOM      5  C   UNL     1       3.017  14.340   1.748  0.00  0.00    -0.010 C 
ATOM      6  C   UNL     1       3.994  13.944   0.634  0.00  0.00    -0.072 C 
ATOM      7  C   UNL     1       4.176  12.428   0.632  0.00  0.00    +0.009 C 
ATOM      8  C   UNL     1       2.948  11.745   0.030  0.00  0.00    +0.070 C 
ATOM      9  C   UNL     1       2.774  12.237  -1.406  0.00  0.00    +0.009 C 
ATOM     10  C   UNL     1       2.576  13.751  -1.429  0.00  0.00    -0.072 C 
ATOM     11  C   UNL     1       1.154  14.089  -0.965  0.00  0.00    -0.010 C 
ATOM     12  C   UNL     1       2.698  14.213  -2.899  0.00  0.00    -0.010 C 
ATOM     13  C   UNL     1       5.360  14.577   0.978  0.00  0.00    -0.010 C 
ATOM     14  N   UNL     1       3.594  14.528  -0.674  0.00  0.00    +0.386 N 
ATOM     15  H   UNL     1       4.435  14.603  -1.259  0.00  0.00    -0.084 HD
ATOM     16  H   UNL     1       3.214  15.466  -0.500  0.00  0.00    -0.084 HD
ENDBRANCH   1   8
BRANCH   2  17
ATOM     17  C   UNL     1       2.316   7.966   0.019  0.00  0.00    +0.324 C 
BRANCH  17  18
ATOM     18  O   UNL     1       1.051   7.302   0.028  0.00  0.00    -0.482 OA
BRANCH  18  19
ATOM     19  C   UNL     1       1.068   5.943   0.021  0.00  0.00    +0.136 A 
ATOM     20  C   UNL     1       2.293   5.268   0.006  0.00  0.00    +0.047 A 
ATOM     21  C   UNL     1       2.342   3.909  -0.000  0.00  0.00    +0.012 A 
ATOM     22  C   UNL     1       1.148   3.167   0.008  0.00  0.00    -0.017 A 
ATOM     23  C   UNL     1       1.163   1.762   0.000  0.00  0.00    +0.008 A 
ATOM     24  C   UNL     1      -0.013   1.076   0.008  0.00  0.00    +0.001 A 
ATOM     25  C   UNL     1      -1.235   1.746   0.017  0.00  0.00    +0.001 A 
ATOM     26  C   UNL     1      -1.288   3.106   0.030  0.00  0.00    +0.010 A 
ATOM     27  C   UNL     1      -0.095   3.849   0.023  0.00  0.00    -0.000 A 
ATOM     28  C   UNL     1      -0.112   5.254   0.029  0.00  0.00    +0.067 A 
ATOM     29 BR   UNL     1      -1.757   6.185   0.049  0.00  0.00    -0.046 Br
ENDBRANCH  18  19
ENDBRANCH  17  18
ENDBRANCH   2  17
TORSDOF 4
