REMARK  Name = ZINC49597340
REMARK  5 active torsions:
REMARK  status: ('A' for Active; 'I' for Inactive)
REMARK    1  A    between atoms: C_1  and  C_2
REMARK    2  A    between atoms: C_4  and  C_27
REMARK    3  A    between atoms: C_7  and  C_14
REMARK    4  A    between atoms: C_14  and  C_15
REMARK    5  A    between atoms: C_15  and  N_16
REMARK                            x       y       z     vdW  Elec       q    Type
REMARK                         _______ _______ _______ _____ _____    ______ ____
ROOT
ATOM      1  C   UNL     1      -0.018   1.503   0.010  0.00  0.00    +0.044 C 
ATOM      2  C   UNL     1       0.002  -0.004   0.002  0.00  0.00    -0.048 A 
ATOM      3  C   UNL     1       0.006  -0.684  -1.208  0.00  0.00    +0.007 A 
ATOM      4  C   UNL     1       0.024  -2.050  -1.238  0.00  0.00    -0.041 A 
ATOM      5  C   UNL     1       0.040  -2.769  -0.039  0.00  0.00    +0.002 A 
ATOM      6  C   UNL     1       0.060  -4.233  -0.034  0.00  0.00    +0.019 A 
ATOM      7  C   UNL     1       0.075  -4.877   1.159  0.00  0.00    +0.019 A 
ATOM      8  C   UNL     1       0.070  -4.142   2.364  0.00  0.00    +0.252 A 
ATOM      9  O   UNL     1       0.084  -4.740   3.426  0.00  0.00    -0.268 OA
ATOM     10  N   UNL     1       0.052  -2.797   2.370  0.00  0.00    -0.322 N 
ATOM     11  H   UNL     1       0.050  -2.323   3.216  0.00  0.00    +0.169 HD
ATOM     12  C   UNL     1       0.036  -2.083   1.190  0.00  0.00    +0.050 A 
ATOM     13  C   UNL     1       0.023  -0.692   1.196  0.00  0.00    +0.029 A 
ATOM     14  C   UNL     1       0.027  -2.778  -2.558  0.00  0.00    +0.044 C 
ENDROOT
BRANCH   7  15
ATOM     15  C   UNL     1       0.096  -6.383   1.200  0.00  0.00    +0.060 C 
BRANCH  15  16
ATOM     16  C   UNL     1       1.540  -6.870   1.332  0.00  0.00    +0.122 C 
BRANCH  16  17
ATOM     17  N   UNL     1       1.560  -8.335   1.371  0.00  0.00    -0.234 N 
ATOM     18  C   UNL     1       1.473  -9.067   2.496  0.00  0.00    +0.254 C 
ATOM     19  O   UNL     1       1.368  -8.627   3.622  0.00  0.00    -0.270 OA
ATOM     20  C   UNL     1       1.528 -10.499   2.131  0.00  0.00    +0.049 A 
ATOM     21  C   UNL     1       1.483 -11.683   2.849  0.00  0.00    +0.014 A 
ATOM     22  C   UNL     1       1.560 -12.895   2.181  0.00  0.00    +0.001 A 
ATOM     23  C   UNL     1       1.681 -12.930   0.805  0.00  0.00    +0.001 A 
ATOM     24  C   UNL     1       1.727 -11.754   0.073  0.00  0.00    +0.014 A 
ATOM     25  C   UNL     1       1.651 -10.534   0.727  0.00  0.00    +0.049 A 
ATOM     26  C   UNL     1       1.662  -9.124   0.286  0.00  0.00    +0.254 C 
ATOM     27  O   UNL     1       1.751  -8.741  -0.863  0.00  0.00    -0.270 OA
ENDBRANCH  16  17
ENDBRANCH  15  16
ENDBRANCH   7  15
TORSDOF 3
