REMARK  Name = ZINC48547598
REMARK  11 active torsions:
REMARK  status: ('A' for Active; 'I' for Inactive)
REMARK    1  A    between atoms: C_1  and  O_2
REMARK    2  A    between atoms: O_2  and  C_3
REMARK    3  A    between atoms: C_3  and  C_5
REMARK    4  A    between atoms: C_5  and  C_6
REMARK    5  A    between atoms: C_5  and  N_13
REMARK    6  A    between atoms: C_5  and  P_22
REMARK    7  A    between atoms: C_14  and  C_16
REMARK    8  A    between atoms: P_22  and  O_24
REMARK    9  A    between atoms: P_22  and  O_26
REMARK   10  A    between atoms: O_24  and  C_25
REMARK   11  A    between atoms: O_26  and  C_27
REMARK                            x       y       z     vdW  Elec       q    Type
REMARK                         _______ _______ _______ _____ _____    ______ ____
ROOT
ATOM      1  C   UNL     1      -1.244  -2.135   0.003  0.00  0.00    +0.259 C 
ENDROOT
BRANCH   1   2
ATOM      2  C   UNL     1      -0.765  -2.663   1.330  0.00  0.00    -0.001 A 
ATOM      3  C   UNL     1      -1.042  -1.967   2.491  0.00  0.00    +0.008 A 
ATOM      4  C   UNL     1      -0.604  -2.450   3.710  0.00  0.00    +0.020 A 
ATOM      5  C   UNL     1       0.113  -3.632   3.767  0.00  0.00    +0.041 A 
ATOM      6  C   UNL     1       0.391  -4.329   2.604  0.00  0.00    +0.020 A 
ATOM      7  C   UNL     1      -0.053  -3.847   1.387  0.00  0.00    +0.008 A 
ATOM      8 CL   UNL     1       0.665  -4.240   5.296  0.00  0.00    -0.084 Cl
ENDBRANCH   1   2
BRANCH   1   9
ATOM      9  N   UNL     1      -0.386  -2.652  -1.067  0.00  0.00    -0.283 N 
ATOM     10  C   UNL     1       0.934  -2.378  -1.064  0.00  0.00    +0.246 C 
ATOM     11  O   UNL     1       1.412  -1.701  -0.174  0.00  0.00    -0.270 OA
ATOM     12  H   UNL     1      -0.767  -3.192  -1.777  0.00  0.00    +0.151 HD
BRANCH  10  13
ATOM     13  C   UNL     1       1.800  -2.899  -2.143  0.00  0.00    +0.037 A 
ATOM     14  C   UNL     1       1.253  -3.671  -3.169  0.00  0.00    +0.013 A 
ATOM     15  C   UNL     1       2.066  -4.154  -4.173  0.00  0.00    +0.001 A 
ATOM     16  C   UNL     1       3.421  -3.875  -4.164  0.00  0.00    +0.000 A 
ATOM     17  C   UNL     1       3.970  -3.111  -3.149  0.00  0.00    +0.001 A 
ATOM     18  C   UNL     1       3.166  -2.616  -2.143  0.00  0.00    +0.013 A 
ENDBRANCH  10  13
ENDBRANCH   1   9
BRANCH   1  19
ATOM     19  C   UNL     1      -1.185  -0.630   0.010  0.00  0.00    +0.348 C 
ATOM     20  O   UNL     1      -2.208   0.015   0.023  0.00  0.00    -0.247 OA
BRANCH  19  22
ATOM     21  C   UNL     1      -0.017   1.425   0.010  0.00  0.00    +0.280 C 
ATOM     22  O   UNL     1       0.002  -0.004   0.002  0.00  0.00    -0.466 OA
ENDBRANCH  19  22
ENDBRANCH   1  19
BRANCH   1  23
ATOM     23  P   UNL     1      -2.962  -2.676  -0.282  0.00  0.00    +0.371 P 
ATOM     24  O   UNL     1      -3.753  -2.475   0.952  0.00  0.00    -0.255 OA
BRANCH  23  25
ATOM     25  O   UNL     1      -3.605  -1.811  -1.479  0.00  0.00    -0.309 OA
ATOM     26  C   UNL     1      -4.974  -1.924  -1.872  0.00  0.00    +0.204 C 
ENDBRANCH  23  25
BRANCH  23  27
ATOM     27  O   UNL     1      -2.975  -4.236  -0.681  0.00  0.00    -0.309 OA
ATOM     28  C   UNL     1      -4.179  -4.981  -0.866  0.00  0.00    +0.204 C 
ENDBRANCH  23  27
ENDBRANCH   1  23
TORSDOF 8
