REMARK  Name = ZINC65743009
REMARK  8 active torsions:
REMARK  status: ('A' for Active; 'I' for Inactive)
REMARK    1  A    between atoms: C_1  and  O_2
REMARK    2  A    between atoms: O_2  and  C_3
REMARK    3  A    between atoms: C_3  and  C_5
REMARK    4  A    between atoms: C_7  and  O_35
REMARK    5  A    between atoms: C_9  and  O_34
REMARK    6  A    between atoms: C_11  and  O_33
REMARK    7  A    between atoms: C_13  and  O_16
REMARK    8  A    between atoms: O_16  and  C_17
REMARK                            x       y       z     vdW  Elec       q    Type
REMARK                         _______ _______ _______ _____ _____    ______ ____
ROOT
ATOM      1  O   UNL     1       0.050  -4.502   2.432  0.00  0.00    -0.460 OA
ENDROOT
BRANCH   1   2
ATOM      2  C   UNL     1      -0.820  -4.154   3.421  0.00  0.00    +0.132 A 
ATOM      3  C   UNL     1      -0.395  -3.229   4.487  0.00  0.00    +0.047 A 
ATOM      4  C   UNL     1      -1.228  -2.886   5.448  0.00  0.00    +0.012 A 
ATOM      5  C   UNL     1      -2.596  -3.432   5.457  0.00  0.00    -0.016 A 
ATOM      6  C   UNL     1      -3.551  -3.068   6.517  0.00  0.00    +0.009 A 
ATOM      7  C   UNL     1      -4.772  -3.568   6.508  0.00  0.00    +0.009 A 
ATOM      8  C   UNL     1      -5.184  -4.491   5.437  0.00  0.00    -0.017 A 
ATOM      9  C   UNL     1      -6.542  -5.060   5.406  0.00  0.00    +0.008 A 
ATOM     10  C   UNL     1      -6.883  -5.883   4.436  0.00  0.00    +0.001 A 
ATOM     11  C   UNL     1      -5.917  -6.240   3.381  0.00  0.00    +0.008 A 
ATOM     12  C   UNL     1      -4.704  -5.733   3.406  0.00  0.00    -0.017 A 
ATOM     13  C   UNL     1      -4.330  -4.813   4.495  0.00  0.00    -0.002 A 
ATOM     14  C   UNL     1      -2.967  -4.255   4.505  0.00  0.00    +0.001 A 
ATOM     15  C   UNL     1      -2.042  -4.640   3.424  0.00  0.00    +0.025 A 
ATOM     16  C   UNL     1      -2.503  -5.561   2.374  0.00  0.00    +0.013 A 
ATOM     17  C   UNL     1      -3.714  -6.066   2.370  0.00  0.00    +0.009 A 
ENDBRANCH   1   2
BRANCH   1  22
ATOM     18  C   UNL     1       0.679  -2.115   1.088  0.00  0.00    +0.261 C 
ATOM     19  C   UNL     1       1.517  -2.639  -0.081  0.00  0.00    +0.185 C 
ATOM     20  C   UNL     1       1.624  -4.164   0.021  0.00  0.00    +0.180 C 
ATOM     21  C   UNL     1       2.227  -4.533   1.380  0.00  0.00    +0.214 C 
ATOM     22  C   UNL     1       1.361  -3.936   2.493  0.00  0.00    +0.340 C 
ATOM     23  O   UNL     1       1.277  -2.520   2.321  0.00  0.00    -0.322 OA
BRANCH  18  24
ATOM     24  C   UNL     1       0.618  -0.611   1.029  0.00  0.00    +0.339 C 
ATOM     25  O   UNL     1       1.124   0.049   1.905  0.00  0.00    -0.248 OA
BRANCH  24  27
ATOM     26  C   UNL     1      -0.017   1.425   0.010  0.00  0.00    +0.280 C 
ATOM     27  O   UNL     1       0.002  -0.004   0.002  0.00  0.00    -0.466 OA
ENDBRANCH  24  27
ENDBRANCH  18  24
BRANCH  21  28
ATOM     28  O   UNL     1       2.265  -5.955   1.515  0.00  0.00    -0.383 OA
ATOM     29  H   UNL     1       2.636  -6.261   2.354  0.00  0.00    +0.210 HD
ENDBRANCH  21  28
BRANCH  20  30
ATOM     30  O   UNL     1       0.323  -4.744  -0.100  0.00  0.00    -0.386 OA
ATOM     31  H   UNL     1       0.316  -5.709  -0.045  0.00  0.00    +0.210 HD
ENDBRANCH  20  30
BRANCH  19  32
ATOM     32  O   UNL     1       0.890  -2.285  -1.315  0.00  0.00    -0.386 OA
ATOM     33  H   UNL     1       0.786  -1.332  -1.443  0.00  0.00    +0.210 HD
ENDBRANCH  19  32
ENDBRANCH   1  22
TORSDOF 7
