REMARK  Name = ZINC39425725
REMARK  8 active torsions:
REMARK  status: ('A' for Active; 'I' for Inactive)
REMARK    1  A    between atoms: C_1  and  C_2
REMARK    2  A    between atoms: N_4  and  C_5
REMARK    3  A    between atoms: C_8  and  N_11
REMARK    4  A    between atoms: C_12  and  C_14
REMARK    5  A    between atoms: C_14  and  C_15
REMARK    6  A    between atoms: N_19  and  C_30
REMARK    7  A    between atoms: N_22  and  C_23
REMARK    8  A    between atoms: C_23  and  C_24
REMARK                            x       y       z     vdW  Elec       q    Type
REMARK                         _______ _______ _______ _____ _____    ______ ____
ROOT
ATOM      1  C   UNL     1      -2.297  -8.158  -0.129  0.00  0.00    +0.128 C 
ENDROOT
BRANCH   1   2
ATOM      2  C   UNL     1      -3.632  -8.899  -0.019  0.00  0.00    +0.171 C 
ATOM      3  C   UNL     1      -3.402 -10.386   0.169  0.00  0.00    +0.242 C 
ATOM      4  O   UNL     1      -2.844 -11.143  -0.596  0.00  0.00    -0.273 OA
ATOM      5  N   UNL     1      -3.947 -10.690   1.363  0.00  0.00    -0.255 N 
ATOM      6  C   UNL     1      -4.484  -9.614   1.950  0.00  0.00    +0.143 C 
ATOM      7  S   UNL     1      -5.258  -9.649   3.476  0.00  0.00    -0.018 S 
ATOM      8  N   UNL     1      -4.348  -8.499   1.204  0.00  0.00    -0.296 N 
ATOM      9  C   UNL     1      -3.953 -12.034   1.946  0.00  0.00    +0.140 C 
BRANCH   8  10
ATOM     10  C   UNL     1      -4.818  -7.153   1.542  0.00  0.00    +0.142 C 
BRANCH  10  11
ATOM     11  C   UNL     1      -6.258  -7.003   1.123  0.00  0.00    -0.030 A 
ATOM     12  C   UNL     1      -6.564  -6.547  -0.145  0.00  0.00    +0.005 A 
ATOM     13  C   UNL     1      -7.885  -6.410  -0.530  0.00  0.00    +0.000 A 
ATOM     14  C   UNL     1      -8.899  -6.730   0.353  0.00  0.00    +0.000 A 
ATOM     15  C   UNL     1      -8.592  -7.187   1.621  0.00  0.00    +0.000 A 
ATOM     16  C   UNL     1      -7.272  -7.328   2.005  0.00  0.00    +0.005 A 
ENDBRANCH  10  11
ENDBRANCH   8  10
ENDBRANCH   1   2
BRANCH   1  18
ATOM     17  N   UNL     1      -0.415  -8.021  -1.727  0.00  0.00    -0.285 N 
ATOM     18  C   UNL     1      -1.652  -8.479  -1.452  0.00  0.00    +0.219 C 
ATOM     19  O   UNL     1      -2.247  -9.148  -2.270  0.00  0.00    -0.275 OA
ATOM     20  H   UNL     1       0.031  -7.424  -1.105  0.00  0.00    +0.155 HD
BRANCH  17  24
ATOM     21  C   UNL     1       1.501  -9.171  -5.247  0.00  0.00    +0.033 A 
ATOM     22  C   UNL     1       1.820  -7.960  -4.647  0.00  0.00    +0.025 A 
ATOM     23  C   UNL     1       1.186  -7.579  -3.482  0.00  0.00    +0.025 A 
ATOM     24  C   UNL     1       0.229  -8.407  -2.909  0.00  0.00    +0.033 A 
ATOM     25  C   UNL     1      -0.090  -9.618  -3.510  0.00  0.00    +0.025 A 
ATOM     26  C   UNL     1       0.540  -9.996  -4.678  0.00  0.00    +0.025 A 
BRANCH  21  30
ATOM     27  C   UNL     1       2.128 -10.570  -8.687  0.00  0.00    +0.109 C 
ATOM     28  C   UNL     1       1.467 -10.243  -7.373  0.00  0.00    +0.214 C 
ATOM     29  O   UNL     1       0.326 -10.597  -7.163  0.00  0.00    -0.276 OA
ATOM     30  N   UNL     1       2.144  -9.558  -6.430  0.00  0.00    -0.286 N 
ATOM     31  H   UNL     1       3.077  -9.332  -6.571  0.00  0.00    +0.155 HD
ENDBRANCH  21  30
ENDBRANCH  17  24
ENDBRANCH   1  18
TORSDOF 6
