REMARK  Name = ZINC14242199
REMARK  6 active torsions:
REMARK  status: ('A' for Active; 'I' for Inactive)
REMARK    1  A    between atoms: C_1  and  C_2
REMARK    2  A    between atoms: C_2  and  C_4
REMARK    3  A    between atoms: C_2  and  S_19
REMARK    4  A    between atoms: N_6  and  C_7
REMARK    5  A    between atoms: S_19  and  C_20
REMARK    6  A    between atoms: C_23  and  C_25
REMARK                            x       y       z     vdW  Elec       q    Type
REMARK                         _______ _______ _______ _____ _____    ______ ____
ROOT
ATOM      1  C   UNL     1       2.653   8.008   0.635  0.00  0.00    +0.029 C 
ATOM      2  C   UNL     1       1.451   8.193  -0.292  0.00  0.00    +0.139 C 
ENDROOT
BRANCH   2   3
ATOM      3  C   UNL     1       1.485   9.577  -0.888  0.00  0.00    +0.230 C 
ATOM      4  O   UNL     1       1.903   9.742  -2.015  0.00  0.00    -0.274 OA
ATOM      5  N   UNL     1       1.050  10.631  -0.169  0.00  0.00    -0.285 N 
ATOM      6  H   UNL     1       0.645  10.491   0.701  0.00  0.00    +0.155 HD
BRANCH   5   7
ATOM      7  C   UNL     1       1.184  11.929  -0.679  0.00  0.00    +0.035 A 
ATOM      8  C   UNL     1       0.226  12.892  -0.384  0.00  0.00    +0.025 A 
ATOM      9  C   UNL     1       0.352  14.173  -0.882  0.00  0.00    +0.029 A 
ATOM     10  C   UNL     1       1.437  14.501  -1.681  0.00  0.00    +0.067 A 
ATOM     11  C   UNL     1       2.401  13.536  -1.979  0.00  0.00    +0.069 A 
ATOM     12  C   UNL     1       2.275  12.252  -1.472  0.00  0.00    +0.051 A 
ATOM     13  N   UNL     1       3.353  14.154  -2.787  0.00  0.00    -0.306 N 
ATOM     14  H   UNL     1       4.146  13.732  -3.154  0.00  0.00    +0.170 HD
ATOM     15  C   UNL     1       2.986  15.436  -2.972  0.00  0.00    +0.325 A 
ATOM     16  O   UNL     1       3.601  16.253  -3.631  0.00  0.00    -0.247 OA
ATOM     17  N   UNL     1       1.834  15.677  -2.317  0.00  0.00    -0.306 N 
ATOM     18  H   UNL     1       1.361  16.523  -2.293  0.00  0.00    +0.170 HD
ENDBRANCH   5   7
ENDBRANCH   2   3
BRANCH   2  19
ATOM     19  S   UNL     1       1.516   6.963  -1.619  0.00  0.00    -0.053 S 
BRANCH  19  20
ATOM     20  C   UNL     1       1.313   5.488  -0.678  0.00  0.00    +0.278 A 
ATOM     21  N   UNL     1       1.162   5.409   0.622  0.00  0.00    -0.101 NA
ATOM     22  N   UNL     1       1.041   4.174   0.962  0.00  0.00    -0.108 NA
ATOM     23  C   UNL     1       1.109   3.422  -0.097  0.00  0.00    +0.262 A 
ATOM     24  O   UNL     1       1.287   4.231  -1.160  0.00  0.00    -0.412 OA
BRANCH  23  25
ATOM     25  C   UNL     1       1.012   1.918  -0.129  0.00  0.00    +0.297 C 
ATOM     26  C   UNL     1      -0.448   1.489   0.077  0.00  0.00    +0.283 C 
ATOM     27  O   UNL     1      -0.502   0.059   0.054  0.00  0.00    -0.484 OA
ATOM     28  C   UNL     1       0.435  -0.601   0.788  0.00  0.00    +0.162 A 
ATOM     29  C   UNL     1       0.238  -1.938   1.102  0.00  0.00    +0.049 A 
ATOM     30  C   UNL     1       1.182  -2.622   1.844  0.00  0.00    +0.004 A 
ATOM     31  C   UNL     1       2.326  -1.976   2.275  0.00  0.00    +0.004 A 
ATOM     32  C   UNL     1       2.529  -0.644   1.967  0.00  0.00    +0.049 A 
ATOM     33  C   UNL     1       1.584   0.049   1.224  0.00  0.00    +0.163 A 
ATOM     34  O   UNL     1       1.796   1.361   0.931  0.00  0.00    -0.472 OA
ENDBRANCH  23  25
ENDBRANCH  19  20
ENDBRANCH   2  19
TORSDOF 5
