REMARK  Name = ZINC09293477
REMARK  12 active torsions:
REMARK  status: ('A' for Active; 'I' for Inactive)
REMARK    1  A    between atoms: C_1  and  C_2
REMARK    2  A    between atoms: C_2  and  C_4
REMARK    3  A    between atoms: C_2  and  N_64
REMARK    4  A    between atoms: N_6  and  C_7
REMARK    5  A    between atoms: C_13  and  O_14
REMARK    6  A    between atoms: O_14  and  C_15
REMARK    7  A    between atoms: C_18  and  C_19
REMARK    8  A    between atoms: C_19  and  O_21
REMARK    9  A    between atoms: O_21  and  C_22
REMARK   10  A    between atoms: N_25  and  C_28
REMARK   11  A    between atoms: C_33  and  O_34
REMARK   12  A    between atoms: O_34  and  C_35
REMARK                            x       y       z     vdW  Elec       q    Type
REMARK                         _______ _______ _______ _____ _____    ______ ____
ROOT
ATOM      1  C   UNL     1      -0.425   6.179  -1.907  0.00  0.00    +0.203 C 
ATOM      2  O   UNL     1      -1.367   5.447  -2.126  0.00  0.00    -0.277 OA
ATOM      3  N   UNL     1      -0.319   7.354  -2.557  0.00  0.00    -0.284 N 
ATOM      4  H   UNL     1       0.470   7.905  -2.438  0.00  0.00    +0.155 HD
ENDROOT
BRANCH   3   5
ATOM      5  C   UNL     1      -1.341   7.778  -3.400  0.00  0.00    +0.077 A 
ATOM      6  C   UNL     1      -2.003   6.986  -4.437  0.00  0.00    +0.063 A 
ATOM      7  C   UNL     1      -2.968   7.823  -5.029  0.00  0.00    +0.052 A 
ATOM      8  C   UNL     1      -3.760   7.327  -6.062  0.00  0.00    +0.026 A 
ATOM      9  C   UNL     1      -3.598   6.030  -6.496  0.00  0.00    +0.006 A 
ATOM     10  C   UNL     1      -2.648   5.201  -5.917  0.00  0.00    +0.046 A 
ATOM     11  C   UNL     1      -1.849   5.668  -4.891  0.00  0.00    +0.131 A 
ATOM     12  N   UNL     1      -2.909   9.046  -4.403  0.00  0.00    -0.347 N 
ATOM     13  H   UNL     1      -3.468   9.809  -4.618  0.00  0.00    +0.166 HD
ATOM     14  C   UNL     1      -1.934   9.025  -3.416  0.00  0.00    +0.147 A 
BRANCH  11  15
ATOM     15  O   UNL     1      -0.921   4.855  -4.324  0.00  0.00    -0.494 OA
ATOM     16  C   UNL     1      -0.822   3.525  -4.839  0.00  0.00    +0.277 C 
ENDBRANCH  11  15
BRANCH  14  17
ATOM     17  C   UNL     1      -1.598  10.107  -2.565  0.00  0.00    +0.357 C 
ATOM     18  O   UNL     1      -0.740   9.968  -1.714  0.00  0.00    -0.243 OA
BRANCH  17  19
ATOM     19  O   UNL     1      -2.231  11.292  -2.700  0.00  0.00    -0.463 OA
ATOM     20  C   UNL     1      -1.842  12.339  -1.808  0.00  0.00    +0.280 C 
ENDBRANCH  17  19
ENDBRANCH  14  17
ENDBRANCH   3   5
BRANCH   1  22
ATOM     21  C   UNL     1       1.743   5.009  -1.622  0.00  0.00    -0.004 C 
ATOM     22  C   UNL     1       0.627   5.773  -0.907  0.00  0.00    +0.017 C 
BRANCH  22  28
ATOM     23  C   UNL     1       1.033   4.446   1.078  0.00  0.00    -0.059 C 
ATOM     24  C   UNL     1       0.380   3.491   2.079  0.00  0.00    +0.086 C 
ATOM     25  N   UNL     1      -0.718   4.183   2.768  0.00  0.00    -0.331 N 
ATOM     26  C   UNL     1      -1.729   4.648   1.808  0.00  0.00    +0.086 C 
ATOM     27  C   UNL     1      -1.076   5.604   0.807  0.00  0.00    -0.059 C 
ATOM     28  N   UNL     1       0.011   4.889   0.106  0.00  0.00    +0.389 N 
ATOM     29  H   UNL     1      -0.380   4.065  -0.365  0.00  0.00    -0.081 HD
BRANCH  25  30
ATOM     30  C   UNL     1      -1.294   3.362   3.744  0.00  0.00    +0.072 A 
ATOM     31  C   UNL     1      -1.872   2.153   3.384  0.00  0.00    +0.027 A 
ATOM     32  C   UNL     1      -2.436   1.342   4.351  0.00  0.00    +0.002 A 
ATOM     33  C   UNL     1      -2.435   1.736   5.676  0.00  0.00    +0.004 A 
ATOM     34  C   UNL     1      -1.866   2.942   6.042  0.00  0.00    +0.047 A 
ATOM     35  C   UNL     1      -1.294   3.759   5.080  0.00  0.00    +0.141 A 
BRANCH  35  36
ATOM     36  O   UNL     1      -0.735   4.945   5.438  0.00  0.00    -0.493 OA
ATOM     37  C   UNL     1      -0.771   5.287   6.825  0.00  0.00    +0.277 C 
ENDBRANCH  35  36
ENDBRANCH  25  30
ENDBRANCH  22  28
ENDBRANCH   1  22
TORSDOF 8
