REMARK  Name = ZINC08972977
REMARK  5 active torsions:
REMARK  status: ('A' for Active; 'I' for Inactive)
REMARK    1  A    between atoms: C_1  and  C_2
REMARK    2  A    between atoms: C_2  and  C_3
REMARK    3  A    between atoms: C_3  and  C_5
REMARK    4  A    between atoms: C_3  and  N_18
REMARK    5  A    between atoms: C_5  and  N_7
REMARK                            x       y       z     vdW  Elec       q    Type
REMARK                         _______ _______ _______ _____ _____    ______ ____
ROOT
ATOM      1  C   UNL     1       0.760  -0.509   1.250  0.00  0.00    +0.183 C 
ENDROOT
BRANCH   1   2
ATOM      2  N   UNL     1       0.023  -0.136   2.460  0.00  0.00    -0.248 N 
ATOM      3  C   UNL     1       0.618   0.653   3.381  0.00  0.00    +0.265 A 
ATOM      4  O   UNL     1       1.754   1.055   3.218  0.00  0.00    -0.267 OA
ATOM      5  C   UNL     1      -0.145   1.013   4.589  0.00  0.00    +0.063 A 
ATOM      6  C   UNL     1       0.398   1.822   5.585  0.00  0.00    +0.015 A 
ATOM      7  C   UNL     1      -0.358   2.132   6.696  0.00  0.00    +0.001 A 
ATOM      8  C   UNL     1      -1.649   1.642   6.826  0.00  0.00    +0.002 A 
ATOM      9  C   UNL     1      -2.199   0.840   5.846  0.00  0.00    +0.026 A 
ATOM     10  C   UNL     1      -1.454   0.518   4.721  0.00  0.00    +0.056 A 
ATOM     11  N   UNL     1      -1.969  -0.285   3.714  0.00  0.00    -0.307 N 
ATOM     12  C   UNL     1      -1.232  -0.580   2.629  0.00  0.00    +0.330 A 
ATOM     13  O   UNL     1      -1.722  -1.283   1.767  0.00  0.00    -0.246 OA
ATOM     14  H   UNL     1      -2.871  -0.634   3.792  0.00  0.00    +0.170 HD
ENDBRANCH   1   2
BRANCH   1  16
ATOM     15  C   UNL     1      -0.007   1.531   0.027  0.00  0.00    +0.006 C 
ATOM     16  C   UNL     1       0.009   0.001   0.018  0.00  0.00    +0.031 C 
ENDBRANCH   1  16
BRANCH   1  17
ATOM     17  C   UNL     1       0.882  -2.009   1.179  0.00  0.00    +0.262 C 
ATOM     18  O   UNL     1       0.400  -2.701   2.055  0.00  0.00    -0.271 OA
BRANCH  17  19
ATOM     19  N   UNL     1       1.517  -2.576   0.158  0.00  0.00    -0.145 NA
ATOM     20  C   UNL     1       1.717  -3.892   0.147  0.00  0.00    +0.198 A 
ATOM     21  N   UNL     1       1.221  -4.771   1.057  0.00  0.00    -0.326 N 
ATOM     22  H   UNL     1       0.666  -4.546   1.820  0.00  0.00    +0.169 HD
ATOM     23  C   UNL     1       1.647  -6.048   0.706  0.00  0.00    +0.065 A 
ATOM     24  C   UNL     1       1.444  -7.301   1.267  0.00  0.00    +0.028 A 
ATOM     25  C   UNL     1       2.008  -8.416   0.680  0.00  0.00    +0.002 A 
ATOM     26  C   UNL     1       2.774  -8.290  -0.466  0.00  0.00    +0.002 A 
ATOM     27  C   UNL     1       2.982  -7.048  -1.032  0.00  0.00    +0.028 A 
ATOM     28  C   UNL     1       2.420  -5.921  -0.450  0.00  0.00    +0.065 A 
ATOM     29  N   UNL     1       2.443  -4.570  -0.780  0.00  0.00    -0.326 N 
ATOM     30  H   UNL     1       2.902  -4.178  -1.540  0.00  0.00    +0.169 HD
ENDBRANCH  17  19
ENDBRANCH   1  17
TORSDOF 4
