REMARK  Name = ZINC39562433
REMARK  8 active torsions:
REMARK  status: ('A' for Active; 'I' for Inactive)
REMARK    1  A    between atoms: C_1  and  C_2
REMARK    2  A    between atoms: C_3  and  C_29
REMARK    3  A    between atoms: C_7  and  O_11
REMARK    4  A    between atoms: O_11  and  C_12
REMARK    5  A    between atoms: C_12  and  C_13
REMARK    6  A    between atoms: N_15  and  C_16
REMARK    7  A    between atoms: C_16  and  C_17
REMARK    8  A    between atoms: N_19  and  C_20
REMARK                            x       y       z     vdW  Elec       q    Type
REMARK                         _______ _______ _______ _____ _____    ______ ____
ROOT
ATOM      1  C   UNL     1       0.041   2.960   4.307  0.00  0.00    +0.251 C 
ATOM      2  O   UNL     1       0.028   3.626   3.293  0.00  0.00    -0.272 OA
ATOM      3  N   UNL     1       0.033   3.565   5.511  0.00  0.00    -0.304 N 
ATOM      4  H   UNL     1       0.043   3.032   6.322  0.00  0.00    +0.149 HD
ENDROOT
BRANCH   1   5
ATOM      5  C   UNL     1       0.066   1.455   4.220  0.00  0.00    +0.326 C 
BRANCH   5   6
ATOM      6  O   UNL     1       0.070   1.058   2.847  0.00  0.00    -0.466 OA
BRANCH   6  13
ATOM      7  C   UNL     1       0.056   1.501   0.012  0.00  0.00    +0.045 C 
ATOM      8  C   UNL     1       0.083  -0.006   0.005  0.00  0.00    -0.026 A 
ATOM      9  C   UNL     1       0.097  -0.678  -1.156  0.00  0.00    -0.008 A 
ATOM     10  S   UNL     1       0.126  -2.387  -0.647  0.00  0.00    -0.073 S 
ATOM     11  C   UNL     1       0.116  -2.153   1.110  0.00  0.00    +0.116 A 
ATOM     12  C   UNL     1       0.098  -0.747   1.254  0.00  0.00    +0.072 A 
ATOM     13  C   UNL     1       0.092  -0.272   2.592  0.00  0.00    +0.227 A 
ATOM     14  N   UNL     1       0.109  -1.143   3.586  0.00  0.00    -0.201 NA
ATOM     15  C   UNL     1       0.131  -2.448   3.378  0.00  0.00    +0.226 A 
ATOM     16  N   UNL     1       0.127  -2.950   2.159  0.00  0.00    -0.228 NA
ATOM     17  C   UNL     1       0.091  -0.122  -2.556  0.00  0.00    +0.052 C 
ENDBRANCH   6  13
ENDBRANCH   5   6
ENDBRANCH   1   5
BRANCH   3  18
ATOM     18  C   UNL     1       0.008   5.027   5.596  0.00  0.00    +0.200 C 
BRANCH  18  19
ATOM     19  C   UNL     1       0.004   5.446   7.043  0.00  0.00    +0.234 C 
ATOM     20  O   UNL     1       0.019   4.606   7.918  0.00  0.00    -0.274 OA
ATOM     21  N   UNL     1      -0.018   6.755   7.366  0.00  0.00    -0.282 N 
ATOM     22  H   UNL     1       0.035   7.427   6.669  0.00  0.00    +0.155 HD
BRANCH  21  23
ATOM     23  C   UNL     1      -0.116   7.144   8.709  0.00  0.00    +0.072 A 
ATOM     24  C   UNL     1       0.494   6.386   9.698  0.00  0.00    +0.029 A 
ATOM     25  C   UNL     1       0.396   6.770  11.022  0.00  0.00    +0.043 A 
ATOM     26  C   UNL     1      -0.310   7.910  11.364  0.00  0.00    +0.161 A 
ATOM     27  C   UNL     1      -0.921   8.671  10.379  0.00  0.00    +0.195 A 
ATOM     28  C   UNL     1      -0.821   8.292   9.051  0.00  0.00    +0.182 A 
ATOM     29  F   UNL     1      -1.411   9.035   8.089  0.00  0.00    -0.200 F 
ATOM     30  F   UNL     1      -1.611   9.783  10.714  0.00  0.00    -0.199 F 
ATOM     31  F   UNL     1      -0.403   8.283  12.659  0.00  0.00    -0.202 F 
ENDBRANCH  21  23
ENDBRANCH  18  19
ENDBRANCH   3  18
TORSDOF 6
