REMARK  Name = ZINC17208765
REMARK  6 active torsions:
REMARK  status: ('A' for Active; 'I' for Inactive)
REMARK    1  A    between atoms: C_1  and  C_2
REMARK    2  A    between atoms: C_5  and  S_8
REMARK    3  A    between atoms: S_8  and  N_11
REMARK    4  A    between atoms: N_11  and  C_12
REMARK    5  A    between atoms: N_22  and  C_23
REMARK    6  A    between atoms: C_23  and  C_24
REMARK                            x       y       z     vdW  Elec       q    Type
REMARK                         _______ _______ _______ _____ _____    ______ ____
ROOT
ATOM      1  C   UNL     1       1.976  -6.348  -0.043  0.00  0.00    +0.203 A 
ATOM      2  C   UNL     1       3.335  -6.744  -0.047  0.00  0.00    +0.163 A 
ATOM      3  N   UNL     1       3.657  -8.021  -0.056  0.00  0.00    -0.227 NA
ATOM      4  C   UNL     1       2.691  -8.951  -0.060  0.00  0.00    +0.091 A 
ATOM      5  C   UNL     1       3.009 -10.319  -0.069  0.00  0.00    +0.030 A 
ATOM      6  C   UNL     1       2.010 -11.245  -0.073  0.00  0.00    +0.002 A 
ATOM      7  C   UNL     1       0.673 -10.856  -0.070  0.00  0.00    +0.002 A 
ATOM      8  C   UNL     1       0.329  -9.538  -0.061  0.00  0.00    +0.030 A 
ATOM      9  C   UNL     1       1.332  -8.555  -0.056  0.00  0.00    +0.092 A 
ATOM     10  N   UNL     1       1.018  -7.251  -0.043  0.00  0.00    -0.224 NA
ATOM     11  N   UNL     1       4.333  -5.782  -0.042  0.00  0.00    -0.324 N 
ATOM     12  H   UNL     1       4.100  -4.840  -0.036  0.00  0.00    +0.148 HD
ENDROOT
BRANCH   1  13
ATOM     13  N   UNL     1       1.651  -4.999  -0.034  0.00  0.00    -0.074 NA
BRANCH  13  14
ATOM     14  S   UNL     1       0.063  -4.530  -0.023  0.00  0.00    +0.093 S 
ATOM     15  O   UNL     1      -0.476  -4.950   1.223  0.00  0.00    -0.148 OA
ATOM     16  O   UNL     1      -0.490  -4.937  -1.267  0.00  0.00    -0.148 OA
BRANCH  14  21
ATOM     17  C   UNL     1      -0.018   1.503   0.010  0.00  0.00    +0.044 C 
ATOM     18  C   UNL     1       0.002  -0.004   0.002  0.00  0.00    -0.050 A 
ATOM     19  C   UNL     1       0.006  -0.689  -1.199  0.00  0.00    +0.005 A 
ATOM     20  C   UNL     1       0.025  -2.071  -1.206  0.00  0.00    +0.029 A 
ATOM     21  C   UNL     1       0.040  -2.768  -0.013  0.00  0.00    +0.110 A 
ATOM     22  C   UNL     1       0.037  -2.084   1.188  0.00  0.00    +0.029 A 
ATOM     23  C   UNL     1       0.023  -0.702   1.195  0.00  0.00    +0.005 A 
ENDBRANCH  14  21
ENDBRANCH  13  14
ENDBRANCH   1  13
BRANCH  11  24
ATOM     24  C   UNL     1       5.741  -6.187  -0.046  0.00  0.00    +0.134 C 
BRANCH  24  25
ATOM     25  C   UNL     1       6.630  -4.942  -0.039  0.00  0.00    +0.135 C 
ATOM     26  C   UNL     1       8.125  -5.348  -0.079  0.00  0.00    +0.035 C 
ATOM     27  C   UNL     1       8.760  -4.075  -0.702  0.00  0.00    +0.031 C 
ATOM     28  C   UNL     1       7.657  -3.600  -1.672  0.00  0.00    +0.160 C 
ATOM     29  O   UNL     1       6.418  -4.171  -1.232  0.00  0.00    -0.375 OA
ENDBRANCH  24  25
ENDBRANCH  11  24
TORSDOF 5
