REMARK  Name = ZINC40326710
REMARK  7 active torsions:
REMARK  status: ('A' for Active; 'I' for Inactive)
REMARK    1  A    between atoms: C_1  and  C_2
REMARK    2  A    between atoms: C_5  and  N_8
REMARK    3  A    between atoms: C_9  and  C_11
REMARK    4  A    between atoms: C_12  and  N_20
REMARK    5  A    between atoms: C_21  and  C_23
REMARK    6  A    between atoms: C_24  and  C_29
REMARK    7  A    between atoms: C_26  and  C_28
REMARK                            x       y       z     vdW  Elec       q    Type
REMARK                         _______ _______ _______ _____ _____    ______ ____
ROOT
ATOM      1  C   UNL     1      -0.303  -7.478   1.145  0.00  0.00    +0.212 A 
ATOM      2  C   UNL     1       0.202  -7.906   2.342  0.00  0.00    +0.092 A 
ATOM      3  C   UNL     1       0.862  -9.188   2.064  0.00  0.00    +0.042 A 
ATOM      4  C   UNL     1       1.555 -10.113   2.847  0.00  0.00    +0.013 A 
ATOM      5  C   UNL     1       2.064 -11.242   2.270  0.00  0.00    +0.001 A 
ATOM      6  C   UNL     1       1.896 -11.474   0.911  0.00  0.00    +0.004 A 
ATOM      7  C   UNL     1       1.215 -10.573   0.122  0.00  0.00    +0.047 A 
ATOM      8  C   UNL     1       0.688  -9.417   0.688  0.00  0.00    +0.138 A 
ATOM      9  O   UNL     1      -0.012  -8.382   0.183  0.00  0.00    -0.448 OA
ENDROOT
BRANCH   1  11
ATOM     10  N   UNL     1      -1.564  -6.003  -0.260  0.00  0.00    -0.279 N 
ATOM     11  C   UNL     1      -1.025  -6.273   0.945  0.00  0.00    +0.285 C 
ATOM     12  O   UNL     1      -1.157  -5.483   1.862  0.00  0.00    -0.266 OA
ATOM     13  H   UNL     1      -1.507  -6.656  -0.975  0.00  0.00    +0.155 HD
BRANCH  10  18
ATOM     14  C   UNL     1      -4.165  -1.042  -1.156  0.00  0.00    +0.044 C 
ATOM     15  C   UNL     1      -3.474  -2.361  -0.918  0.00  0.00    -0.050 A 
ATOM     16  C   UNL     1      -2.728  -2.940  -1.927  0.00  0.00    +0.005 A 
ATOM     17  C   UNL     1      -2.093  -4.148  -1.713  0.00  0.00    +0.023 A 
ATOM     18  C   UNL     1      -2.205  -4.780  -0.481  0.00  0.00    +0.034 A 
ATOM     19  C   UNL     1      -2.955  -4.195   0.531  0.00  0.00    +0.023 A 
ATOM     20  C   UNL     1      -3.583  -2.985   0.311  0.00  0.00    +0.005 A 
ENDBRANCH  10  18
ENDBRANCH   1  11
BRANCH   2  21
ATOM     21  N   UNL     1       0.109  -7.261   3.569  0.00  0.00    -0.277 N 
ATOM     22  C   UNL     1      -0.101  -7.976   4.692  0.00  0.00    +0.268 C 
ATOM     23  O   UNL     1      -0.106  -9.192   4.647  0.00  0.00    -0.268 OA
ATOM     24  H   UNL     1       0.196  -6.296   3.617  0.00  0.00    +0.155 HD
BRANCH  22  25
ATOM     25  C   UNL     1      -0.326  -7.287   5.970  0.00  0.00    +0.141 A 
ATOM     26  C   UNL     1      -1.609  -7.051   6.475  0.00  0.00    +0.051 A 
ATOM     27  S   UNL     1      -1.210  -6.210   7.999  0.00  0.00    -0.072 S 
ATOM     28  C   UNL     1       0.466  -6.237   7.855  0.00  0.00    +0.077 A 
ATOM     29  N   UNL     1       0.676  -6.851   6.724  0.00  0.00    -0.239 NA
ATOM     30  C   UNL     1       1.487  -5.683   8.814  0.00  0.00    +0.073 C 
BRANCH  26  31
ATOM     31  C   UNL     1      -2.926  -7.401   5.907  0.00  0.00    -0.009 A 
ATOM     32  C   UNL     1      -3.013  -7.964   4.632  0.00  0.00    +0.009 A 
ATOM     33  C   UNL     1      -4.247  -8.288   4.107  0.00  0.00    +0.001 A 
ATOM     34  C   UNL     1      -5.397  -8.057   4.841  0.00  0.00    +0.000 A 
ATOM     35  C   UNL     1      -5.318  -7.500   6.105  0.00  0.00    +0.001 A 
ATOM     36  C   UNL     1      -4.091  -7.176   6.644  0.00  0.00    +0.009 A 
ENDBRANCH  26  31
ENDBRANCH  22  25
ENDBRANCH   2  21
TORSDOF 5
