REMARK  Name = ZINC42819294
REMARK  4 active torsions:
REMARK  status: ('A' for Active; 'I' for Inactive)
REMARK    1  A    between atoms: C_9  and  C_11
REMARK    2  A    between atoms: N_13  and  N_14
REMARK    3  A    between atoms: N_17  and  C_18
REMARK    4  A    between atoms: C_18  and  C_19
REMARK                            x       y       z     vdW  Elec       q    Type
REMARK                         _______ _______ _______ _____ _____    ______ ____
ROOT
ATOM      1  N   UNL     1       7.383  -2.428  -0.081  0.00  0.00    -0.218 N 
ATOM      2  C   UNL     1       8.506  -1.682  -0.088  0.00  0.00    +0.316 C 
ATOM      3  O   UNL     1       9.595  -2.223  -0.101  0.00  0.00    -0.251 OA
ATOM      4  N   UNL     1       8.421  -0.337  -0.080  0.00  0.00    -0.292 N 
ATOM      5  H   UNL     1       7.444  -3.396  -0.087  0.00  0.00    +0.174 HD
ATOM      6  H   UNL     1       7.552   0.094  -0.069  0.00  0.00    +0.151 HD
ENDROOT
BRANCH   1   9
ATOM      7  C   UNL     1       5.006  -2.551  -0.059  0.00  0.00    +0.279 C 
ATOM      8  O   UNL     1       5.082  -3.763  -0.066  0.00  0.00    -0.267 OA
ATOM      9  N   UNL     1       6.128  -1.805  -0.066  0.00  0.00    -0.228 N 
ATOM     10  H   UNL     1       6.067  -0.837  -0.060  0.00  0.00    +0.173 HD
BRANCH   7  19
ATOM     11  C   UNL     1      -0.016   1.357   0.009  0.00  0.00    +0.001 A 
ATOM     12  C   UNL     1       1.170   2.090   0.002  0.00  0.00    +0.002 A 
ATOM     13  C   UNL     1       2.379   1.468  -0.013  0.00  0.00    +0.028 A 
ATOM     14  C   UNL     1       2.441   0.061  -0.021  0.00  0.00    +0.072 A 
ATOM     15  C   UNL     1       1.232  -0.682  -0.013  0.00  0.00    +0.000 A 
ATOM     16  C   UNL     1       0.002  -0.004   0.002  0.00  0.00    +0.010 A 
ATOM     17  C   UNL     1       1.291  -2.088  -0.021  0.00  0.00    +0.012 A 
ATOM     18  C   UNL     1       2.520  -2.683  -0.036  0.00  0.00    +0.034 A 
ATOM     19  C   UNL     1       3.678  -1.891  -0.043  0.00  0.00    +0.127 A 
ATOM     20  N   UNL     1       3.612  -0.574  -0.035  0.00  0.00    -0.242 NA
ENDBRANCH   7  19
ENDBRANCH   1   9
BRANCH   4  21
ATOM     21  C   UNL     1       9.641   0.474  -0.087  0.00  0.00    +0.168 C 
BRANCH  21  22
ATOM     22  C   UNL     1       9.274   1.935  -0.076  0.00  0.00    +0.097 A 
ATOM     23  N   UNL     1       9.095   2.704   0.958  0.00  0.00    -0.242 NA
ATOM     24  C   UNL     1       8.766   4.007   0.836  0.00  0.00    +0.079 A 
ATOM     25  C   UNL     1       8.535   4.979   1.832  0.00  0.00    +0.029 A 
ATOM     26  C   UNL     1       8.208   6.256   1.490  0.00  0.00    +0.002 A 
ATOM     27  C   UNL     1       8.092   6.646   0.163  0.00  0.00    +0.001 A 
ATOM     28  C   UNL     1       8.311   5.722  -0.841  0.00  0.00    +0.017 A 
ATOM     29  C   UNL     1       8.641   4.431  -0.506  0.00  0.00    +0.039 A 
ATOM     30  S   UNL     1       9.009   2.942  -1.398  0.00  0.00    -0.071 S 
ENDBRANCH  21  22
ENDBRANCH   4  21
TORSDOF 4
