REMARK  Name = ZINC10022470
REMARK  14 active torsions:
REMARK  status: ('A' for Active; 'I' for Inactive)
REMARK    1  A    between atoms: C_1  and  C_2
REMARK    2  A    between atoms: C_2  and  O_3
REMARK    3  A    between atoms: O_3  and  C_4
REMARK    4  A    between atoms: C_4  and  C_6
REMARK    5  A    between atoms: C_10  and  N_11
REMARK    6  A    between atoms: C_12  and  C_14
REMARK    7  A    between atoms: C_14  and  S_15
REMARK    8  A    between atoms: S_15  and  C_16
REMARK    9  A    between atoms: C_19  and  O_22
REMARK   10  A    between atoms: O_22  and  C_23
REMARK   11  A    between atoms: C_24  and  C_29
REMARK   12  A    between atoms: C_24  and  C_30
REMARK   13  A    between atoms: C_25  and  C_27
REMARK   14  A    between atoms: C_25  and  C_28
REMARK                            x       y       z     vdW  Elec       q    Type
REMARK                         _______ _______ _______ _____ _____    ______ ____
ROOT
ATOM      1  C   UNL     1       4.346   6.450  -0.005  0.00  0.00    +0.091 A 
ATOM      2  C   UNL     1       4.186   7.889  -0.001  0.00  0.00    -0.024 A 
ATOM      3  C   UNL     1       2.909   8.335   0.020  0.00  0.00    -0.016 A 
ATOM      4  S   UNL     1       1.923   6.865   0.023  0.00  0.00    -0.079 S 
ATOM      5  C   UNL     1       3.187   5.680   0.002  0.00  0.00    +0.086 A 
ATOM      6  C   UNL     1       2.464   9.761   0.044  0.00  0.00    -0.041 C 
ATOM      7  C   UNL     1       4.793  10.152  -0.765  0.00  0.00    -0.069 C 
ATOM      8  C   UNL     1       5.313   8.913  -0.025  0.00  0.00    +0.024 C 
ATOM      9  C   UNL     1       4.566   9.803  -2.239  0.00  0.00    -0.010 C 
ATOM     10  C   UNL     1       5.886  11.235  -0.698  0.00  0.00    -0.010 C 
ATOM     11  C   UNL     1       1.391   9.979  -1.032  0.00  0.00    -0.005 C 
ATOM     12  C   UNL     1       1.825  10.046   1.417  0.00  0.00    -0.005 C 
ATOM     13  N   UNL     1       3.577  10.736  -0.143  0.00  0.00    +0.389 N 
ATOM     14  H   UNL     1       3.834  11.113   0.777  0.00  0.00    -0.084 HD
ATOM     15  H   UNL     1       3.241  11.498  -0.744  0.00  0.00    -0.084 HD
ENDROOT
BRANCH   5  16
ATOM     16  N   UNL     1       3.074   4.299  -0.004  0.00  0.00    -0.279 N 
ATOM     17  C   UNL     1       1.855   3.722   0.004  0.00  0.00    +0.228 C 
ATOM     18  O   UNL     1       0.858   4.413   0.018  0.00  0.00    -0.275 OA
ATOM     19  H   UNL     1       3.871   3.747  -0.015  0.00  0.00    +0.155 HD
BRANCH  17  20
ATOM     20  C   UNL     1       1.732   2.220  -0.003  0.00  0.00    +0.170 C 
BRANCH  20  21
ATOM     21  S   UNL     1      -0.022   1.758   0.012  0.00  0.00    -0.116 S 
BRANCH  21  22
ATOM     22  C   UNL     1       0.002  -0.004   0.002  0.00  0.00    +0.009 A 
ATOM     23  C   UNL     1       1.214  -0.683  -0.019  0.00  0.00    +0.018 A 
ATOM     24  C   UNL     1       1.232  -2.063  -0.022  0.00  0.00    +0.047 A 
ATOM     25  C   UNL     1       0.040  -2.773  -0.014  0.00  0.00    +0.120 A 
ATOM     26  C   UNL     1      -1.171  -2.096   0.002  0.00  0.00    +0.047 A 
ATOM     27  C   UNL     1      -1.191  -0.716   0.010  0.00  0.00    +0.018 A 
BRANCH  25  28
ATOM     28  O   UNL     1       0.058  -4.133  -0.022  0.00  0.00    -0.495 OA
ATOM     29  C   UNL     1       1.340  -4.764  -0.038  0.00  0.00    +0.277 C 
ENDBRANCH  25  28
ENDBRANCH  21  22
ENDBRANCH  20  21
ENDBRANCH  17  20
ENDBRANCH   5  16
BRANCH   1  30
ATOM     30  C   UNL     1       5.667   5.819  -0.012  0.00  0.00    +0.342 C 
ATOM     31  O   UNL     1       6.210   5.556  -1.068  0.00  0.00    -0.245 OA
BRANCH  30  32
ATOM     32  O   UNL     1       6.282   5.529   1.153  0.00  0.00    -0.461 OA
BRANCH  32  34
ATOM     33  C   UNL     1       8.125   4.652   2.481  0.00  0.00    +0.048 C 
ATOM     34  C   UNL     1       7.590   4.903   1.070  0.00  0.00    +0.229 C 
ENDBRANCH  32  34
ENDBRANCH  30  32
ENDBRANCH   1  30
TORSDOF 8
