REMARK  Name = ZINC38547018
REMARK  10 active torsions:
REMARK  status: ('A' for Active; 'I' for Inactive)
REMARK    1  A    between atoms: C_1  and  C_2
REMARK    2  A    between atoms: C_6  and  N_8
REMARK    3  A    between atoms: N_8  and  C_9
REMARK    4  A    between atoms: C_9  and  C_11
REMARK    5  A    between atoms: C_9  and  C_19
REMARK    6  A    between atoms: C_14  and  S_17
REMARK    7  A    between atoms: S_17  and  C_18
REMARK    8  A    between atoms: C_21  and  C_32
REMARK    9  A    between atoms: C_23  and  N_24
REMARK   10  A    between atoms: C_25  and  C_27
REMARK                            x       y       z     vdW  Elec       q    Type
REMARK                         _______ _______ _______ _____ _____    ______ ____
ROOT
ATOM      1  C   UNL     1       0.161  -4.093   2.526  0.00  0.00    +0.135 C 
ENDROOT
BRANCH   1   2
ATOM      2  C   UNL     1       1.483  -4.428   1.886  0.00  0.00    -0.023 A 
ATOM      3  C   UNL     1       1.952  -3.665   0.832  0.00  0.00    +0.007 A 
ATOM      4  C   UNL     1       3.162  -3.969   0.242  0.00  0.00    +0.015 A 
ATOM      5  C   UNL     1       3.910  -5.043   0.709  0.00  0.00    +0.008 A 
ATOM      6  C   UNL     1       3.437  -5.807   1.768  0.00  0.00    +0.015 A 
ATOM      7  C   UNL     1       2.227  -5.494   2.357  0.00  0.00    +0.007 A 
BRANCH   5   8
ATOM      8  S   UNL     1       5.456  -5.435  -0.042  0.00  0.00    -0.129 S 
ATOM      9  C   UNL     1       6.042  -6.878   0.889  0.00  0.00    +0.090 C 
ENDBRANCH   5   8
ENDBRANCH   1   2
BRANCH   1  10
ATOM     10  C   UNL     1      -0.962  -4.521   1.616  0.00  0.00    +0.006 A 
ATOM     11  C   UNL     1      -1.524  -3.626   0.725  0.00  0.00    +0.018 A 
ATOM     12  C   UNL     1      -2.531  -4.043  -0.080  0.00  0.00    -0.011 A 
ATOM     13  S   UNL     1      -2.717  -5.750   0.409  0.00  0.00    -0.078 S 
ATOM     14  C   UNL     1      -1.436  -5.797   1.652  0.00  0.00    +0.078 A 
ATOM     15  C   UNL     1      -3.297  -3.267  -1.120  0.00  0.00    +0.051 C 
BRANCH  14  16
ATOM     16  N   UNL     1      -1.028  -6.865   2.454  0.00  0.00    -0.273 N 
ATOM     17  C   UNL     1      -1.631  -8.065   2.337  0.00  0.00    +0.284 C 
ATOM     18  O   UNL     1      -2.532  -8.217   1.532  0.00  0.00    -0.266 OA
ATOM     19  H   UNL     1      -0.310  -6.744   3.095  0.00  0.00    +0.156 HD
BRANCH  17  20
ATOM     20  C   UNL     1      -1.202  -9.186   3.179  0.00  0.00    +0.189 A 
ATOM     21  C   UNL     1      -1.722 -10.449   3.159  0.00  0.00    +0.054 A 
ATOM     22  C   UNL     1      -1.018 -11.190   4.121  0.00  0.00    +0.042 A 
ATOM     23  C   UNL     1      -0.111 -10.357   4.679  0.00  0.00    +0.196 A 
ATOM     24  O   UNL     1      -0.222  -9.152   4.105  0.00  0.00    -0.458 OA
ENDBRANCH  17  20
ENDBRANCH  14  16
ENDBRANCH   1  10
BRANCH   1  25
ATOM     25  N   UNL     1       0.081  -2.648   2.755  0.00  0.00    -0.320 N 
ATOM     26  H   UNL     1       0.594  -2.040   2.200  0.00  0.00    +0.148 HD
BRANCH  25  32
ATOM     27  C   UNL     1      -1.467   1.153   5.220  0.00  0.00    +0.063 C 
ATOM     28  C   UNL     1      -1.494  -0.334   4.971  0.00  0.00    +0.014 A 
ATOM     29  C   UNL     1      -2.308  -1.139   5.743  0.00  0.00    +0.021 A 
ATOM     30  C   UNL     1      -2.328  -2.507   5.510  0.00  0.00    +0.005 A 
ATOM     31  C   UNL     1      -1.526  -3.018   4.506  0.00  0.00    +0.041 A 
ATOM     32  C   UNL     1      -0.731  -2.148   3.767  0.00  0.00    +0.097 A 
ATOM     33  N   UNL     1      -0.743  -0.848   4.016  0.00  0.00    -0.347 N 
ATOM     34  H   UNL     1      -0.183  -0.259   3.486  0.00  0.00    +0.167 HD
ENDBRANCH  25  32
ENDBRANCH   1  25
TORSDOF 7
