REMARK  Name = ZINC46767304
REMARK  10 active torsions:
REMARK  status: ('A' for Active; 'I' for Inactive)
REMARK    1  A    between atoms: C_1  and  C_2
REMARK    2  A    between atoms: C_3  and  C_30
REMARK    3  A    between atoms: N_4  and  C_22
REMARK    4  A    between atoms: C_5  and  N_9
REMARK    5  A    between atoms: C_6  and  C_7
REMARK    6  A    between atoms: C_10  and  C_12
REMARK    7  A    between atoms: C_12  and  O_13
REMARK    8  A    between atoms: O_13  and  C_14
REMARK    9  A    between atoms: C_14  and  C_16
REMARK   10  A    between atoms: C_22  and  C_23
REMARK                            x       y       z     vdW  Elec       q    Type
REMARK                         _______ _______ _______ _____ _____    ______ ____
ROOT
ATOM      1  C   UNL     1       0.044   1.511   0.047  0.00  0.00    +0.047 C 
ATOM      2  C   UNL     1       0.045   0.004   0.027  0.00  0.00    -0.011 A 
ATOM      3  C   UNL     1       0.044  -0.783  -1.061  0.00  0.00    +0.022 A 
ATOM      4  N   UNL     1       0.047  -2.095  -0.670  0.00  0.00    -0.327 N 
ATOM      5  C   UNL     1       0.049  -2.180   0.685  0.00  0.00    +0.124 A 
ATOM      6  C   UNL     1       0.054  -0.888   1.193  0.00  0.00    +0.095 A 
ATOM      7  C   UNL     1       0.041  -0.298  -2.488  0.00  0.00    +0.064 C 
ENDROOT
BRANCH   5   8
ATOM      8  N   UNL     1       0.052  -3.350   1.431  0.00  0.00    -0.268 N 
ATOM      9  C   UNL     1      -0.527  -3.375   2.647  0.00  0.00    +0.256 C 
ATOM     10  O   UNL     1      -1.143  -2.410   3.046  0.00  0.00    -0.272 OA
ATOM     11  H   UNL     1       0.471  -4.150   1.076  0.00  0.00    +0.156 HD
BRANCH   9  12
ATOM     12  C   UNL     1      -0.409  -4.604   3.512  0.00  0.00    +0.328 C 
BRANCH  12  13
ATOM     13  O   UNL     1      -1.101  -4.387   4.744  0.00  0.00    -0.451 OA
BRANCH  13  14
ATOM     14  C   UNL     1      -1.092  -5.397   5.636  0.00  0.00    +0.360 C 
ATOM     15  O   UNL     1      -0.513  -6.432   5.376  0.00  0.00    -0.243 OA
BRANCH  14  16
ATOM     16  C   UNL     1      -1.787  -5.245   6.929  0.00  0.00    +0.169 A 
ATOM     17  C   UNL     1      -1.861  -6.207   7.964  0.00  0.00    +0.056 A 
ATOM     18  C   UNL     1      -2.592  -5.629   8.945  0.00  0.00    +0.105 A 
ATOM     19  N   UNL     1      -2.932  -4.394   8.516  0.00  0.00    -0.284 N 
ATOM     20  H   UNL     1      -3.460  -3.757   9.022  0.00  0.00    +0.188 HD
ATOM     21  N   UNL     1      -2.452  -4.184   7.343  0.00  0.00    -0.167 NA
ENDBRANCH  14  16
ENDBRANCH  13  14
ENDBRANCH  12  13
ENDBRANCH   9  12
ENDBRANCH   5   8
BRANCH   6  22
ATOM     22  C   UNL     1       0.063  -0.504   2.572  0.00  0.00    +0.103 C 
ATOM     23  N   UNL     1       0.070  -0.199   3.667  0.00  0.00    -0.191 NA
ENDBRANCH   6  22
BRANCH   4  24
ATOM     24  C   UNL     1       0.046  -3.242  -1.582  0.00  0.00    +0.158 C 
BRANCH  24  25
ATOM     25  C   UNL     1       1.461  -3.556  -1.995  0.00  0.00    -0.028 A 
ATOM     26  C   UNL     1       1.970  -3.035  -3.170  0.00  0.00    +0.008 A 
ATOM     27  C   UNL     1       3.267  -3.322  -3.549  0.00  0.00    +0.038 A 
ATOM     28  C   UNL     1       4.058  -4.132  -2.752  0.00  0.00    +0.123 A 
ATOM     29  C   UNL     1       3.548  -4.654  -1.575  0.00  0.00    +0.038 A 
ATOM     30  C   UNL     1       2.252  -4.361  -1.195  0.00  0.00    +0.008 A 
ATOM     31  F   UNL     1       5.326  -4.414  -3.122  0.00  0.00    -0.205 F 
ENDBRANCH  24  25
ENDBRANCH   4  24
TORSDOF 8
