REMARK  Name = ZINC36588749
REMARK  13 active torsions:
REMARK  status: ('A' for Active; 'I' for Inactive)
REMARK    1  A    between atoms: C_1  and  C_2
REMARK    2  A    between atoms: C_5  and  C_8
REMARK    3  A    between atoms: C_8  and  C_10
REMARK    4  A    between atoms: C_8  and  N_19
REMARK    5  A    between atoms: N_12  and  C_13
REMARK    6  A    between atoms: N_19  and  C_36
REMARK    7  A    between atoms: C_20  and  C_22
REMARK    8  A    between atoms: C_22  and  C_23
REMARK    9  A    between atoms: C_22  and  C_29
REMARK   10  A    between atoms: C_22  and  O_35
REMARK   11  A    between atoms: C_36  and  C_37
REMARK   12  A    between atoms: C_36  and  C_38
REMARK   13  A    between atoms: C_36  and  C_39
REMARK                            x       y       z     vdW  Elec       q    Type
REMARK                         _______ _______ _______ _____ _____    ______ ____
ROOT
ATOM      1  N   UNL     1       1.496  -3.032   1.806  0.00  0.00    -0.278 N 
ATOM      2  C   UNL     1       1.774  -3.285   0.512  0.00  0.00    +0.258 C 
ATOM      3  O   UNL     1       1.744  -2.386  -0.302  0.00  0.00    -0.272 OA
ENDROOT
BRANCH   1   4
ATOM      4  C   UNL     1       0.871  -4.064   2.637  0.00  0.00    +0.030 C 
ATOM      5  C   UNL     1      -0.464  -4.481   2.015  0.00  0.00    +0.031 C 
ATOM      6  C   UNL     1       1.796  -5.280   2.721  0.00  0.00    +0.031 C 
ATOM      7  C   UNL     1       0.628  -3.510   4.042  0.00  0.00    +0.031 C 
ENDBRANCH   1   4
BRANCH   1   8
ATOM      8  C   UNL     1       1.818  -1.724   2.382  0.00  0.00    +0.193 C 
BRANCH   8  13
ATOM      9  C   UNL     1      -2.685   1.837   1.720  0.00  0.00    +0.044 C 
ATOM     10  C   UNL     1      -1.511   0.908   1.893  0.00  0.00    -0.050 A 
ATOM     11  C   UNL     1      -0.768   0.943   3.058  0.00  0.00    +0.004 A 
ATOM     12  C   UNL     1       0.309   0.091   3.217  0.00  0.00    +0.006 A 
ATOM     13  C   UNL     1       0.643  -0.796   2.210  0.00  0.00    -0.018 A 
ATOM     14  C   UNL     1      -0.100  -0.831   1.045  0.00  0.00    +0.006 A 
ATOM     15  C   UNL     1      -1.180   0.018   0.888  0.00  0.00    +0.004 A 
ENDBRANCH   8  13
BRANCH   8  16
ATOM     16  C   UNL     1       3.020  -1.148   1.680  0.00  0.00    +0.238 C 
ATOM     17  O   UNL     1       3.632  -1.819   0.876  0.00  0.00    -0.273 OA
ATOM     18  N   UNL     1       3.416   0.113   1.945  0.00  0.00    -0.311 N 
ATOM     19  H   UNL     1       2.926   0.650   2.588  0.00  0.00    +0.149 HD
BRANCH  18  20
ATOM     20  C   UNL     1       4.584   0.673   1.262  0.00  0.00    +0.073 C 
ATOM     21  C   UNL     1       5.855   0.273   2.014  0.00  0.00    +0.022 C 
ATOM     22  C   UNL     1       7.076   0.858   1.301  0.00  0.00    +0.002 C 
ATOM     23  C   UNL     1       6.963   2.383   1.265  0.00  0.00    +0.000 C 
ATOM     24  C   UNL     1       5.693   2.783   0.513  0.00  0.00    +0.002 C 
ATOM     25  C   UNL     1       4.472   2.198   1.226  0.00  0.00    +0.022 C 
ENDBRANCH  18  20
ENDBRANCH   8  16
ENDBRANCH   1   8
BRANCH   2  26
ATOM     26  C   UNL     1       2.123  -4.685   0.077  0.00  0.00    +0.192 C 
BRANCH  26  27
ATOM     27  C   UNL     1       0.858  -5.482  -0.112  0.00  0.00    -0.003 A 
ATOM     28  C   UNL     1      -0.272  -4.874  -0.625  0.00  0.00    +0.007 A 
ATOM     29  C   UNL     1      -1.432  -5.606  -0.799  0.00  0.00    +0.000 A 
ATOM     30  C   UNL     1      -1.462  -6.945  -0.459  0.00  0.00    +0.000 A 
ATOM     31  C   UNL     1      -0.331  -7.554   0.053  0.00  0.00    +0.000 A 
ATOM     32  C   UNL     1       0.830  -6.823   0.223  0.00  0.00    +0.007 A 
ENDBRANCH  26  27
BRANCH  26  33
ATOM     33  C   UNL     1       2.882  -4.632  -1.224  0.00  0.00    -0.003 A 
ATOM     34  C   UNL     1       2.426  -3.836  -2.259  0.00  0.00    +0.007 A 
ATOM     35  C   UNL     1       3.123  -3.787  -3.452  0.00  0.00    +0.000 A 
ATOM     36  C   UNL     1       4.276  -4.534  -3.610  0.00  0.00    +0.000 A 
ATOM     37  C   UNL     1       4.732  -5.328  -2.575  0.00  0.00    +0.000 A 
ATOM     38  C   UNL     1       4.038  -5.374  -1.381  0.00  0.00    +0.007 A 
ENDBRANCH  26  33
BRANCH  26  39
ATOM     39  O   UNL     1       2.933  -5.307   1.076  0.00  0.00    -0.371 OA
ATOM     40  H   UNL     1       3.741  -4.819   1.287  0.00  0.00    +0.212 HD
ENDBRANCH  26  39
ENDBRANCH   2  26
TORSDOF 9
