REMARK  Name = ZINC35311038
REMARK  6 active torsions:
REMARK  status: ('A' for Active; 'I' for Inactive)
REMARK    1  A    between atoms: C_3  and  C_6
REMARK    2  A    between atoms: C_6  and  N_7
REMARK    3  A    between atoms: C_18  and  S_19
REMARK    4  A    between atoms: S_19  and  C_20
REMARK    5  A    between atoms: C_20  and  C_21
REMARK    6  A    between atoms: N_23  and  C_24
REMARK                            x       y       z     vdW  Elec       q    Type
REMARK                         _______ _______ _______ _____ _____    ______ ____
ROOT
ATOM      1  N   UNL     1       4.003   0.619   1.388  0.00  0.00    -0.258 N 
ATOM      2  C   UNL     1       4.481   1.686   2.064  0.00  0.00    +0.119 C 
ATOM      3  C   UNL     1       4.465   3.079   1.605  0.00  0.00    +0.013 C 
ATOM      4  C   UNL     1       4.377   4.123   2.537  0.00  0.00    +0.015 C 
ATOM      5  C   UNL     1       4.363   5.417   2.111  0.00  0.00    +0.051 C 
ATOM      6  C   UNL     1       4.436   5.705   0.740  0.00  0.00    +0.179 C 
ATOM      7  O   UNL     1       4.422   6.972   0.323  0.00  0.00    -0.288 OA
ATOM      8  C   UNL     1       4.525   4.660  -0.192  0.00  0.00    +0.051 C 
ATOM      9  C   UNL     1       4.545   3.367   0.235  0.00  0.00    +0.015 C 
ATOM     10  N   UNL     1       4.972   1.243   3.231  0.00  0.00    -0.221 N 
ATOM     11  N   UNL     1       4.785  -0.146   3.265  0.00  0.00    -0.158 NA
ATOM     12  C   UNL     1       4.198  -0.500   2.154  0.00  0.00    +0.180 C 
ATOM     13  H   UNL     1       5.382   1.784   3.924  0.00  0.00    +0.176 HD
ENDROOT
BRANCH   1  14
ATOM     14  C   UNL     1       3.377   0.653   0.064  0.00  0.00    +0.188 C 
BRANCH  14  17
ATOM     15  C   UNL     1       0.022   2.150   0.350  0.00  0.00    +0.041 A 
ATOM     16  C   UNL     1       1.421   2.268   0.185  0.00  0.00    +0.046 A 
ATOM     17  C   UNL     1       1.923   1.021   0.205  0.00  0.00    +0.122 A 
ATOM     18  O   UNL     1       0.907   0.158   0.373  0.00  0.00    -0.466 OA
ATOM     19  C   UNL     1      -0.248   0.837   0.461  0.00  0.00    +0.195 A 
ENDBRANCH  14  17
ENDBRANCH   1  14
BRANCH  12  20
ATOM     20  S   UNL     1       3.738  -2.143   1.711  0.00  0.00    -0.079 S 
BRANCH  20  21
ATOM     21  C   UNL     1       4.263  -3.143   3.131  0.00  0.00    +0.172 C 
BRANCH  21  22
ATOM     22  C   UNL     1       3.924  -4.589   2.879  0.00  0.00    +0.224 C 
ATOM     23  O   UNL     1       3.381  -4.914   1.844  0.00  0.00    -0.275 OA
ATOM     24  N   UNL     1       4.223  -5.523   3.804  0.00  0.00    -0.312 N 
ATOM     25  H   UNL     1       4.657  -5.263   4.632  0.00  0.00    +0.149 HD
BRANCH  24  26
ATOM     26  C   UNL     1       3.893  -6.929   3.560  0.00  0.00    +0.073 C 
ATOM     27  C   UNL     1       5.014  -7.582   2.750  0.00  0.00    +0.022 C 
ATOM     28  C   UNL     1       4.670  -9.051   2.495  0.00  0.00    +0.002 C 
ATOM     29  C   UNL     1       4.515  -9.779   3.832  0.00  0.00    +0.000 C 
ATOM     30  C   UNL     1       3.393  -9.125   4.641  0.00  0.00    +0.002 C 
ATOM     31  C   UNL     1       3.738  -7.656   4.897  0.00  0.00    +0.022 C 
ENDBRANCH  24  26
ENDBRANCH  21  22
ENDBRANCH  20  21
ENDBRANCH  12  20
TORSDOF 6
