REMARK  Name = ZINC61999344
REMARK  5 active torsions:
REMARK  status: ('A' for Active; 'I' for Inactive)
REMARK    1  A    between atoms: C_1  and  C_2
REMARK    2  A    between atoms: C_5  and  C_8
REMARK    3  A    between atoms: C_8  and  C_10
REMARK    4  A    between atoms: C_31  and  C_39
REMARK    5  A    between atoms: C_33  and  C_38
REMARK                            x       y       z     vdW  Elec       q    Type
REMARK                         _______ _______ _______ _____ _____    ______ ____
ROOT
ATOM      1  C   UNL     1       0.075  -5.006   1.280  0.00  0.00    +0.099 C 
ATOM      2  C   UNL     1       1.526  -5.347   1.696  0.00  0.00    +0.070 C 
ATOM      3  C   UNL     1       2.474  -4.264   1.155  0.00  0.00    +0.021 C 
ATOM      4  C   UNL     1       2.906  -4.751  -0.241  0.00  0.00    +0.017 C 
ATOM      5  C   UNL     1       2.154  -6.080  -0.455  0.00  0.00    +0.086 C 
ATOM      6  N   UNL     1       1.836  -6.586   0.918  0.00  0.00    -0.281 NA
ATOM      7  C   UNL     1       0.584  -7.364   0.893  0.00  0.00    +0.145 C 
ATOM      8  C   UNL     1      -0.574  -6.390   1.109  0.00  0.00    +0.116 C 
ATOM      9  C   UNL     1      -1.543  -6.398  -0.040  0.00  0.00    -0.008 A 
ATOM     10  C   UNL     1      -1.414  -6.155  -1.389  0.00  0.00    +0.006 A 
ATOM     11  C   UNL     1      -2.519  -6.243  -2.217  0.00  0.00    +0.000 A 
ATOM     12  C   UNL     1      -3.752  -6.575  -1.686  0.00  0.00    +0.002 A 
ATOM     13  C   UNL     1      -3.886  -6.820  -0.335  0.00  0.00    +0.023 A 
ATOM     14  C   UNL     1      -2.778  -6.734   0.505  0.00  0.00    +0.038 A 
ATOM     15  N   UNL     1      -2.660  -6.935   1.882  0.00  0.00    -0.284 N 
ATOM     16  C   UNL     1      -1.397  -6.753   2.315  0.00  0.00    +0.231 C 
ATOM     17  O   UNL     1      -1.001  -6.861   3.457  0.00  0.00    -0.274 OA
ATOM     18  C   UNL     1       0.600  -8.442   1.944  0.00  0.00    +0.005 A 
ATOM     19  C   UNL     1       0.706  -8.420   3.316  0.00  0.00    +0.011 A 
ATOM     20  C   UNL     1       0.690  -9.605   4.030  0.00  0.00    -0.050 A 
ATOM     21  C   UNL     1       0.569 -10.810   3.361  0.00  0.00    +0.008 A 
ATOM     22  C   UNL     1       0.463 -10.835   1.986  0.00  0.00    -0.029 A 
ATOM     23  C   UNL     1       0.478  -9.646   1.260  0.00  0.00    +0.042 A 
ATOM     24  N   UNL     1       0.387  -9.415  -0.114  0.00  0.00    -0.283 N 
ATOM     25  C   UNL     1       0.441  -8.104  -0.413  0.00  0.00    +0.244 C 
ATOM     26  O   UNL     1       0.385  -7.612  -1.520  0.00  0.00    -0.273 OA
ATOM     27  C   UNL     1       0.331 -12.153   1.267  0.00  0.00    +0.045 C 
ATOM     28  C   UNL     1       0.806  -9.584   5.532  0.00  0.00    +0.044 C 
ATOM     29  H   UNL     1      -3.401  -7.176   2.460  0.00  0.00    +0.155 HD
ATOM     30  H   UNL     1       0.295 -10.118  -0.776  0.00  0.00    +0.155 HD
ENDROOT
BRANCH   1  31
ATOM     31  C   UNL     1       0.058  -4.245  -0.021  0.00  0.00    +0.169 C 
ATOM     32  O   UNL     1       1.002  -4.320  -0.779  0.00  0.00    -0.292 OA
BRANCH  31  37
ATOM     33  C   UNL     1      -4.480  -0.993  -1.392  0.00  0.00    +0.044 C 
ATOM     34  C   UNL     1      -3.290  -1.845  -1.033  0.00  0.00    -0.050 A 
ATOM     35  C   UNL     1      -2.214  -1.927  -1.900  0.00  0.00    +0.004 A 
ATOM     36  C   UNL     1      -1.122  -2.705  -1.578  0.00  0.00    +0.011 A 
ATOM     37  C   UNL     1      -1.103  -3.412  -0.372  0.00  0.00    +0.018 A 
ATOM     38  C   UNL     1      -2.194  -3.324   0.499  0.00  0.00    +0.011 A 
ATOM     39  C   UNL     1      -3.276  -2.538   0.166  0.00  0.00    +0.004 A 
ENDBRANCH  31  37
ENDBRANCH   1  31
TORSDOF 2
