REMARK  Name = ZINC03303016
REMARK  9 active torsions:
REMARK  status: ('A' for Active; 'I' for Inactive)
REMARK    1  A    between atoms: C_1  and  C_2
REMARK    2  A    between atoms: C_5  and  N_9
REMARK    3  A    between atoms: C_6  and  C_8
REMARK    4  A    between atoms: N_9  and  S_10
REMARK    5  A    between atoms: S_10  and  C_13
REMARK    6  A    between atoms: C_17  and  C_19
REMARK    7  A    between atoms: N_21  and  N_22
REMARK    8  A    between atoms: N_22  and  C_23
REMARK    9  A    between atoms: C_23  and  C_25
REMARK                            x       y       z     vdW  Elec       q    Type
REMARK                         _______ _______ _______ _____ _____    ______ ____
ROOT
ATOM      1  C   UNL     1       9.862   2.524  -0.202  0.00  0.00    +0.109 A 
ATOM      2  C   UNL     1      10.163   1.174  -0.222  0.00  0.00    +0.029 A 
ATOM      3  C   UNL     1       9.150   0.234  -0.297  0.00  0.00    +0.003 A 
ATOM      4  C   UNL     1       7.832   0.639  -0.346  0.00  0.00    +0.013 A 
ATOM      5  C   UNL     1       7.522   2.000  -0.332  0.00  0.00    +0.040 A 
ATOM      6  C   UNL     1       8.549   2.943  -0.257  0.00  0.00    +0.042 A 
ENDROOT
BRANCH   5   7
ATOM      7  C   UNL     1       6.112   2.441  -0.391  0.00  0.00    +0.260 C 
ATOM      8  O   UNL     1       5.845   3.627  -0.373  0.00  0.00    -0.269 OA
ATOM      9  N   UNL     1       5.123   1.528  -0.464  0.00  0.00    -0.232 N 
ATOM     10  H   UNL     1       5.336   0.582  -0.478  0.00  0.00    +0.173 HD
BRANCH   9  11
ATOM     11  N   UNL     1       3.787   1.946  -0.519  0.00  0.00    -0.264 N 
ATOM     12  H   UNL     1       3.574   2.892  -0.505  0.00  0.00    +0.170 HD
BRANCH  11  13
ATOM     13  C   UNL     1       2.762   1.001  -0.595  0.00  0.00    +0.051 C 
ATOM     14  C   UNL     1       3.056  -0.303  -0.614  0.00  0.00    +0.036 C 
BRANCH  13  15
ATOM     15  C   UNL     1       1.356   1.441  -0.653  0.00  0.00    +0.034 A 
ATOM     16  C   UNL     1       0.216   0.683  -0.730  0.00  0.00    +0.017 A 
ATOM     17  C   UNL     1      -1.002   1.323  -0.778  0.00  0.00    +0.008 A 
ATOM     18  C   UNL     1      -1.038   2.680  -0.739  0.00  0.00    +0.046 A 
ATOM     19  S   UNL     1       0.695   3.099  -0.642  0.00  0.00    -0.095 S 
ENDBRANCH  13  15
ENDBRANCH  11  13
ENDBRANCH   9  11
ENDBRANCH   5   7
BRANCH   1  20
ATOM     20  S   UNL     1      11.160   3.712  -0.107  0.00  0.00    +0.072 S 
ATOM     21  O   UNL     1      12.326   3.082  -0.617  0.00  0.00    -0.150 OA
ATOM     22  O   UNL     1      10.646   4.920  -0.653  0.00  0.00    -0.150 OA
BRANCH  20  23
ATOM     23  N   UNL     1      11.442   4.002   1.499  0.00  0.00    -0.216 N 
ATOM     24  H   UNL     1      11.328   4.896   1.858  0.00  0.00    +0.174 HD
BRANCH  23  29
ATOM     25  C   UNL     1      13.074  -0.233   4.899  0.00  0.00    +0.044 C 
ATOM     26  C   UNL     1      12.640   0.892   3.996  0.00  0.00    -0.050 A 
ATOM     27  C   UNL     1      13.078   0.932   2.684  0.00  0.00    +0.005 A 
ATOM     28  C   UNL     1      12.683   1.962   1.854  0.00  0.00    +0.025 A 
ATOM     29  C   UNL     1      11.843   2.958   2.336  0.00  0.00    +0.051 A 
ATOM     30  C   UNL     1      11.409   2.918   3.655  0.00  0.00    -0.028 A 
ATOM     31  C   UNL     1      11.804   1.882   4.479  0.00  0.00    +0.008 A 
ATOM     32  C   UNL     1      10.503   3.999   4.184  0.00  0.00    +0.046 C 
ENDBRANCH  23  29
ENDBRANCH  20  23
ENDBRANCH   1  20
TORSDOF 7
