REMARK  Name = ZINC12250285
REMARK  11 active torsions:
REMARK  status: ('A' for Active; 'I' for Inactive)
REMARK    1  A    between atoms: C_1  and  C_2
REMARK    2  A    between atoms: C_4  and  N_33
REMARK    3  A    between atoms: C_7  and  N_8
REMARK    4  A    between atoms: C_9  and  C_11
REMARK    5  A    between atoms: C_11  and  S_12
REMARK    6  A    between atoms: S_12  and  C_13
REMARK    7  A    between atoms: C_14  and  C_31
REMARK    8  A    between atoms: C_15  and  C_24
REMARK    9  A    between atoms: C_17  and  C_21
REMARK   10  A    between atoms: C_18  and  C_20
REMARK   11  A    between atoms: C_21  and  C_23
REMARK                            x       y       z     vdW  Elec       q    Type
REMARK                         _______ _______ _______ _____ _____    ______ ____
ROOT
ATOM      1  C   UNL     1      -4.718   2.520  -1.203  0.00  0.00    +0.093 C 
ATOM      2  C   UNL     1      -3.642   1.695  -1.102  0.00  0.00    +0.158 C 
ATOM      3  C   UNL     1      -2.938   1.488   0.209  0.00  0.00    +0.077 C 
ATOM      4  C   UNL     1      -3.791   1.960   1.352  0.00  0.00    +0.025 C 
ATOM      5  C   UNL     1      -4.852   2.769   1.157  0.00  0.00    +0.046 C 
ATOM      6  N   UNL     1      -5.198   3.184  -0.096  0.00  0.00    -0.248 NA
ATOM      7  C   UNL     1      -5.669   3.221   2.340  0.00  0.00    +0.066 C 
ENDROOT
BRANCH   3   8
ATOM      8  C   UNL     1      -1.643   2.260   0.205  0.00  0.00    -0.038 A 
ATOM      9  C   UNL     1      -0.440   1.592   0.337  0.00  0.00    +0.006 A 
ATOM     10  C   UNL     1       0.748   2.298   0.327  0.00  0.00    +0.020 A 
ATOM     11  C   UNL     1       0.732   3.675   0.191  0.00  0.00    +0.041 A 
ATOM     12  C   UNL     1      -0.472   4.344   0.065  0.00  0.00    +0.020 A 
ATOM     13  C   UNL     1      -1.660   3.636   0.075  0.00  0.00    +0.006 A 
ATOM     14 CL   UNL     1       2.224   4.563   0.178  0.00  0.00    -0.084 Cl
ENDBRANCH   3   8
BRANCH   4  15
ATOM     15  C   UNL     1      -3.475   1.549   2.657  0.00  0.00    +0.159 C 
ATOM     16  O   UNL     1      -3.115   2.366   3.481  0.00  0.00    -0.293 OA
ATOM     17  C   UNL     1      -3.582   0.094   3.035  0.00  0.00    +0.091 C 
ENDBRANCH   4  15
BRANCH   2  18
ATOM     18  C   UNL     1      -3.169   1.011  -2.268  0.00  0.00    +0.074 C 
ATOM     19  N   UNL     1      -2.794   0.468  -3.193  0.00  0.00    -0.196 NA
ENDBRANCH   2  18
BRANCH   1  20
ATOM     20  S   UNL     1      -5.505   2.742  -2.764  0.00  0.00    -0.100 S 
BRANCH  20  21
ATOM     21  C   UNL     1      -6.815   3.899  -2.294  0.00  0.00    +0.171 C 
BRANCH  21  23
ATOM     22  N   UNL     1      -8.681   5.092  -3.395  0.00  0.00    -0.285 N 
ATOM     23  C   UNL     1      -7.641   4.241  -3.506  0.00  0.00    +0.227 C 
ATOM     24  O   UNL     1      -7.371   3.752  -4.583  0.00  0.00    -0.275 OA
ATOM     25  H   UNL     1      -8.859   5.532  -2.549  0.00  0.00    +0.155 HD
BRANCH  22  32
ATOM     26  C   UNL     1     -11.454   5.529  -2.933  0.00  0.00    +0.046 C 
ATOM     27  C   UNL     1     -10.863   5.558  -4.319  0.00  0.00    -0.027 A 
ATOM     28  C   UNL     1     -11.672   5.808  -5.411  0.00  0.00    +0.038 A 
ATOM     29  C   UNL     1     -11.131   5.829  -6.683  0.00  0.00    +0.127 A 
ATOM     30  C   UNL     1      -9.778   5.606  -6.867  0.00  0.00    +0.034 A 
ATOM     31  C   UNL     1      -8.964   5.361  -5.779  0.00  0.00    +0.026 A 
ATOM     32  C   UNL     1      -9.504   5.340  -4.499  0.00  0.00    +0.036 A 
BRANCH  29  33
ATOM     33  N   UNL     1     -12.002   6.090  -7.851  0.00  0.00    +0.056 N 
ATOM     34  O   UNL     1     -11.526   6.109  -8.973  0.00  0.00    -0.126 OA
ATOM     35  O   UNL     1     -13.193   6.287  -7.691  0.00  0.00    -0.126 OA
ENDBRANCH  29  33
ENDBRANCH  22  32
ENDBRANCH  21  23
ENDBRANCH  20  21
ENDBRANCH   1  20
TORSDOF 8
