REMARK  Name = ZINC34779631
REMARK  10 active torsions:
REMARK  status: ('A' for Active; 'I' for Inactive)
REMARK    1  A    between atoms: C_1  and  C_2
REMARK    2  A    between atoms: C_2  and  C_3
REMARK    3  A    between atoms: C_3  and  C_4
REMARK    4  A    between atoms: C_4  and  N_5
REMARK    5  A    between atoms: C_9  and  C_34
REMARK    6  A    between atoms: C_10  and  C_30
REMARK    7  A    between atoms: N_13  and  C_16
REMARK    8  A    between atoms: C_16  and  C_17
REMARK    9  A    between atoms: N_19  and  C_20
REMARK   10  A    between atoms: N_32  and  N_33
REMARK                            x       y       z     vdW  Elec       q    Type
REMARK                         _______ _______ _______ _____ _____    ______ ____
ROOT
ATOM      1  N   UNL     1       1.453  -2.510   2.413  0.00  0.00    -0.260 N 
ATOM      2  C   UNL     1       2.780  -2.711   2.343  0.00  0.00    +0.265 A 
ATOM      3  O   UNL     1       3.383  -2.485   1.310  0.00  0.00    -0.267 OA
ATOM      4  C   UNL     1       3.501  -3.210   3.539  0.00  0.00    +0.074 A 
ATOM      5  C   UNL     1       4.867  -3.486   3.686  0.00  0.00    -0.017 A 
ATOM      6  C   UNL     1       5.283  -3.940   4.904  0.00  0.00    +0.081 A 
ATOM      7  S   UNL     1       3.770  -3.984   5.843  0.00  0.00    -0.065 S 
ATOM      8  C   UNL     1       2.709  -3.437   4.674  0.00  0.00    +0.098 A 
ATOM      9  N   UNL     1       1.363  -3.204   4.653  0.00  0.00    -0.278 N 
ATOM     10  C   UNL     1       0.760  -2.745   3.540  0.00  0.00    +0.333 A 
ATOM     11  O   UNL     1      -0.438  -2.543   3.553  0.00  0.00    -0.246 OA
ATOM     12  C   UNL     1       5.835  -3.288   2.548  0.00  0.00    +0.046 C 
ENDROOT
BRANCH   6  13
ATOM     13  C   UNL     1       6.636  -4.303   5.331  0.00  0.00    +0.264 C 
ATOM     14  O   UNL     1       7.566  -4.212   4.551  0.00  0.00    -0.268 OA
ATOM     15  N   UNL     1       6.852  -4.736   6.589  0.00  0.00    -0.249 N 
ATOM     16  H   UNL     1       6.111  -4.809   7.211  0.00  0.00    +0.169 HD
BRANCH  15  17
ATOM     17  N   UNL     1       8.114  -5.074   6.987  0.00  0.00    -0.254 NA
ATOM     18  H   UNL     1       8.755  -4.308   6.847  0.00  0.00    +0.140 HD
ATOM     19  H   UNL     1       8.120  -5.379   7.949  0.00  0.00    +0.140 HD
ENDBRANCH  15  17
ENDBRANCH   6  13
BRANCH   1  20
ATOM     20  C   UNL     1       0.743  -2.017   1.231  0.00  0.00    +0.130 C 
BRANCH  20  21
ATOM     21  C   UNL     1       0.729  -0.487   1.246  0.00  0.00    +0.022 C 
BRANCH  21  23
ATOM     22  C   UNL     1      -0.025   1.559   0.026  0.00  0.00    +0.004 C 
ATOM     23  C   UNL     1      -0.012   0.029   0.011  0.00  0.00    -0.002 C 
ENDBRANCH  21  23
ENDBRANCH  20  21
ENDBRANCH   1  20
BRANCH   9  24
ATOM     24  C   UNL     1       0.566  -3.452   5.857  0.00  0.00    +0.223 C 
BRANCH  24  25
ATOM     25  C   UNL     1       0.517  -2.199   6.693  0.00  0.00    +0.237 C 
ATOM     26  O   UNL     1       1.091  -1.198   6.319  0.00  0.00    -0.274 OA
ATOM     27  N   UNL     1      -0.164  -2.191   7.856  0.00  0.00    -0.283 N 
ATOM     28  H   UNL     1      -0.677  -2.970   8.123  0.00  0.00    +0.155 HD
BRANCH  27  29
ATOM     29  C   UNL     1      -0.132  -1.061   8.676  0.00  0.00    +0.041 A 
ATOM     30  C   UNL     1      -0.076   0.199   8.122  0.00  0.00    +0.024 A 
ATOM     31  C   UNL     1      -0.043   1.331   8.930  0.00  0.00    +0.002 A 
ATOM     32  C   UNL     1      -0.066   1.227  10.288  0.00  0.00    +0.008 A 
ATOM     33  C   UNL     1      -0.123  -0.040  10.893  0.00  0.00    -0.016 A 
ATOM     34  C   UNL     1      -0.162  -1.200  10.080  0.00  0.00    +0.003 A 
ATOM     35  C   UNL     1      -0.223  -2.465  10.686  0.00  0.00    +0.010 A 
ATOM     36  C   UNL     1      -0.250  -2.561  12.044  0.00  0.00    +0.001 A 
ATOM     37  C   UNL     1      -0.218  -1.421  12.844  0.00  0.00    +0.001 A 
ATOM     38  C   UNL     1      -0.147  -0.179  12.291  0.00  0.00    +0.008 A 
ENDBRANCH  27  29
ENDBRANCH  24  25
ENDBRANCH   9  24
TORSDOF 8
