REMARK  Name = ZINC39406197
REMARK  9 active torsions:
REMARK  status: ('A' for Active; 'I' for Inactive)
REMARK    1  A    between atoms: C_1  and  C_2
REMARK    2  A    between atoms: C_2  and  C_3
REMARK    3  A    between atoms: C_3  and  C_4
REMARK    4  A    between atoms: C_4  and  C_6
REMARK    5  A    between atoms: C_4  and  N_7
REMARK    6  A    between atoms: C_12  and  C_15
REMARK    7  A    between atoms: C_18  and  C_20
REMARK    8  A    between atoms: C_24  and  S_26
REMARK    9  A    between atoms: S_26  and  N_29
REMARK                            x       y       z     vdW  Elec       q    Type
REMARK                         _______ _______ _______ _____ _____    ______ ____
ROOT
ATOM      1  C   UNL     1       0.492  -6.899   0.757  0.00  0.00    +0.145 A 
ATOM      2  C   UNL     1       1.287  -7.980   0.876  0.00  0.00    +0.049 A 
ATOM      3  C   UNL     1       0.721  -8.998   0.083  0.00  0.00    +0.050 A 
ATOM      4  C   UNL     1      -0.400  -8.476  -0.483  0.00  0.00    +0.135 A 
ATOM      5  O   UNL     1      -0.529  -7.204  -0.060  0.00  0.00    -0.456 OA
ENDROOT
BRANCH   1  10
ATOM      6  N   UNL     1       1.548  -2.511  -0.144  0.00  0.00    -0.230 N 
ATOM      7  C   UNL     1       1.117  -3.373   0.959  0.00  0.00    +0.212 C 
ATOM      8  C   UNL     1       2.423  -4.092   1.293  0.00  0.00    +0.094 C 
ATOM      9  N   UNL     1       2.149  -5.311   1.600  0.00  0.00    -0.257 NA
ATOM     10  C   UNL     1       0.710  -5.570   1.433  0.00  0.00    +0.241 C 
ATOM     11  N   UNL     1       0.191  -4.447   0.576  0.00  0.00    -0.265 NA
ATOM     12  C   UNL     1       3.423  -3.071   0.976  0.00  0.00    +0.156 C 
ATOM     13  N   UNL     1       2.910  -2.252   0.102  0.00  0.00    -0.189 NA
ATOM     14  H   UNL     1      -0.760  -4.207   0.812  0.00  0.00    +0.126 HD
BRANCH   6  15
ATOM     15  C   UNL     1       0.739  -2.027  -1.265  0.00  0.00    +0.092 C 
ATOM     16  C   UNL     1       1.343  -2.522  -2.581  0.00  0.00    +0.030 C 
BRANCH  15  17
ATOM     17  C   UNL     1       0.718  -0.497  -1.257  0.00  0.00    +0.023 C 
BRANCH  17  19
ATOM     18  C   UNL     1      -0.019   1.526   0.010  0.00  0.00    +0.004 C 
ATOM     19  C   UNL     1       0.002  -0.004   0.002  0.00  0.00    -0.002 C 
ENDBRANCH  17  19
ENDBRANCH  15  17
ENDBRANCH   6  15
ENDBRANCH   1  10
BRANCH   4  20
ATOM     20  C   UNL     1      -1.320  -9.184  -1.398  0.00  0.00    +0.019 A 
ATOM     21  C   UNL     1      -1.075 -10.513  -1.748  0.00  0.00    +0.011 A 
ATOM     22  C   UNL     1      -1.938 -11.168  -2.602  0.00  0.00    +0.003 A 
ATOM     23  C   UNL     1      -3.044 -10.510  -3.111  0.00  0.00    +0.028 A 
ATOM     24  C   UNL     1      -3.292  -9.193  -2.768  0.00  0.00    +0.106 A 
ATOM     25  C   UNL     1      -2.440  -8.528  -1.910  0.00  0.00    +0.040 A 
BRANCH  24  26
ATOM     26  S   UNL     1      -4.703  -8.365  -3.423  0.00  0.00    +0.056 S 
ATOM     27  O   UNL     1      -4.413  -6.975  -3.382  0.00  0.00    -0.153 OA
ATOM     28  O   UNL     1      -5.046  -9.037  -4.627  0.00  0.00    -0.153 OA
BRANCH  26  29
ATOM     29  N   UNL     1      -5.953  -8.619  -2.367  0.00  0.00    -0.204 NA
ATOM     30  H   UNL     1      -5.812  -9.146  -1.565  0.00  0.00    +0.144 HD
ATOM     31  H   UNL     1      -6.827  -8.240  -2.550  0.00  0.00    +0.144 HD
ENDBRANCH  26  29
ENDBRANCH  24  26
ENDBRANCH   4  20
TORSDOF 7
