REMARK  Name = ZINC53619761
REMARK  5 active torsions:
REMARK  status: ('A' for Active; 'I' for Inactive)
REMARK    1  A    between atoms: C_1  and  C_2
REMARK    2  A    between atoms: C_6  and  C_8
REMARK    3  A    between atoms: C_13  and  N_14
REMARK    4  A    between atoms: C_18  and  C_20
REMARK    5  A    between atoms: C_23  and  C_27
REMARK                            x       y       z     vdW  Elec       q    Type
REMARK                         _______ _______ _______ _____ _____    ______ ____
ROOT
ATOM      1  C   UNL     1      -0.419   1.059   1.276  0.00  0.00    +0.066 C 
ATOM      2  C   UNL     1      -0.915   1.803   0.062  0.00  0.00    +0.054 A 
ATOM      3  N   UNL     1      -2.205   1.950  -0.177  0.00  0.00    -0.229 NA
ATOM      4  C   UNL     1      -2.629   2.601  -1.238  0.00  0.00    +0.165 A 
ATOM      5  N   UNL     1      -3.938   2.845  -1.635  0.00  0.00    -0.261 N 
ATOM      6  C   UNL     1      -4.964   2.389  -0.890  0.00  0.00    +0.252 C 
ATOM      7  O   UNL     1      -4.744   1.764   0.129  0.00  0.00    -0.270 OA
ATOM      8  S   UNL     1      -1.202   3.067  -1.998  0.00  0.00    -0.053 S 
ATOM      9  C   UNL     1      -0.056   2.355  -0.829  0.00  0.00    +0.059 A 
ATOM     10  H   UNL     1      -4.113   3.344  -2.448  0.00  0.00    +0.157 HD
ENDROOT
BRANCH   9  11
ATOM     11  C   UNL     1       1.451   2.365  -0.833  0.00  0.00    +0.250 C 
ATOM     12  N   UNL     1       1.951   2.399  -2.225  0.00  0.00    -0.265 NA
ATOM     13  C   UNL     1       3.155   1.526  -2.199  0.00  0.00    +0.187 C 
ATOM     14  N   UNL     1       2.748   0.456  -1.250  0.00  0.00    -0.177 NA
ATOM     15  O   UNL     1       1.949   1.162  -0.228  0.00  0.00    -0.274 OA
ATOM     16  H   UNL     1       1.259   2.042  -2.867  0.00  0.00    +0.127 HD
ATOM     17  H   UNL     1       2.199  -0.250  -1.716  0.00  0.00    +0.156 HD
BRANCH  13  18
ATOM     18  C   UNL     1       3.436   0.958  -3.566  0.00  0.00    +0.023 A 
ATOM     19  C   UNL     1       4.012  -0.223  -3.898  0.00  0.00    +0.014 A 
ATOM     20  C   UNL     1       4.170  -0.540  -5.234  0.00  0.00    +0.008 A 
ATOM     21  C   UNL     1       3.744   0.340  -6.173  0.00  0.00    +0.045 A 
ATOM     22  S   UNL     1       3.090   1.664  -5.169  0.00  0.00    -0.099 S 
ENDBRANCH  13  18
ENDBRANCH   9  11
BRANCH   6  23
ATOM     23  C   UNL     1      -6.356   2.649  -1.312  0.00  0.00    +0.067 A 
ATOM     24  C   UNL     1      -6.783   3.956  -1.556  0.00  0.00    +0.015 A 
ATOM     25  C   UNL     1      -8.084   4.191  -1.949  0.00  0.00    +0.001 A 
ATOM     26  C   UNL     1      -8.965   3.136  -2.102  0.00  0.00    +0.002 A 
ATOM     27  C   UNL     1      -8.550   1.839  -1.861  0.00  0.00    +0.033 A 
ATOM     28  C   UNL     1      -7.250   1.589  -1.473  0.00  0.00    +0.138 A 
BRANCH  28  29
ATOM     29  N   UNL     1      -6.804   0.199  -1.223  0.00  0.00    +0.057 N 
ATOM     30  O   UNL     1      -7.606  -0.705  -1.243  0.00  0.00    -0.126 OA
ATOM     31  O   UNL     1      -5.639  -0.031  -0.999  0.00  0.00    -0.126 OA
ENDBRANCH  28  29
ENDBRANCH   6  23
TORSDOF 4
