REMARK  Name = ZINC21663194
REMARK  4 active torsions:
REMARK  status: ('A' for Active; 'I' for Inactive)
REMARK    1  A    between atoms: C_1  and  C_2
REMARK    2  A    between atoms: C_3  and  S_17
REMARK    3  A    between atoms: C_4  and  C_16
REMARK    4  A    between atoms: S_17  and  C_18
REMARK                            x       y       z     vdW  Elec       q    Type
REMARK                         _______ _______ _______ _____ _____    ______ ____
ROOT
ATOM      1  C   UNL     1       3.605   0.796  -0.028  0.00  0.00    +0.069 C 
ATOM      2  C   UNL     1       2.098   0.763  -0.014  0.00  0.00    +0.075 A 
ATOM      3  C   UNL     1       1.302  -0.394  -0.013  0.00  0.00    +0.058 A 
ATOM      4  C   UNL     1       0.002  -0.004   0.002  0.00  0.00    +0.060 A 
ATOM      5  N   UNL     1      -0.016   1.360   0.009  0.00  0.00    -0.186 N 
ATOM      6  N   UNL     1       1.311   1.807  -0.001  0.00  0.00    -0.167 NA
ATOM      7  C   UNL     1      -1.149   2.162   0.019  0.00  0.00    +0.325 A 
ATOM      8  N   UNL     1      -1.141   3.468   0.026  0.00  0.00    -0.191 NA
ATOM      9  C   UNL     1      -2.426   3.913   0.035  0.00  0.00    +0.111 A 
ATOM     10  C   UNL     1      -3.007   5.183   0.045  0.00  0.00    +0.031 A 
ATOM     11  C   UNL     1      -4.379   5.306   0.052  0.00  0.00    +0.002 A 
ATOM     12  C   UNL     1      -5.185   4.177   0.049  0.00  0.00    +0.004 A 
ATOM     13  C   UNL     1      -4.624   2.917   0.040  0.00  0.00    +0.048 A 
ATOM     14  C   UNL     1      -3.245   2.774   0.033  0.00  0.00    +0.157 A 
ATOM     15  O   UNL     1      -2.414   1.708   0.017  0.00  0.00    -0.421 OA
ATOM     16  C   UNL     1      -1.201  -0.912   0.009  0.00  0.00    +0.067 C 
ENDROOT
BRANCH   3  17
ATOM     17  S   UNL     1       1.886  -2.056  -0.027  0.00  0.00    -0.057 S 
BRANCH  17  18
ATOM     18  C   UNL     1       2.011  -2.449  -1.740  0.00  0.00    +0.165 A 
ATOM     19  N   UNL     1       1.740  -1.700  -2.792  0.00  0.00    -0.133 NA
ATOM     20  N   UNL     1       1.911  -2.211  -4.058  0.00  0.00    -0.125 NA
ATOM     21  C   UNL     1       2.344  -3.446  -4.214  0.00  0.00    +0.180 A 
ATOM     22  S   UNL     1       2.546  -3.966  -2.517  0.00  0.00    -0.024 S 
ATOM     23  N   UNL     1       2.584  -4.153  -5.387  0.00  0.00    -0.336 N 
ATOM     24  H   UNL     1       2.949  -5.190  -5.339  0.00  0.00    +0.144 HD
ATOM     25  H   UNL     1       2.409  -3.676  -6.362  0.00  0.00    +0.144 HD
ENDBRANCH  17  18
ENDBRANCH   3  17
TORSDOF 2
