REMARK  Name = ZINC39411910
REMARK  13 active torsions:
REMARK  status: ('A' for Active; 'I' for Inactive)
REMARK    1  A    between atoms: C_1  and  C_2
REMARK    2  A    between atoms: C_2  and  C_34
REMARK    3  A    between atoms: C_4  and  N_10
REMARK    4  A    between atoms: C_6  and  C_8
REMARK    5  A    between atoms: C_6  and  C_9
REMARK    6  A    between atoms: N_10  and  C_11
REMARK    7  A    between atoms: N_10  and  C_20
REMARK    8  A    between atoms: C_11  and  C_12
REMARK    9  A    between atoms: C_15  and  O_18
REMARK   10  A    between atoms: O_18  and  C_19
REMARK   11  A    between atoms: C_20  and  N_22
REMARK   12  A    between atoms: N_22  and  C_23
REMARK   13  A    between atoms: C_25  and  C_30
REMARK                            x       y       z     vdW  Elec       q    Type
REMARK                         _______ _______ _______ _____ _____    ______ ____
ROOT
ATOM      1  N   UNL     1      -2.857  -2.431   0.177  0.00  0.00    -0.305 N 
ENDROOT
BRANCH   1   5
ATOM      2  C   UNL     1       1.821  -3.920   0.221  0.00  0.00    -0.010 C 
ATOM      3  C   UNL     1       0.931  -2.655   0.211  0.00  0.00    -0.072 C 
ATOM      4  C   UNL     1      -0.517  -3.117   0.340  0.00  0.00    +0.009 C 
ATOM      5  C   UNL     1      -1.473  -1.953   0.079  0.00  0.00    +0.073 C 
ATOM      6  C   UNL     1      -1.218  -1.434  -1.336  0.00  0.00    +0.009 C 
ATOM      7  C   UNL     1       0.225  -0.959  -1.476  0.00  0.00    -0.072 C 
ATOM      8  N   UNL     1       1.198  -1.936  -1.021  0.00  0.00    +0.386 N 
ATOM      9  C   UNL     1       0.401   0.381  -0.755  0.00  0.00    -0.010 C 
ATOM     10  C   UNL     1       0.483  -0.703  -2.979  0.00  0.00    -0.010 C 
ATOM     11  C   UNL     1       1.320  -1.823   1.438  0.00  0.00    -0.010 C 
ATOM     12  H   UNL     1       2.105  -1.467  -0.929  0.00  0.00    -0.084 HD
ATOM     13  H   UNL     1       1.337  -2.623  -1.769  0.00  0.00    -0.084 HD
ENDBRANCH   1   5
BRANCH   1  14
ATOM     14  C   UNL     1      -3.652  -1.993   1.173  0.00  0.00    +0.138 C 
ATOM     15  S   UNL     1      -5.235  -2.624   1.345  0.00  0.00    -0.018 S 
BRANCH  14  16
ATOM     16  N   UNL     1      -3.202  -1.059   2.034  0.00  0.00    -0.296 N 
ATOM     17  H   UNL     1      -2.887  -1.321   2.913  0.00  0.00    +0.154 HD
BRANCH  16  18
ATOM     18  C   UNL     1      -3.190   0.289   1.659  0.00  0.00    +0.052 A 
ATOM     19  C   UNL     1      -3.746   0.680   0.448  0.00  0.00    +0.037 A 
ATOM     20  C   UNL     1      -3.732   2.012   0.081  0.00  0.00    +0.057 A 
ATOM     21  C   UNL     1      -3.166   2.956   0.918  0.00  0.00    +0.014 A 
ATOM     22  C   UNL     1      -2.611   2.571   2.124  0.00  0.00    +0.022 A 
ATOM     23  C   UNL     1      -2.626   1.241   2.501  0.00  0.00    +0.062 A 
ATOM     24 CL   UNL     1      -1.936   0.759   4.019  0.00  0.00    -0.082 Cl
BRANCH  20  25
ATOM     25  C   UNL     1      -4.335   2.436  -1.233  0.00  0.00    +0.417 C 
ATOM     26  F   UNL     1      -5.688   2.743  -1.048  0.00  0.00    -0.166 F 
ATOM     27  F   UNL     1      -3.663   3.566  -1.712  0.00  0.00    -0.166 F 
ATOM     28  F   UNL     1      -4.215   1.395  -2.159  0.00  0.00    -0.166 F 
ENDBRANCH  20  25
ENDBRANCH  16  18
ENDBRANCH  14  16
ENDBRANCH   1  14
BRANCH   1  29
ATOM     29  C   UNL     1      -3.374  -3.385  -0.807  0.00  0.00    +0.142 C 
BRANCH  29  30
ATOM     30  C   UNL     1      -3.177  -4.790  -0.297  0.00  0.00    -0.030 A 
ATOM     31  C   UNL     1      -2.079  -5.524  -0.705  0.00  0.00    +0.009 A 
ATOM     32  C   UNL     1      -1.897  -6.812  -0.239  0.00  0.00    +0.046 A 
ATOM     33  C   UNL     1      -2.817  -7.368   0.638  0.00  0.00    +0.120 A 
ATOM     34  C   UNL     1      -3.918  -6.629   1.045  0.00  0.00    +0.046 A 
ATOM     35  C   UNL     1      -4.093  -5.339   0.581  0.00  0.00    +0.009 A 
BRANCH  33  36
ATOM     36  O   UNL     1      -2.640  -8.635   1.097  0.00  0.00    -0.495 OA
ATOM     37  C   UNL     1      -3.627  -9.142   1.997  0.00  0.00    +0.277 C 
ENDBRANCH  33  36
ENDBRANCH  29  30
ENDBRANCH   1  29
TORSDOF 8
