REMARK  Name = ZINC08432346
REMARK  10 active torsions:
REMARK  status: ('A' for Active; 'I' for Inactive)
REMARK    1  A    between atoms: C_1  and  C_2
REMARK    2  A    between atoms: C_3  and  C_30
REMARK    3  A    between atoms: C_4  and  C_23
REMARK    4  A    between atoms: C_11  and  N_12
REMARK    5  A    between atoms: C_11  and  O_22
REMARK    6  A    between atoms: N_12  and  C_13
REMARK    7  A    between atoms: N_12  and  C_19
REMARK    8  A    between atoms: C_19  and  C_20
REMARK    9  A    between atoms: C_19  and  C_21
REMARK   10  A    between atoms: N_32  and  C_33
REMARK                            x       y       z     vdW  Elec       q    Type
REMARK                         _______ _______ _______ _____ _____    ______ ____
ROOT
ATOM      1  C   UNL     1       3.455   0.703   1.125  0.00  0.00    +0.066 C 
ATOM      2  C   UNL     1       2.057   0.220   0.837  0.00  0.00    +0.051 C 
ATOM      3  C   UNL     1       1.111   1.122   0.473  0.00  0.00    +0.060 C 
ATOM      4  C   UNL     1      -0.331   0.736   0.270  0.00  0.00    +0.147 C 
ATOM      5  N   UNL     1      -0.391  -0.728   0.026  0.00  0.00    -0.254 N 
ATOM      6  C   UNL     1       0.621  -1.522   0.520  0.00  0.00    +0.161 C 
ATOM      7  N   UNL     1       1.786  -1.086   0.947  0.00  0.00    -0.230 NA
ATOM      8  S   UNL     1       0.033  -3.190   0.408  0.00  0.00    -0.084 S 
ATOM      9  C   UNL     1      -1.336  -2.913  -0.785  0.00  0.00    +0.154 C 
ATOM     10  C   UNL     1      -1.448  -1.375  -0.734  0.00  0.00    +0.220 C 
ENDROOT
BRANCH   4  11
ATOM     11  C   UNL     1      -1.127   1.080   1.502  0.00  0.00    -0.022 A 
ATOM     12  C   UNL     1      -1.081   0.250   2.608  0.00  0.00    +0.008 A 
ATOM     13  C   UNL     1      -1.807   0.567   3.740  0.00  0.00    +0.038 A 
ATOM     14  C   UNL     1      -2.589   1.709   3.764  0.00  0.00    +0.123 A 
ATOM     15  C   UNL     1      -2.639   2.536   2.654  0.00  0.00    +0.038 A 
ATOM     16  C   UNL     1      -1.908   2.220   1.525  0.00  0.00    +0.008 A 
ATOM     17  F   UNL     1      -3.304   2.016   4.869  0.00  0.00    -0.205 F 
ENDBRANCH   4  11
BRANCH   3  18
ATOM     18  C   UNL     1       1.490   2.463   0.280  0.00  0.00    +0.248 C 
ATOM     19  O   UNL     1       2.651   2.798   0.439  0.00  0.00    -0.270 OA
ATOM     20  N   UNL     1       0.569   3.378  -0.082  0.00  0.00    -0.282 N 
ATOM     21  H   UNL     1      -0.366   3.127  -0.143  0.00  0.00    +0.155 HD
BRANCH  20  22
ATOM     22  C   UNL     1       0.961   4.689  -0.369  0.00  0.00    +0.034 A 
ATOM     23  C   UNL     1       0.316   5.405  -1.370  0.00  0.00    +0.023 A 
ATOM     24  C   UNL     1       0.702   6.701  -1.648  0.00  0.00    +0.002 A 
ATOM     25  C   UNL     1       1.736   7.284  -0.939  0.00  0.00    +0.000 A 
ATOM     26  C   UNL     1       2.384   6.572   0.055  0.00  0.00    +0.002 A 
ATOM     27  C   UNL     1       1.999   5.277   0.342  0.00  0.00    +0.023 A 
ENDBRANCH  20  22
ENDBRANCH   3  18
BRANCH  10  28
ATOM     28  O   UNL     1      -2.705  -1.030  -0.149  0.00  0.00    -0.356 OA
ATOM     29  H   UNL     1      -3.461  -1.484  -0.547  0.00  0.00    +0.214 HD
ENDBRANCH  10  28
BRANCH  10  30
ATOM     30  N   UNL     1      -1.420  -0.859  -2.104  0.00  0.00    -0.284 N 
BRANCH  30  31
ATOM     31  C   UNL     1      -2.574  -0.309  -2.667  0.00  0.00    +0.033 A 
ATOM     32  C   UNL     1      -3.193  -0.938  -3.740  0.00  0.00    +0.023 A 
ATOM     33  C   UNL     1      -4.336  -0.394  -4.291  0.00  0.00    +0.002 A 
ATOM     34  C   UNL     1      -4.859   0.781  -3.783  0.00  0.00    +0.000 A 
ATOM     35  C   UNL     1      -4.242   1.413  -2.718  0.00  0.00    +0.002 A 
ATOM     36  C   UNL     1      -3.101   0.871  -2.159  0.00  0.00    +0.023 A 
ENDBRANCH  30  31
BRANCH  30  37
ATOM     37  C   UNL     1      -0.181  -0.920  -2.885  0.00  0.00    +0.072 C 
ATOM     38  C   UNL     1       0.868  -0.007  -2.248  0.00  0.00    +0.028 C 
ATOM     39  C   UNL     1       0.339  -2.359  -2.904  0.00  0.00    +0.028 C 
ENDBRANCH  30  37
ENDBRANCH  10  30
TORSDOF 7
