REMARK  Name = ZINC28528406
REMARK  12 active torsions:
REMARK  status: ('A' for Active; 'I' for Inactive)
REMARK    1  A    between atoms: C_1  and  C_2
REMARK    2  A    between atoms: C_2  and  N_3
REMARK    3  A    between atoms: N_3  and  C_4
REMARK    4  A    between atoms: N_3  and  C_12
REMARK    5  A    between atoms: C_4  and  C_5
REMARK    6  A    between atoms: C_8  and  C_11
REMARK    7  A    between atoms: C_12  and  C_13
REMARK    8  A    between atoms: C_13  and  C_15
REMARK    9  A    between atoms: C_13  and  O_40
REMARK   10  A    between atoms: C_15  and  N_16
REMARK   11  A    between atoms: N_28  and  C_31
REMARK   12  A    between atoms: C_31  and  C_32
REMARK                            x       y       z     vdW  Elec       q    Type
REMARK                         _______ _______ _______ _____ _____    ______ ____
ROOT
ATOM      1  N   UNL     1       3.825   3.509   0.033  0.00  0.00    -0.268 N 
ATOM      2  C   UNL     1       4.554   3.619  -1.153  0.00  0.00    +0.041 A 
ATOM      3  C   UNL     1       4.143   3.561  -2.483  0.00  0.00    +0.024 A 
ATOM      4  C   UNL     1       5.065   3.700  -3.499  0.00  0.00    +0.002 A 
ATOM      5  C   UNL     1       6.402   3.899  -3.208  0.00  0.00    +0.000 A 
ATOM      6  C   UNL     1       6.818   3.958  -1.889  0.00  0.00    +0.006 A 
ATOM      7  C   UNL     1       5.901   3.819  -0.872  0.00  0.00    -0.011 A 
ATOM      8  C   UNL     1       6.018   3.831   0.631  0.00  0.00    +0.071 C 
ATOM      9  C   UNL     1       4.605   3.627   1.122  0.00  0.00    +0.230 C 
ATOM     10  O   UNL     1       4.242   3.577   2.278  0.00  0.00    -0.274 OA
ATOM     11  C   UNL     1       6.556   5.174   1.116  0.00  0.00    +0.002 C 
ATOM     12  C   UNL     1       6.686   5.146   2.642  0.00  0.00    -0.077 C 
ATOM     13  N   UNL     1       7.581   4.050   3.037  0.00  0.00    +0.380 N 
ATOM     14  C   UNL     1       7.038   2.747   2.632  0.00  0.00    -0.077 C 
ATOM     15  C   UNL     1       6.920   2.695   1.106  0.00  0.00    +0.002 C 
ATOM     16  H   UNL     1       8.536   4.192   2.510  0.00  0.00    -0.082 HD
ENDROOT
BRANCH   1  17
ATOM     17  C   UNL     1       2.376   3.294   0.084  0.00  0.00    +0.143 C 
BRANCH  17  18
ATOM     18  C   UNL     1       2.083   1.792   0.099  0.00  0.00    +0.116 C 
BRANCH  18  19
ATOM     19  O   UNL     1       2.594   1.220   1.305  0.00  0.00    -0.392 OA
ATOM     20  H   UNL     1       3.668   1.283   1.532  0.00  0.00    +0.210 HD
ENDBRANCH  18  19
BRANCH  18  21
ATOM     21  C   UNL     1       0.572   1.567   0.027  0.00  0.00    -0.045 C 
BRANCH  21  22
ATOM     22  N   UNL     1       0.291   0.125   0.042  0.00  0.00    +0.384 N 
ATOM     23  H   UNL     1       0.816  -0.313   0.903  0.00  0.00    -0.081 HD
BRANCH  22  25
ATOM     24  C   UNL     1       0.863  -2.036  -0.958  0.00  0.00    -0.017 C 
ATOM     25  C   UNL     1       0.799  -0.523  -1.175  0.00  0.00    -0.082 C 
ENDBRANCH  22  25
BRANCH  22  26
ATOM     26  C   UNL     1      -1.146  -0.129   0.212  0.00  0.00    -0.043 C 
BRANCH  26  27
ATOM     27  C   UNL     1      -1.532   0.115   1.649  0.00  0.00    -0.064 A 
ATOM     28  C   UNL     1      -1.365  -0.885   2.588  0.00  0.00    +0.002 A 
ATOM     29  C   UNL     1      -1.715  -0.660   3.907  0.00  0.00    +0.003 A 
ATOM     30  C   UNL     1      -2.241   0.562   4.283  0.00  0.00    -0.050 A 
ATOM     31  C   UNL     1      -2.412   1.560   3.342  0.00  0.00    +0.003 A 
ATOM     32  C   UNL     1      -2.058   1.336   2.025  0.00  0.00    +0.002 A 
ATOM     33  C   UNL     1      -2.627   0.805   5.719  0.00  0.00    +0.044 C 
ENDBRANCH  26  27
ENDBRANCH  22  26
ENDBRANCH  21  22
ENDBRANCH  18  21
ENDBRANCH  17  18
ENDBRANCH   1  17
BRANCH  13  34
ATOM     34  C   UNL     1       7.848   4.083   4.481  0.00  0.00    -0.075 C 
BRANCH  34  35
ATOM     35  C   UNL     1       8.637   5.349   4.824  0.00  0.00    -0.028 C 
ATOM     36  C   UNL     1      10.013   5.289   4.158  0.00  0.00    +0.002 C 
ATOM     37  C   UNL     1      10.641   6.684   4.158  0.00  0.00    +0.000 C 
ATOM     38  C   UNL     1       9.590   7.717   3.748  0.00  0.00    +0.000 C 
ATOM     39  C   UNL     1       9.277   8.626   4.939  0.00  0.00    +0.000 C 
ATOM     40  C   UNL     1       8.386   7.876   5.931  0.00  0.00    +0.000 C 
ATOM     41  C   UNL     1       9.230   6.870   6.715  0.00  0.00    +0.000 C 
ATOM     42  C   UNL     1       8.808   5.447   6.341  0.00  0.00    +0.002 C 
ENDBRANCH  34  35
ENDBRANCH  13  34
TORSDOF 10
