REMARK  Name = ZINC63376089
REMARK  13 active torsions:
REMARK  status: ('A' for Active; 'I' for Inactive)
REMARK    1  A    between atoms: C_1  and  C_2
REMARK    2  A    between atoms: C_3  and  O_40
REMARK    3  A    between atoms: C_11  and  C_16
REMARK    4  A    between atoms: C_13  and  C_15
REMARK    5  A    between atoms: C_16  and  C_17
REMARK    6  A    between atoms: N_19  and  C_20
REMARK    7  A    between atoms: C_20  and  C_22
REMARK    8  A    between atoms: C_20  and  C_32
REMARK    9  A    between atoms: C_22  and  C_23
REMARK   10  A    between atoms: N_34  and  C_35
REMARK   11  A    between atoms: C_35  and  C_36
REMARK   12  A    between atoms: C_36  and  C_37
REMARK   13  A    between atoms: O_40  and  C_41
REMARK                            x       y       z     vdW  Elec       q    Type
REMARK                         _______ _______ _______ _____ _____    ______ ____
ROOT
ATOM      1  C   UNL     1       4.320  -0.007   6.018  0.00  0.00    +0.163 C 
ENDROOT
BRANCH   1   4
ATOM      2  C   UNL     1       2.537  -1.055   4.729  0.00  0.00    +0.214 C 
ATOM      3  O   UNL     1       1.746  -0.668   5.564  0.00  0.00    -0.276 OA
ATOM      4  N   UNL     1       3.849  -0.776   4.863  0.00  0.00    -0.304 N 
ATOM      5  H   UNL     1       4.481  -1.085   4.196  0.00  0.00    +0.149 HD
BRANCH   2   6
ATOM      6  C   UNL     1       2.052  -1.846   3.542  0.00  0.00    +0.111 C 
BRANCH   6  17
ATOM      7  C   UNL     1      -0.018   1.503   0.010  0.00  0.00    +0.051 C 
ATOM      8  C   UNL     1       0.002  -0.004   0.002  0.00  0.00    +0.034 A 
ATOM      9  C   UNL     1       0.006  -0.688  -1.202  0.00  0.00    +0.126 A 
ATOM     10  C   UNL     1       0.024  -2.076  -1.207  0.00  0.00    +0.046 A 
ATOM     11  C   UNL     1       0.035  -2.768  -0.013  0.00  0.00    +0.011 A 
ATOM     12  C   UNL     1       0.029  -2.088   1.195  0.00  0.00    -0.001 A 
ATOM     13  C   UNL     1       0.023  -0.704   1.203  0.00  0.00    +0.141 A 
ATOM     14  O   UNL     1       0.043   0.007   2.363  0.00  0.00    -0.425 OA
ATOM     15  C   UNL     1      -0.146  -0.671   3.513  0.00  0.00    +0.317 C 
ATOM     16  O   UNL     1      -0.826  -0.225   4.407  0.00  0.00    -0.250 OA
ATOM     17  C   UNL     1       0.534  -2.020   3.631  0.00  0.00    +0.114 C 
ATOM     18  C   UNL     1       0.029  -2.891   2.471  0.00  0.00    +0.034 C 
ATOM     19  C   UNL     1       0.959  -4.096   2.313  0.00  0.00    +0.013 C 
BRANCH   9  20
ATOM     20  O   UNL     1      -0.009  -0.003  -2.376  0.00  0.00    -0.495 OA
ATOM     21  C   UNL     1      -0.004  -0.775  -3.578  0.00  0.00    +0.277 C 
ENDBRANCH   9  20
ENDBRANCH   6  17
ENDBRANCH   2   6
ENDBRANCH   1   4
BRANCH   1  22
ATOM     22  C   UNL     1       4.185   1.466   5.729  0.00  0.00    +0.234 C 
ATOM     23  O   UNL     1       3.739   1.836   4.663  0.00  0.00    -0.274 OA
ATOM     24  N   UNL     1       4.560   2.371   6.654  0.00  0.00    -0.313 N 
ATOM     25  H   UNL     1       4.917   2.075   7.506  0.00  0.00    +0.149 HD
BRANCH  24  26
ATOM     26  C   UNL     1       4.428   3.803   6.373  0.00  0.00    +0.115 C 
BRANCH  26  27
ATOM     27  C   UNL     1       4.921   4.607   7.578  0.00  0.00    +0.144 C 
BRANCH  27  28
ATOM     28  C   UNL     1       4.786   6.080   7.289  0.00  0.00    +0.357 C 
ATOM     29  O   UNL     1       4.337   6.452   6.218  0.00  0.00    -0.246 OA
ATOM     30  O   UNL     1       5.125   6.899   8.126  0.00  0.00    -0.246 OA
ENDBRANCH  27  28
ENDBRANCH  26  27
ENDBRANCH  24  26
ENDBRANCH   1  22
BRANCH   1  31
ATOM     31  C   UNL     1       5.788  -0.341   6.288  0.00  0.00    +0.065 C 
BRANCH  31  32
ATOM     32  C   UNL     1       5.907  -1.787   6.697  0.00  0.00    -0.039 C 
ATOM     33  C   UNL     1       6.196  -2.837   5.896  0.00  0.00    -0.001 A 
ATOM     34  C   UNL     1       6.474  -2.945   4.458  0.00  0.00    +0.010 A 
ATOM     35  C   UNL     1       6.735  -4.162   3.930  0.00  0.00    +0.001 A 
ATOM     36  C   UNL     1       6.745  -5.321   4.718  0.00  0.00    +0.002 A 
ATOM     37  C   UNL     1       6.500  -5.302   6.045  0.00  0.00    +0.026 A 
ATOM     38  C   UNL     1       6.214  -4.076   6.706  0.00  0.00    +0.043 A 
ATOM     39  N   UNL     1       5.947  -3.801   7.960  0.00  0.00    -0.380 N 
ATOM     40  C   UNL     1       5.735  -2.355   8.088  0.00  0.00    +0.144 C 
ATOM     41  H   UNL     1       5.901  -4.446   8.683  0.00  0.00    +0.160 HD
ENDBRANCH  31  32
ENDBRANCH   1  31
TORSDOF 10
