REMARK  Name = ZINC20883784
REMARK  11 active torsions:
REMARK  status: ('A' for Active; 'I' for Inactive)
REMARK    1  A    between atoms: C_1  and  C_2
REMARK    2  A    between atoms: C_2  and  C_3
REMARK    3  A    between atoms: C_2  and  O_4
REMARK    4  A    between atoms: O_4  and  C_5
REMARK    5  A    between atoms: C_6  and  C_13
REMARK    6  A    between atoms: C_10  and  O_11
REMARK    7  A    between atoms: O_11  and  C_12
REMARK    8  A    between atoms: C_18  and  C_23
REMARK    9  A    between atoms: C_26  and  N_29
REMARK   10  A    between atoms: N_29  and  C_30
REMARK   11  A    between atoms: N_29  and  C_31
REMARK                            x       y       z     vdW  Elec       q    Type
REMARK                         _______ _______ _______ _____ _____    ______ ____
ROOT
ATOM      1  C   UNL     1       6.405   5.780   0.441  0.00  0.00    +0.140 C 
ATOM      2  C   UNL     1       5.673   4.791   1.316  0.00  0.00    +0.037 C 
ATOM      3  C   UNL     1       4.783   3.874   0.898  0.00  0.00    +0.017 C 
ATOM      4  C   UNL     1       4.115   2.940   1.893  0.00  0.00    +0.059 C 
ATOM      5  C   UNL     1       5.071   2.634   3.044  0.00  0.00    +0.032 C 
ATOM      6  C   UNL     1       5.428   3.963   3.720  0.00  0.00    +0.088 C 
ATOM      7  C   UNL     1       6.010   4.882   2.688  0.00  0.00    +0.163 C 
ATOM      8  O   UNL     1       6.798   5.737   3.042  0.00  0.00    -0.292 OA
ATOM      9  N   UNL     1       4.396   3.705  -0.392  0.00  0.00    -0.316 N 
ATOM     10  C   UNL     1       5.259   3.644  -1.480  0.00  0.00    +0.052 A 
ATOM     11  C   UNL     1       5.405   2.501  -2.246  0.00  0.00    +0.025 A 
ATOM     12  C   UNL     1       6.247   2.524  -3.345  0.00  0.00    +0.002 A 
ATOM     13  C   UNL     1       6.933   3.680  -3.675  0.00  0.00    +0.002 A 
ATOM     14  C   UNL     1       6.801   4.818  -2.898  0.00  0.00    +0.025 A 
ATOM     15  C   UNL     1       5.976   4.791  -1.786  0.00  0.00    +0.049 A 
ATOM     16  N   UNL     1       5.898   5.874  -0.912  0.00  0.00    -0.331 N 
ATOM     17  H   UNL     1       3.328   3.604  -0.637  0.00  0.00    +0.152 HD
ATOM     18  H   UNL     1       5.442   6.811  -1.264  0.00  0.00    +0.147 HD
ENDROOT
BRANCH   1  20
ATOM     19  C   UNL     1       8.822   6.314   0.052  0.00  0.00    +0.168 A 
ATOM     20  C   UNL     1       7.856   5.377   0.380  0.00  0.00    +0.023 A 
ATOM     21  C   UNL     1       8.222   4.070   0.644  0.00  0.00    +0.009 A 
ATOM     22  C   UNL     1       9.552   3.697   0.590  0.00  0.00    +0.004 A 
ATOM     23  C   UNL     1      10.521   4.628   0.269  0.00  0.00    +0.049 A 
ATOM     24  C   UNL     1      10.161   5.940   0.002  0.00  0.00    +0.162 A 
BRANCH  24  25
ATOM     25  O   UNL     1      11.114   6.857  -0.314  0.00  0.00    -0.491 OA
ATOM     26  C   UNL     1      12.467   6.400  -0.353  0.00  0.00    +0.277 C 
ENDBRANCH  24  25
BRANCH  19  27
ATOM     27  O   UNL     1       8.463   7.598  -0.214  0.00  0.00    -0.485 OA
BRANCH  27  29
ATOM     28  C   UNL     1       9.619   9.605   0.476  0.00  0.00    +0.051 C 
ATOM     29  C   UNL     1       8.586   8.541   0.853  0.00  0.00    +0.168 C 
ATOM     30  C   UNL     1       7.232   9.209   1.102  0.00  0.00    +0.051 C 
ENDBRANCH  27  29
ENDBRANCH  19  27
ENDBRANCH   1  20
BRANCH   5  31
ATOM     31  C   UNL     1       4.400   1.720   4.037  0.00  0.00    -0.043 A 
ATOM     32  C   UNL     1       4.946   0.480   4.312  0.00  0.00    +0.006 A 
ATOM     33  C   UNL     1       4.333  -0.360   5.221  0.00  0.00    +0.023 A 
ATOM     34  C   UNL     1       3.163   0.041   5.855  0.00  0.00    +0.029 A 
ATOM     35  C   UNL     1       2.621   1.290   5.581  0.00  0.00    +0.023 A 
ATOM     36  C   UNL     1       3.239   2.124   4.670  0.00  0.00    +0.006 A 
BRANCH  34  37
ATOM     37  N   UNL     1       2.538  -0.808   6.771  0.00  0.00    -0.336 N 
ATOM     38  C   UNL     1       3.115  -2.123   7.064  0.00  0.00    +0.129 C 
ATOM     39  C   UNL     1       1.305  -0.384   7.439  0.00  0.00    +0.129 C 
ENDBRANCH  34  37
ENDBRANCH   5  31
TORSDOF 6
