REMARK  Name = ZINC62587347
REMARK  15 active torsions:
REMARK  status: ('A' for Active; 'I' for Inactive)
REMARK    1  A    between atoms: C_1  and  S_2
REMARK    2  A    between atoms: S_2  and  C_5
REMARK    3  A    between atoms: C_8  and  C_11
REMARK    4  A    between atoms: C_11  and  C_13
REMARK    5  A    between atoms: C_11  and  O_36
REMARK    6  A    between atoms: C_13  and  N_14
REMARK    7  A    between atoms: N_14  and  C_15
REMARK    8  A    between atoms: N_14  and  C_22
REMARK    9  A    between atoms: C_15  and  C_16
REMARK   10  A    between atoms: C_16  and  C_17
REMARK   11  A    between atoms: C_22  and  C_23
REMARK   12  A    between atoms: C_23  and  C_25
REMARK   13  A    between atoms: C_23  and  O_35
REMARK   14  A    between atoms: C_28  and  S_31
REMARK   15  A    between atoms: S_31  and  C_34
REMARK                            x       y       z     vdW  Elec       q    Type
REMARK                         _______ _______ _______ _____ _____    ______ ____
ROOT
ATOM      1  N   UNL     1       3.947  -3.528  -6.481  0.00  0.00    +0.384 N 
ATOM      2  H   UNL     1       3.323  -2.921  -6.991  0.00  0.00    -0.082 HD
ENDROOT
BRANCH   1   3
ATOM      3  C   UNL     1       3.767  -3.315  -5.038  0.00  0.00    -0.042 C 
BRANCH   3   4
ATOM      4  C   UNL     1       3.919  -1.827  -4.719  0.00  0.00    +0.128 C 
BRANCH   4   8
ATOM      5  C   UNL     1       2.869  -1.133  -0.637  0.00  0.00    +0.088 A 
ATOM      6  C   UNL     1       1.927  -0.957  -1.633  0.00  0.00    +0.027 A 
ATOM      7  C   UNL     1       2.266  -1.181  -2.954  0.00  0.00    +0.008 A 
ATOM      8  C   UNL     1       3.549  -1.581  -3.279  0.00  0.00    -0.021 A 
ATOM      9  C   UNL     1       4.492  -1.756  -2.284  0.00  0.00    +0.008 A 
ATOM     10  C   UNL     1       4.154  -1.527  -0.963  0.00  0.00    +0.027 A 
BRANCH   5  12
ATOM     11  C   UNL     1       2.796   0.909   1.329  0.00  0.00    +0.200 C 
ATOM     12  S   UNL     1       2.436  -0.846   1.047  0.00  0.00    -0.006 S 
ATOM     13  O   UNL     1       3.333  -1.656   1.794  0.00  0.00    -0.170 OA
ATOM     14  O   UNL     1       1.035  -1.074   1.104  0.00  0.00    -0.170 OA
ENDBRANCH   5  12
ENDBRANCH   4   8
BRANCH   4  15
ATOM     15  O   UNL     1       5.274  -1.429  -4.937  0.00  0.00    -0.389 OA
ATOM     16  H   UNL     1       5.916  -1.905  -4.392  0.00  0.00    +0.210 HD
ENDBRANCH   4  15
ENDBRANCH   3   4
ENDBRANCH   1   3
BRANCH   1  17
ATOM     17  C   UNL     1       5.336  -3.224  -6.850  0.00  0.00    -0.073 C 
BRANCH  17  18
ATOM     18  C   UNL     1       6.287  -4.040  -5.973  0.00  0.00    +0.024 C 
BRANCH  18  19
ATOM     19  C   UNL     1       7.712  -3.676  -6.303  0.00  0.00    -0.012 A 
ATOM     20  C   UNL     1       8.496  -2.716  -5.755  0.00  0.00    +0.011 A 
ATOM     21  C   UNL     1       9.788  -2.559  -6.220  0.00  0.00    +0.008 A 
ATOM     22  C   UNL     1      10.233  -3.371  -7.210  0.00  0.00    +0.045 A 
ATOM     23  S   UNL     1       8.807  -4.402  -7.511  0.00  0.00    -0.102 S 
ENDBRANCH  18  19
ENDBRANCH  17  18
ENDBRANCH   1  17
BRANCH   1  24
ATOM     24  C   UNL     1       3.647  -4.928  -6.810  0.00  0.00    -0.042 C 
BRANCH  24  25
ATOM     25  C   UNL     1       3.689  -5.114  -8.328  0.00  0.00    +0.128 C 
BRANCH  25  26
ATOM     26  C   UNL     1       3.430  -6.560  -8.664  0.00  0.00    -0.021 A 
ATOM     27  C   UNL     1       2.131  -7.020  -8.782  0.00  0.00    +0.008 A 
ATOM     28  C   UNL     1       1.893  -8.347  -9.090  0.00  0.00    +0.027 A 
ATOM     29  C   UNL     1       2.954  -9.213  -9.280  0.00  0.00    +0.088 A 
ATOM     30  C   UNL     1       4.252  -8.753  -9.164  0.00  0.00    +0.027 A 
ATOM     31  C   UNL     1       4.490  -7.425  -8.860  0.00  0.00    +0.008 A 
BRANCH  29  32
ATOM     32  S   UNL     1       2.650 -10.904  -9.672  0.00  0.00    -0.006 S 
ATOM     33  O   UNL     1       3.799 -11.596  -9.203  0.00  0.00    -0.170 OA
ATOM     34  O   UNL     1       1.367 -11.178  -9.127  0.00  0.00    -0.170 OA
ATOM     35  C   UNL     1       2.584 -10.958 -11.484  0.00  0.00    +0.200 C 
ENDBRANCH  29  32
ENDBRANCH  25  26
BRANCH  25  36
ATOM     36  O   UNL     1       2.687  -4.297  -8.936  0.00  0.00    -0.389 OA
ATOM     37  H   UNL     1       1.786  -4.499  -8.649  0.00  0.00    +0.210 HD
ENDBRANCH  25  36
ENDBRANCH  24  25
ENDBRANCH   1  24
TORSDOF 13
