REMARK  Name = ZINC39656331
REMARK  7 active torsions:
REMARK  status: ('A' for Active; 'I' for Inactive)
REMARK    1  A    between atoms: C_1  and  C_2
REMARK    2  A    between atoms: C_2  and  S_3
REMARK    3  A    between atoms: S_3  and  C_4
REMARK    4  A    between atoms: C_4  and  C_5
REMARK    5  A    between atoms: C_5  and  N_6
REMARK    6  A    between atoms: C_7  and  C_9
REMARK    7  A    between atoms: C_20  and  C_22
REMARK                            x       y       z     vdW  Elec       q    Type
REMARK                         _______ _______ _______ _____ _____    ______ ____
ROOT
ATOM      1  C   UNL     1       2.159  -6.592  -3.200  0.00  0.00    +0.100 C 
ATOM      2  C   UNL     1       3.007  -7.172  -2.045  0.00  0.00    +0.121 C 
ATOM      3  N   UNL     1       3.517  -8.462  -2.566  0.00  0.00    -0.296 N 
ATOM      4  C   UNL     1       3.848  -8.183  -3.984  0.00  0.00    +0.115 C 
ATOM      5  C   UNL     1       2.714  -7.258  -4.470  0.00  0.00    -0.004 C 
ATOM      6  C   UNL     1       1.625  -8.075  -5.158  0.00  0.00    -0.010 C 
ATOM      7  C   UNL     1       2.185  -8.680  -6.448  0.00  0.00    -0.082 C 
ATOM      8  N   UNL     1       2.651  -7.606  -7.333  0.00  0.00    +0.379 N 
ATOM      9  C   UNL     1       3.761  -6.883  -6.702  0.00  0.00    -0.082 C 
ATOM     10  C   UNL     1       3.268  -6.202  -5.422  0.00  0.00    -0.010 C 
ATOM     11  C   UNL     1       3.649  -9.627  -1.901  0.00  0.00    +0.247 C 
ATOM     12  O   UNL     1       4.168 -10.582  -2.445  0.00  0.00    -0.270 OA
ATOM     13  H   UNL     1       2.963  -8.002  -8.206  0.00  0.00    -0.086 HD
ATOM     14  H   UNL     1       1.892  -6.965  -7.510  0.00  0.00    -0.086 HD
ENDROOT
BRANCH  11  15
ATOM     15  C   UNL     1       3.163  -9.743  -0.511  0.00  0.00    +0.045 A 
ATOM     16  C   UNL     1       3.527  -8.786   0.443  0.00  0.00    +0.014 A 
ATOM     17  C   UNL     1       3.075  -8.891   1.740  0.00  0.00    +0.001 A 
ATOM     18  C   UNL     1       2.255  -9.945   2.115  0.00  0.00    +0.012 A 
ATOM     19  C   UNL     1       1.883 -10.907   1.183  0.00  0.00    +0.031 A 
ATOM     20  C   UNL     1       2.331 -10.808  -0.143  0.00  0.00    +0.006 A 
ATOM     21  C   UNL     1       1.782 -11.950  -0.917  0.00  0.00    -0.006 A 
ATOM     22  C   UNL     1       1.922 -12.319  -2.249  0.00  0.00    +0.009 A 
ATOM     23  C   UNL     1       1.288 -13.457  -2.723  0.00  0.00    +0.001 A 
ATOM     24  C   UNL     1       0.514 -14.230  -1.879  0.00  0.00    +0.001 A 
ATOM     25  C   UNL     1       0.365 -13.875  -0.548  0.00  0.00    +0.012 A 
ATOM     26  C   UNL     1       0.996 -12.738  -0.060  0.00  0.00    +0.030 A 
ATOM     27  C   UNL     1       1.037 -12.120   1.287  0.00  0.00    +0.194 C 
ATOM     28  O   UNL     1       0.473 -12.523   2.284  0.00  0.00    -0.287 OA
ENDBRANCH  11  15
BRANCH   1  30
ATOM     29  N   UNL     1       1.386  -4.342  -3.875  0.00  0.00    -0.314 N 
ATOM     30  C   UNL     1       2.327  -5.096  -3.275  0.00  0.00    +0.218 C 
ATOM     31  O   UNL     1       3.310  -4.572  -2.794  0.00  0.00    -0.275 OA
ATOM     32  H   UNL     1       0.600  -4.761  -4.260  0.00  0.00    +0.149 HD
BRANCH  29  33
ATOM     33  C   UNL     1       1.549  -2.888  -3.948  0.00  0.00    +0.115 C 
BRANCH  33  34
ATOM     34  C   UNL     1       0.350  -2.275  -4.675  0.00  0.00    +0.088 C 
BRANCH  34  35
ATOM     35  S   UNL     1       0.552  -0.475  -4.765  0.00  0.00    -0.159 S 
BRANCH  35  37
ATOM     36  C   UNL     1      -0.889   1.612  -5.788  0.00  0.00    +0.015 C 
ATOM     37  C   UNL     1      -0.931   0.090  -5.642  0.00  0.00    +0.066 C 
ENDBRANCH  35  37
ENDBRANCH  34  35
ENDBRANCH  33  34
ENDBRANCH  29  33
ENDBRANCH   1  30
TORSDOF 6
