REMARK  Name = ZINC16459234
REMARK  11 active torsions:
REMARK  status: ('A' for Active; 'I' for Inactive)
REMARK    1  A    between atoms: C_1  and  C_2
REMARK    2  A    between atoms: C_5  and  N_9
REMARK    3  A    between atoms: C_7  and  C_8
REMARK    4  A    between atoms: C_10  and  C_12
REMARK    5  A    between atoms: C_15  and  C_17
REMARK    6  A    between atoms: C_17  and  N_18
REMARK    7  A    between atoms: N_18  and  C_19
REMARK    8  A    between atoms: C_19  and  C_20
REMARK    9  A    between atoms: C_20  and  O_21
REMARK   10  A    between atoms: O_21  and  C_22
REMARK   11  A    between atoms: N_25  and  C_26
REMARK                            x       y       z     vdW  Elec       q    Type
REMARK                         _______ _______ _______ _____ _____    ______ ____
ROOT
ATOM      1  C   UNL     1      -6.157  -2.366  -0.290  0.00  0.00    +0.172 C 
ENDROOT
BRANCH   1   5
ATOM      2  C   UNL     1      -2.453  -2.832  -0.209  0.00  0.00    +0.133 A 
ATOM      3  C   UNL     1      -2.474  -4.199  -0.325  0.00  0.00    +0.080 A 
ATOM      4  S   UNL     1      -4.178  -4.514  -0.399  0.00  0.00    -0.078 S 
ATOM      5  C   UNL     1      -4.739  -2.877  -0.286  0.00  0.00    +0.096 A 
ATOM      6  N   UNL     1      -3.626  -2.196  -0.196  0.00  0.00    -0.238 NA
BRANCH   2   8
ATOM      7  N   UNL     1      -1.192  -0.750  -0.003  0.00  0.00    -0.280 N 
ATOM      8  C   UNL     1      -1.183  -2.093  -0.110  0.00  0.00    +0.267 C 
ATOM      9  O   UNL     1      -0.127  -2.696  -0.124  0.00  0.00    -0.268 OA
ATOM     10  H   UNL     1      -2.034  -0.275   0.077  0.00  0.00    +0.155 HD
BRANCH   7  15
ATOM     11  C   UNL     1       3.696   2.128  -0.013  0.00  0.00    +0.044 C 
ATOM     12  C   UNL     1       2.398   1.363  -0.010  0.00  0.00    -0.047 A 
ATOM     13  C   UNL     1       1.274   1.910  -0.604  0.00  0.00    +0.005 A 
ATOM     14  C   UNL     1       0.083   1.212  -0.603  0.00  0.00    +0.023 A 
ATOM     15  C   UNL     1       0.013  -0.040  -0.005  0.00  0.00    +0.034 A 
ATOM     16  C   UNL     1       1.143  -0.586   0.589  0.00  0.00    +0.027 A 
ATOM     17  C   UNL     1       2.332   0.117   0.585  0.00  0.00    -0.046 A 
ATOM     18  C   UNL     1       3.559  -0.474   1.231  0.00  0.00    +0.044 C 
ENDBRANCH   7  15
ENDBRANCH   2   8
ENDBRANCH   1   5
BRANCH   1  19
ATOM     19  N   UNL     1      -6.572  -2.090  -1.668  0.00  0.00    -0.277 N 
ATOM     20  C   UNL     1      -6.368  -0.870  -2.202  0.00  0.00    +0.307 C 
ATOM     21  O   UNL     1      -5.840   0.003  -1.540  0.00  0.00    -0.252 OA
ATOM     22  N   UNL     1      -6.750  -0.616  -3.470  0.00  0.00    -0.269 N 
ATOM     23  H   UNL     1      -7.232  -1.290  -3.975  0.00  0.00    +0.156 HD
BRANCH  22  24
ATOM     24  C   UNL     1      -6.452   0.619  -4.057  0.00  0.00    +0.036 A 
ATOM     25  C   UNL     1      -6.465   1.776  -3.288  0.00  0.00    +0.025 A 
ATOM     26  C   UNL     1      -6.166   2.993  -3.869  0.00  0.00    +0.023 A 
ATOM     27  C   UNL     1      -5.863   3.062  -5.217  0.00  0.00    +0.059 A 
ATOM     28  C   UNL     1      -5.855   1.911  -5.987  0.00  0.00    +0.061 A 
ATOM     29  C   UNL     1      -6.148   0.690  -5.410  0.00  0.00    +0.044 A 
ATOM     30 CL   UNL     1      -5.474   2.002  -7.678  0.00  0.00    -0.082 Cl
ATOM     31 CL   UNL     1      -5.493   4.594  -5.944  0.00  0.00    -0.082 Cl
ENDBRANCH  22  24
BRANCH  19  32
ATOM     32  C   UNL     1      -7.208  -3.142  -2.466  0.00  0.00    +0.138 C 
BRANCH  32  33
ATOM     33  C   UNL     1      -8.724  -3.085  -2.268  0.00  0.00    +0.178 C 
BRANCH  33  34
ATOM     34  O   UNL     1      -9.227  -1.855  -2.794  0.00  0.00    -0.381 OA
ATOM     35  C   UNL     1     -10.641  -1.700  -2.660  0.00  0.00    +0.194 C 
ENDBRANCH  33  34
ENDBRANCH  32  33
ENDBRANCH  19  32
ENDBRANCH   1  19
TORSDOF 8
