REMARK  Name = ZINC21222815
REMARK  9 active torsions:
REMARK  status: ('A' for Active; 'I' for Inactive)
REMARK    1  A    between atoms: C_1  and  C_2
REMARK    2  A    between atoms: C_2  and  O_3
REMARK    3  A    between atoms: O_3  and  C_4
REMARK    4  A    between atoms: C_7  and  C_12
REMARK    5  A    between atoms: C_9  and  O_10
REMARK    6  A    between atoms: O_10  and  C_11
REMARK    7  A    between atoms: C_17  and  C_22
REMARK    8  A    between atoms: C_27  and  O_28
REMARK    9  A    between atoms: O_28  and  C_29
REMARK                            x       y       z     vdW  Elec       q    Type
REMARK                         _______ _______ _______ _____ _____    ______ ____
ROOT
ATOM      1  C   UNL     1      -1.476  -5.872   2.592  0.00  0.00    +0.136 C 
ATOM      2  C   UNL     1      -0.939  -4.945   1.526  0.00  0.00    +0.036 C 
ATOM      3  C   UNL     1       0.298  -4.426   1.483  0.00  0.00    +0.017 C 
ATOM      4  C   UNL     1       0.713  -3.527   0.328  0.00  0.00    +0.060 C 
ATOM      5  C   UNL     1      -0.487  -2.711  -0.149  0.00  0.00    +0.035 C 
ATOM      6  C   UNL     1      -1.568  -3.695  -0.611  0.00  0.00    +0.088 C 
ATOM      7  C   UNL     1      -1.883  -4.627   0.520  0.00  0.00    +0.163 C 
ATOM      8  O   UNL     1      -2.989  -5.127   0.576  0.00  0.00    -0.292 OA
ATOM      9  N   UNL     1       1.266  -4.632   2.412  0.00  0.00    -0.316 N 
ATOM     10  C   UNL     1       1.611  -5.874   2.935  0.00  0.00    +0.052 A 
ATOM     11  C   UNL     1       2.869  -6.424   2.766  0.00  0.00    +0.025 A 
ATOM     12  C   UNL     1       3.171  -7.629   3.380  0.00  0.00    +0.002 A 
ATOM     13  C   UNL     1       2.221  -8.273   4.152  0.00  0.00    +0.002 A 
ATOM     14  C   UNL     1       0.956  -7.734   4.303  0.00  0.00    +0.025 A 
ATOM     15  C   UNL     1       0.645  -6.537   3.675  0.00  0.00    +0.049 A 
ATOM     16  N   UNL     1      -0.630  -5.985   3.762  0.00  0.00    -0.331 N 
ATOM     17  H   UNL     1       1.842  -3.781   2.805  0.00  0.00    +0.152 HD
ATOM     18  H   UNL     1      -0.993  -5.633   4.739  0.00  0.00    +0.147 HD
ENDROOT
BRANCH   1  22
ATOM     19  C   UNL     1      -1.950  -9.766   0.890  0.00  0.00    +0.162 A 
ATOM     20  C   UNL     1      -0.691  -9.196   0.983  0.00  0.00    +0.050 A 
ATOM     21  C   UNL     1      -0.540  -7.937   1.534  0.00  0.00    +0.009 A 
ATOM     22  C   UNL     1      -1.645  -7.244   1.992  0.00  0.00    -0.019 A 
ATOM     23  C   UNL     1      -2.904  -7.808   1.907  0.00  0.00    +0.055 A 
ATOM     24  C   UNL     1      -3.062  -9.068   1.351  0.00  0.00    +0.162 A 
BRANCH  24  25
ATOM     25  O   UNL     1      -4.301  -9.623   1.262  0.00  0.00    -0.491 OA
ATOM     26  C   UNL     1      -5.396  -8.849   1.756  0.00  0.00    +0.277 C 
ENDBRANCH  24  25
BRANCH  19  27
ATOM     27  O   UNL     1      -2.100 -11.005   0.348  0.00  0.00    -0.489 OA
BRANCH  27  29
ATOM     28  C   UNL     1      -1.279 -13.033  -0.677  0.00  0.00    +0.048 C 
ATOM     29  C   UNL     1      -0.915 -11.662  -0.104  0.00  0.00    +0.226 C 
ENDBRANCH  27  29
ENDBRANCH  19  27
ENDBRANCH   1  22
BRANCH   5  30
ATOM     30  C   UNL     1      -0.078  -1.825  -1.298  0.00  0.00    -0.002 A 
ATOM     31  C   UNL     1       0.422  -2.385  -2.458  0.00  0.00    +0.007 A 
ATOM     32  C   UNL     1       0.798  -1.574  -3.513  0.00  0.00    +0.001 A 
ATOM     33  C   UNL     1       0.675  -0.200  -3.409  0.00  0.00    +0.004 A 
ATOM     34  C   UNL     1       0.172   0.364  -2.253  0.00  0.00    +0.046 A 
ATOM     35  C   UNL     1      -0.201  -0.448  -1.192  0.00  0.00    +0.124 A 
BRANCH  35  36
ATOM     36  O   UNL     1      -0.692   0.105  -0.051  0.00  0.00    -0.495 OA
ATOM     37  C   UNL     1      -0.791   1.530  -0.012  0.00  0.00    +0.277 C 
ENDBRANCH  35  36
ENDBRANCH   5  30
TORSDOF 6
