REMARK  Name = ZINC39672844
REMARK  8 active torsions:
REMARK  status: ('A' for Active; 'I' for Inactive)
REMARK    1  A    between atoms: C_1  and  C_2
REMARK    2  A    between atoms: C_2  and  C_3
REMARK    3  A    between atoms: C_3  and  C_5
REMARK    4  A    between atoms: C_3  and  C_6
REMARK    5  A    between atoms: C_10  and  C_19
REMARK    6  A    between atoms: N_21  and  C_22
REMARK    7  A    between atoms: C_22  and  C_23
REMARK    8  A    between atoms: C_23  and  N_29
REMARK                            x       y       z     vdW  Elec       q    Type
REMARK                         _______ _______ _______ _____ _____    ______ ____
ROOT
ATOM      1  C   UNL     1       0.913  -3.395  -0.821  0.00  0.00    +0.218 C 
ATOM      2  O   UNL     1       0.480  -4.194  -0.017  0.00  0.00    -0.275 OA
ATOM      3  N   UNL     1       1.526  -3.830  -1.940  0.00  0.00    -0.300 N 
ATOM      4  C   UNL     1       2.210  -3.018  -2.974  0.00  0.00    +0.121 C 
ATOM      5  C   UNL     1       3.456  -3.847  -3.358  0.00  0.00    +0.100 C 
ATOM      6  C   UNL     1       3.093  -5.296  -2.990  0.00  0.00    -0.004 C 
ATOM      7  C   UNL     1       1.673  -5.228  -2.411  0.00  0.00    +0.115 C 
ATOM      8  C   UNL     1       3.115  -6.178  -4.235  0.00  0.00    -0.010 C 
ATOM      9  C   UNL     1       2.808  -7.624  -3.834  0.00  0.00    -0.082 C 
ATOM     10  N   UNL     1       3.806  -8.088  -2.863  0.00  0.00    +0.379 N 
ATOM     11  C   UNL     1       3.715  -7.292  -1.633  0.00  0.00    -0.082 C 
ATOM     12  C   UNL     1       4.061  -5.832  -1.940  0.00  0.00    -0.010 C 
ATOM     13  H   UNL     1       3.638  -9.059  -2.647  0.00  0.00    -0.086 HD
ATOM     14  H   UNL     1       4.729  -7.989  -3.258  0.00  0.00    -0.086 HD
ENDROOT
BRANCH   5  15
ATOM     15  C   UNL     1       3.728  -3.731  -4.836  0.00  0.00    +0.218 C 
ATOM     16  O   UNL     1       2.809  -3.570  -5.611  0.00  0.00    -0.275 OA
ATOM     17  N   UNL     1       4.992  -3.807  -5.297  0.00  0.00    -0.313 N 
ATOM     18  H   UNL     1       5.727  -3.936  -4.677  0.00  0.00    +0.149 HD
BRANCH  17  19
ATOM     19  C   UNL     1       5.256  -3.694  -6.733  0.00  0.00    +0.126 C 
BRANCH  19  20
ATOM     20  C   UNL     1       6.744  -3.934  -6.999  0.00  0.00    +0.038 C 
ATOM     21  C   UNL     1       7.045  -3.687  -8.478  0.00  0.00    +0.024 C 
ATOM     22  C   UNL     1       6.212  -4.643  -9.335  0.00  0.00    +0.002 C 
ATOM     23  C   UNL     1       6.567  -6.087  -8.978  0.00  0.00    +0.000 C 
ATOM     24  C   UNL     1       6.266  -6.335  -7.498  0.00  0.00    +0.002 C 
ATOM     25  C   UNL     1       7.098  -5.379  -6.641  0.00  0.00    +0.024 C 
BRANCH  20  26
ATOM     26  N   UNL     1       7.543  -3.017  -6.176  0.00  0.00    -0.291 NA
ATOM     27  C   UNL     1       7.209  -1.616  -6.473  0.00  0.00    +0.113 C 
ATOM     28  C   UNL     1       8.019  -0.698  -5.554  0.00  0.00    +0.175 C 
ATOM     29  O   UNL     1       9.412  -0.970  -5.725  0.00  0.00    -0.377 OA
ATOM     30  C   UNL     1       9.773  -2.325  -5.443  0.00  0.00    +0.175 C 
ATOM     31  C   UNL     1       8.981  -3.260  -6.361  0.00  0.00    +0.113 C 
ENDBRANCH  20  26
ENDBRANCH  19  20
ENDBRANCH  17  19
ENDBRANCH   5  15
BRANCH   1  32
ATOM     32  C   UNL     1       0.765  -1.917  -0.568  0.00  0.00    +0.072 C 
ATOM     33  C   UNL     1       1.989  -1.405   0.196  0.00  0.00    +0.017 C 
BRANCH  32  35
ATOM     34  C   UNL     1      -0.713  -0.158   0.412  0.00  0.00    +0.004 C 
ATOM     35  C   UNL     1      -0.495  -1.664   0.261  0.00  0.00    +0.009 C 
ENDBRANCH  32  35
ENDBRANCH   1  32
TORSDOF 6
