REMARK  Name = ZINC39711241
REMARK  10 active torsions:
REMARK  status: ('A' for Active; 'I' for Inactive)
REMARK    1  A    between atoms: C_1  and  C_2
REMARK    2  A    between atoms: C_6  and  C_15
REMARK    3  A    between atoms: C_13  and  C_14
REMARK    4  A    between atoms: C_15  and  C_17
REMARK    5  A    between atoms: C_15  and  N_29
REMARK    6  A    between atoms: N_22  and  C_23
REMARK    7  A    between atoms: N_29  and  C_30
REMARK    8  A    between atoms: N_29  and  C_37
REMARK    9  A    between atoms: C_30  and  C_31
REMARK   10  A    between atoms: C_37  and  C_38
REMARK                            x       y       z     vdW  Elec       q    Type
REMARK                         _______ _______ _______ _____ _____    ______ ____
ROOT
ATOM      1  C   UNL     1       0.884  -5.050  -2.378  0.00  0.00    -0.009 C 
ENDROOT
BRANCH   1   7
ATOM      2  C   UNL     1       0.092   0.982   1.363  0.00  0.00    +0.044 C 
ATOM      3  C   UNL     1      -0.074  -0.500   1.149  0.00  0.00    -0.047 A 
ATOM      4  C   UNL     1      -0.040  -0.997  -0.115  0.00  0.00    +0.013 A 
ATOM      5  C   UNL     1      -0.201  -2.438  -0.310  0.00  0.00    -0.007 A 
ATOM      6  C   UNL     1      -0.174  -2.982  -1.560  0.00  0.00    -0.006 C 
ATOM      7  C   UNL     1      -0.349  -4.484  -1.669  0.00  0.00    +0.088 C 
ATOM      8  C   UNL     1      -0.539  -5.257  -0.383  0.00  0.00    +0.223 C 
ATOM      9  O   UNL     1      -0.683  -6.464  -0.412  0.00  0.00    -0.275 OA
ATOM     10  N   UNL     1      -0.547  -4.614   0.773  0.00  0.00    -0.285 N 
ATOM     11  C   UNL     1      -0.394  -3.294   0.873  0.00  0.00    +0.041 A 
ATOM     12  C   UNL     1      -0.414  -2.678   2.138  0.00  0.00    +0.027 A 
ATOM     13  C   UNL     1      -0.253  -1.334   2.253  0.00  0.00    -0.046 A 
ATOM     14  C   UNL     1      -0.274  -0.718   3.628  0.00  0.00    +0.044 C 
ATOM     15  H   UNL     1      -0.671  -5.128   1.586  0.00  0.00    +0.155 HD
ENDBRANCH   1   7
BRANCH   1  16
ATOM     16  C   UNL     1       1.001  -4.429  -3.771  0.00  0.00    +0.205 C 
ATOM     17  N   UNL     1       2.195  -4.936  -4.460  0.00  0.00    -0.152 NA
ATOM     18  N   UNL     1       2.946  -3.990  -4.706  0.00  0.00    -0.070 NA
ATOM     19  N   UNL     1       2.440  -2.768  -4.265  0.00  0.00    -0.179 N 
ATOM     20  N   UNL     1       1.219  -2.971  -3.670  0.00  0.00    -0.185 NA
ATOM     21  H   UNL     1       2.880  -1.909  -4.364  0.00  0.00    +0.191 HD
BRANCH  20  22
ATOM     22  C   UNL     1       0.161  -2.230  -4.368  0.00  0.00    +0.080 C 
ATOM     23  C   UNL     1       0.421  -0.728  -4.241  0.00  0.00    +0.021 C 
ATOM     24  C   UNL     1      -0.682   0.044  -4.969  0.00  0.00    +0.002 C 
ATOM     25  C   UNL     1      -0.690  -0.349  -6.447  0.00  0.00    +0.000 C 
ATOM     26  C   UNL     1      -0.950  -1.851  -6.574  0.00  0.00    +0.002 C 
ATOM     27  C   UNL     1       0.153  -2.623  -5.847  0.00  0.00    +0.021 C 
ENDBRANCH  20  22
ENDBRANCH   1  16
BRANCH   1  28
ATOM     28  N   UNL     1       0.752  -6.508  -2.500  0.00  0.00    +0.392 N 
ATOM     29  H   UNL     1       0.370  -6.884  -1.645  0.00  0.00    -0.080 HD
BRANCH  28  30
ATOM     30  C   UNL     1      -0.146  -6.826  -3.619  0.00  0.00    -0.042 C 
BRANCH  30  31
ATOM     31  C   UNL     1      -1.550  -6.399  -3.273  0.00  0.00    -0.064 A 
ATOM     32  C   UNL     1      -2.268  -7.094  -2.319  0.00  0.00    +0.002 A 
ATOM     33  C   UNL     1      -3.556  -6.702  -2.002  0.00  0.00    +0.000 A 
ATOM     34  C   UNL     1      -4.124  -5.615  -2.639  0.00  0.00    +0.000 A 
ATOM     35  C   UNL     1      -3.405  -4.919  -3.593  0.00  0.00    +0.000 A 
ATOM     36  C   UNL     1      -2.116  -5.308  -3.907  0.00  0.00    +0.002 A 
ENDBRANCH  30  31
ENDBRANCH  28  30
BRANCH  28  37
ATOM     37  C   UNL     1       2.073  -7.100  -2.750  0.00  0.00    -0.002 C 
BRANCH  37  38
ATOM     38  C   UNL     1       2.960  -6.871  -1.553  0.00  0.00    +0.089 A 
ATOM     39  C   UNL     1       3.146  -7.731  -0.536  0.00  0.00    +0.042 A 
ATOM     40  C   UNL     1       4.050  -7.115   0.361  0.00  0.00    +0.041 A 
ATOM     41  C   UNL     1       4.361  -5.916  -0.162  0.00  0.00    +0.195 A 
ATOM     42  O   UNL     1       3.703  -5.776  -1.324  0.00  0.00    -0.470 OA
ENDBRANCH  37  38
ENDBRANCH  28  37
ENDBRANCH   1  28
TORSDOF 8
