REMARK  Name = ZINC03338265
REMARK  5 active torsions:
REMARK  status: ('A' for Active; 'I' for Inactive)
REMARK    1  A    between atoms: C_5  and  C_6
REMARK    2  A    between atoms: C_7  and  C_8
REMARK    3  A    between atoms: C_7  and  C_19
REMARK    4  A    between atoms: N_10  and  C_11
REMARK    5  A    between atoms: N_21  and  C_22
REMARK                            x       y       z     vdW  Elec       q    Type
REMARK                         _______ _______ _______ _____ _____    ______ ____
ROOT
ATOM      1  C   UNL     1      -2.468   4.242  -0.580  0.00  0.00    +0.026 C 
ATOM      2  C   UNL     1      -1.549   5.275  -0.550  0.00  0.00    +0.099 C 
ENDROOT
BRANCH   1   7
ATOM      3  C   UNL     1      -2.993   2.001   0.388  0.00  0.00    +0.015 A 
ATOM      4  C   UNL     1      -2.518   0.781   0.697  0.00  0.00    +0.046 A 
ATOM      5  S   UNL     1      -0.821   0.854   0.163  0.00  0.00    -0.104 S 
ATOM      6  C   UNL     1      -0.778   2.476  -0.442  0.00  0.00    +0.053 A 
ATOM      7  C   UNL     1      -2.071   2.931  -0.221  0.00  0.00    -0.017 A 
ENDBRANCH   1   7
BRANCH   2   8
ATOM      8  C   UNL     1      -1.915   6.598  -1.073  0.00  0.00    +0.253 C 
ATOM      9  O   UNL     1      -3.053   6.812  -1.446  0.00  0.00    -0.270 OA
ATOM     10  N   UNL     1      -0.989   7.576  -1.139  0.00  0.00    -0.281 N 
ATOM     11  H   UNL     1      -0.060   7.378  -0.941  0.00  0.00    +0.155 HD
BRANCH  10  12
ATOM     12  C   UNL     1      -1.368   8.874  -1.493  0.00  0.00    +0.036 A 
ATOM     13  C   UNL     1      -2.626   9.351  -1.146  0.00  0.00    +0.043 A 
ATOM     14  C   UNL     1      -2.996  10.637  -1.492  0.00  0.00    +0.044 A 
ATOM     15  C   UNL     1      -2.119  11.446  -2.194  0.00  0.00    +0.040 A 
ATOM     16  C   UNL     1      -0.868  10.971  -2.546  0.00  0.00    +0.044 A 
ATOM     17  C   UNL     1      -0.490   9.688  -2.198  0.00  0.00    +0.043 A 
ATOM     18 CL   UNL     1       0.230  11.989  -3.426  0.00  0.00    -0.083 Cl
ATOM     19 CL   UNL     1      -4.565  11.236  -1.053  0.00  0.00    -0.083 Cl
ENDBRANCH  10  12
ENDBRANCH   2   8
BRANCH   2  20
ATOM     20  C   UNL     1      -0.208   5.050   0.004  0.00  0.00    +0.253 C 
ATOM     21  O   UNL     1       0.757   5.007  -0.736  0.00  0.00    -0.270 OA
ATOM     22  N   UNL     1      -0.046   4.890   1.333  0.00  0.00    -0.281 N 
ATOM     23  H   UNL     1      -0.822   4.810   1.909  0.00  0.00    +0.155 HD
BRANCH  22  24
ATOM     24  C   UNL     1       1.240   4.839   1.879  0.00  0.00    +0.036 A 
ATOM     25  C   UNL     1       2.272   5.566   1.298  0.00  0.00    +0.043 A 
ATOM     26  C   UNL     1       3.541   5.518   1.844  0.00  0.00    +0.044 A 
ATOM     27  C   UNL     1       3.786   4.739   2.961  0.00  0.00    +0.040 A 
ATOM     28  C   UNL     1       2.761   4.010   3.538  0.00  0.00    +0.044 A 
ATOM     29  C   UNL     1       1.489   4.058   3.000  0.00  0.00    +0.043 A 
ATOM     30 CL   UNL     1       3.074   3.034   4.940  0.00  0.00    -0.083 Cl
ATOM     31 CL   UNL     1       4.830   6.430   1.122  0.00  0.00    -0.083 Cl
ENDBRANCH  22  24
ENDBRANCH   2  20
TORSDOF 5
