REMARK  Name = ZINC33704770
REMARK  8 active torsions:
REMARK  status: ('A' for Active; 'I' for Inactive)
REMARK    1  A    between atoms: C_1  and  C_2
REMARK    2  A    between atoms: C_2  and  C_34
REMARK    3  A    between atoms: C_9  and  C_21
REMARK    4  A    between atoms: C_17  and  C_19
REMARK    5  A    between atoms: C_17  and  C_20
REMARK    6  A    between atoms: N_23  and  C_24
REMARK    7  A    between atoms: C_27  and  S_30
REMARK    8  A    between atoms: S_30  and  N_33
REMARK                            x       y       z     vdW  Elec       q    Type
REMARK                         _______ _______ _______ _____ _____    ______ ____
ROOT
ATOM      1  C   UNL     1      -0.310   1.468   0.400  0.00  0.00    +0.074 C 
ATOM      2  C   UNL     1      -0.248  -0.059   0.369  0.00  0.00    +0.166 C 
ATOM      3  O   UNL     1       0.264  -0.500  -0.905  0.00  0.00    -0.341 OA
ATOM      4  C   UNL     1       0.835  -1.786  -0.597  0.00  0.00    +0.187 C 
ATOM      5  C   UNL     1       1.491  -1.557   0.780  0.00  0.00    +0.191 C 
ATOM      6  O   UNL     1       0.637  -0.550   1.385  0.00  0.00    -0.340 OA
ATOM      7  C   UNL     1       2.913  -1.032   0.747  0.00  0.00    +0.238 C 
ATOM      8  O   UNL     1       3.686  -1.358  -0.403  0.00  0.00    -0.333 OA
ATOM      9  C   UNL     1       2.997  -1.177  -1.623  0.00  0.00    +0.286 C 
ATOM     10  C   UNL     1       1.852  -2.226  -1.609  0.00  0.00    +0.209 C 
ATOM     11  O   UNL     1       1.459  -2.272  -2.974  0.00  0.00    -0.338 OA
ATOM     12  C   UNL     1       2.634  -1.918  -3.736  0.00  0.00    +0.168 C 
ATOM     13  O   UNL     1       3.691  -1.557  -2.815  0.00  0.00    -0.318 OA
ATOM     14  C   UNL     1       2.317  -0.733  -4.652  0.00  0.00    +0.074 C 
ATOM     15  C   UNL     1       3.077  -3.114  -4.584  0.00  0.00    +0.074 C 
ATOM     16  C   UNL     1      -1.653  -0.629   0.581  0.00  0.00    +0.074 C 
ENDROOT
BRANCH   7  17
ATOM     17  C   UNL     1       2.933   0.457   0.966  0.00  0.00    +0.249 C 
ATOM     18  O   UNL     1       3.311   1.195   0.081  0.00  0.00    -0.273 OA
ATOM     19  N   UNL     1       2.532   0.970   2.146  0.00  0.00    -0.283 N 
ATOM     20  H   UNL     1       2.158   0.388   2.826  0.00  0.00    +0.155 HD
BRANCH  19  21
ATOM     21  C   UNL     1       2.654   2.342   2.390  0.00  0.00    +0.034 A 
ATOM     22  C   UNL     1       1.720   2.994   3.184  0.00  0.00    +0.025 A 
ATOM     23  C   UNL     1       1.843   4.349   3.423  0.00  0.00    +0.030 A 
ATOM     24  C   UNL     1       2.896   5.056   2.872  0.00  0.00    +0.105 A 
ATOM     25  C   UNL     1       3.828   4.410   2.081  0.00  0.00    +0.030 A 
ATOM     26  C   UNL     1       3.714   3.055   1.843  0.00  0.00    +0.025 A 
BRANCH  24  27
ATOM     27  S   UNL     1       3.050   6.784   3.179  0.00  0.00    +0.056 S 
ATOM     28  O   UNL     1       3.812   7.321   2.107  0.00  0.00    -0.153 OA
ATOM     29  O   UNL     1       1.750   7.257   3.501  0.00  0.00    -0.153 OA
BRANCH  27  30
ATOM     30  N   UNL     1       3.969   6.959   4.546  0.00  0.00    -0.204 NA
ATOM     31  H   UNL     1       4.528   7.744   4.658  0.00  0.00    +0.144 HD
ATOM     32  H   UNL     1       3.949   6.276   5.235  0.00  0.00    +0.144 HD
ENDBRANCH  27  30
ENDBRANCH  24  27
ENDBRANCH  19  21
ENDBRANCH   7  17
TORSDOF 4
