REMARK  Name = ZINC22471535
REMARK  7 active torsions:
REMARK  status: ('A' for Active; 'I' for Inactive)
REMARK    1  A    between atoms: C_1  and  C_2
REMARK    2  A    between atoms: C_2  and  N_3
REMARK    3  A    between atoms: N_14  and  N_15
REMARK    4  A    between atoms: C_16  and  C_18
REMARK    5  A    between atoms: C_19  and  C_27
REMARK    6  A    between atoms: C_27  and  O_28
REMARK    7  A    between atoms: O_28  and  C_29
REMARK                            x       y       z     vdW  Elec       q    Type
REMARK                         _______ _______ _______ _____ _____    ______ ____
ROOT
ATOM      1  N   UNL     1      -3.521  -1.998   0.027  0.00  0.00    -0.228 N 
ATOM      2  C   UNL     1      -4.696  -2.659   0.035  0.00  0.00    +0.296 C 
ATOM      3  O   UNL     1      -4.710  -3.875   0.030  0.00  0.00    -0.265 OA
ATOM      4  H   UNL     1      -3.509  -0.898   0.032  0.00  0.00    +0.173 HD
ENDROOT
BRANCH   1  16
ATOM      5  N   UNL     1       0.035  -2.766  -0.012  0.00  0.00    -0.280 N 
ATOM      6  C   UNL     1       1.238  -2.146  -0.021  0.00  0.00    +0.263 A 
ATOM      7  O   UNL     1       2.275  -2.782  -0.034  0.00  0.00    -0.267 OA
ATOM      8  C   UNL     1       1.245  -0.677  -0.013  0.00  0.00    +0.065 A 
ATOM      9  C   UNL     1       2.432   0.054  -0.021  0.00  0.00    +0.015 A 
ATOM     10  C   UNL     1       2.381   1.421  -0.013  0.00  0.00    +0.001 A 
ATOM     11  C   UNL     1       1.161   2.086   0.002  0.00  0.00    +0.002 A 
ATOM     12  C   UNL     1      -0.017   1.394   0.010  0.00  0.00    +0.028 A 
ATOM     13  C   UNL     1       0.002  -0.004   0.002  0.00  0.00    +0.080 A 
ATOM     14  N   UNL     1      -1.141  -0.730   0.009  0.00  0.00    -0.214 NA
ATOM     15  C   UNL     1      -1.120  -2.039   0.003  0.00  0.00    +0.216 A 
ATOM     16  N   UNL     1      -2.316  -2.712   0.011  0.00  0.00    -0.233 N 
ATOM     17  H   UNL     1      -2.328  -3.812   0.006  0.00  0.00    +0.173 HD
BRANCH   5  19
ATOM     18  C   UNL     1      -0.036  -4.746   1.422  0.00  0.00    +0.027 C 
ATOM     19  C   UNL     1      -0.028  -4.230  -0.018  0.00  0.00    +0.125 C 
ENDBRANCH   5  19
ENDBRANCH   1  16
BRANCH   2  20
ATOM     20  C   UNL     1      -5.960  -1.910   0.051  0.00  0.00    +0.197 A 
ATOM     21  C   UNL     1      -7.199  -2.467   0.056  0.00  0.00    +0.036 A 
ATOM     22  C   UNL     1      -8.145  -1.352   0.075  0.00  0.00    +0.026 A 
ATOM     23  C   UNL     1      -9.539  -1.257   0.090  0.00  0.00    +0.012 A 
ATOM     24  C   UNL     1     -10.134  -0.028   0.101  0.00  0.00    +0.001 A 
ATOM     25  C   UNL     1      -9.363   1.127   0.099  0.00  0.00    +0.004 A 
ATOM     26  C   UNL     1      -7.987   1.056   0.085  0.00  0.00    +0.047 A 
ATOM     27  C   UNL     1      -7.358  -0.185   0.073  0.00  0.00    +0.136 A 
ATOM     28  O   UNL     1      -6.066  -0.564   0.058  0.00  0.00    -0.450 OA
BRANCH  21  29
ATOM     29  C   UNL     1      -7.531  -3.937   0.045  0.00  0.00    +0.199 C 
BRANCH  29  30
ATOM     30  O   UNL     1      -7.627  -4.413   1.389  0.00  0.00    -0.378 OA
ATOM     31  C   UNL     1      -7.940  -5.803   1.493  0.00  0.00    +0.194 C 
ENDBRANCH  29  30
ENDBRANCH  21  29
ENDBRANCH   2  20
TORSDOF 5
