REMARK  Name = ZINC35428160
REMARK  6 active torsions:
REMARK  status: ('A' for Active; 'I' for Inactive)
REMARK    1  A    between atoms: C_1  and  C_2
REMARK    2  A    between atoms: C_6  and  C_31
REMARK    3  A    between atoms: C_7  and  N_8
REMARK    4  A    between atoms: C_9  and  C_11
REMARK    5  A    between atoms: C_11  and  N_12
REMARK    6  A    between atoms: C_20  and  C_24
REMARK                            x       y       z     vdW  Elec       q    Type
REMARK                         _______ _______ _______ _____ _____    ______ ____
ROOT
ATOM      1  N   UNL     1      -0.514  -0.707   5.941  0.00  0.00    -0.257 N 
ATOM      2  C   UNL     1       0.667  -1.251   6.471  0.00  0.00    +0.058 A 
ATOM      3  C   UNL     1       1.790  -0.781   5.812  0.00  0.00    +0.025 A 
ATOM      4  C   UNL     1       3.048  -1.210   6.200  0.00  0.00    +0.002 A 
ATOM      5  C   UNL     1       3.186  -2.106   7.243  0.00  0.00    +0.002 A 
ATOM      6  C   UNL     1       2.068  -2.580   7.906  0.00  0.00    +0.025 A 
ATOM      7  C   UNL     1       0.807  -2.155   7.524  0.00  0.00    +0.053 A 
ATOM      8  N   UNL     1      -0.200  -2.740   8.308  0.00  0.00    -0.312 N 
ATOM      9  C   UNL     1      -1.565  -2.556   8.219  0.00  0.00    +0.044 C 
ATOM     10  C   UNL     1      -2.264  -1.767   7.355  0.00  0.00    +0.091 C 
ATOM     11  C   UNL     1      -1.786  -0.929   6.329  0.00  0.00    +0.246 C 
ATOM     12  O   UNL     1      -2.639  -0.326   5.704  0.00  0.00    -0.270 OA
ATOM     13  H   UNL     1       0.101  -3.351   8.998  0.00  0.00    +0.152 HD
ENDROOT
BRANCH   9  14
ATOM     14  C   UNL     1      -2.376  -3.316   9.190  0.00  0.00    -0.004 A 
ATOM     15  C   UNL     1      -3.498  -4.029   8.760  0.00  0.00    +0.012 A 
ATOM     16  C   UNL     1      -4.252  -4.737   9.671  0.00  0.00    +0.039 A 
ATOM     17  C   UNL     1      -3.899  -4.742  11.012  0.00  0.00    +0.123 A 
ATOM     18  C   UNL     1      -2.787  -4.036  11.444  0.00  0.00    +0.039 A 
ATOM     19  C   UNL     1      -2.022  -3.329  10.541  0.00  0.00    +0.012 A 
ATOM     20  F   UNL     1      -4.642  -5.437  11.900  0.00  0.00    -0.205 F 
ENDBRANCH   9  14
BRANCH   1  21
ATOM     21  C   UNL     1      -0.342   0.226   4.825  0.00  0.00    +0.210 C 
BRANCH  21  23
ATOM     22  N   UNL     1      -0.010   0.106   2.376  0.00  0.00    -0.284 N 
ATOM     23  C   UNL     1      -0.183  -0.549   3.542  0.00  0.00    +0.235 C 
ATOM     24  O   UNL     1      -0.212  -1.761   3.558  0.00  0.00    -0.274 OA
ATOM     25  H   UNL     1       0.063   1.073   2.369  0.00  0.00    +0.155 HD
BRANCH  22  32
ATOM     26  C   UNL     1       2.049   0.784   0.533  0.00  0.00    +0.045 C 
ATOM     27  C   UNL     1       1.054  -0.312   0.249  0.00  0.00    -0.029 A 
ATOM     28  C   UNL     1       1.129  -1.024  -0.932  0.00  0.00    +0.005 A 
ATOM     29  C   UNL     1       0.217  -2.030  -1.194  0.00  0.00    +0.001 A 
ATOM     30  C   UNL     1      -0.773  -2.326  -0.274  0.00  0.00    +0.005 A 
ATOM     31  C   UNL     1      -0.853  -1.617   0.908  0.00  0.00    -0.029 A 
ATOM     32  C   UNL     1       0.065  -0.610   1.176  0.00  0.00    +0.039 A 
ATOM     33  C   UNL     1      -1.933  -1.940   1.909  0.00  0.00    +0.045 C 
ENDBRANCH  22  32
ENDBRANCH  21  23
ENDBRANCH   1  21
TORSDOF 4
