REMARK  Name = ZINC00918830
REMARK  9 active torsions:
REMARK  status: ('A' for Active; 'I' for Inactive)
REMARK    1  A    between atoms: C_1  and  C_2
REMARK    2  A    between atoms: C_4  and  O_26
REMARK    3  A    between atoms: C_6  and  O_25
REMARK    4  A    between atoms: C_7  and  C_8
REMARK    5  A    between atoms: N_9  and  N_10
REMARK    6  A    between atoms: C_11  and  C_13
REMARK    7  A    between atoms: C_13  and  O_14
REMARK    8  A    between atoms: O_14  and  C_15
REMARK    9  A    between atoms: C_18  and  N_22
REMARK                            x       y       z     vdW  Elec       q    Type
REMARK                         _______ _______ _______ _____ _____    ______ ____
ROOT
ATOM      1  N   UNL     1       2.088   4.348   0.005  0.00  0.00    -0.204 N 
ATOM      2  C   UNL     1       1.030   3.512   0.011  0.00  0.00    +0.270 C 
ATOM      3  O   UNL     1      -0.097   3.961   0.024  0.00  0.00    -0.270 OA
ATOM      4  H   UNL     1       2.989   3.989  -0.005  0.00  0.00    +0.177 HD
ENDROOT
BRANCH   1   6
ATOM      5  C   UNL     1       2.904   6.539   0.009  0.00  0.00    +0.142 C 
ATOM      6  N   UNL     1       1.885   5.734   0.015  0.00  0.00    -0.188 NA
BRANCH   5  13
ATOM      7  C   UNL     1       5.187   8.312   0.009  0.00  0.00    +0.044 C 
ATOM      8  C   UNL     1       3.786   8.865   0.019  0.00  0.00    -0.035 A 
ATOM      9  C   UNL     1       3.582  10.228   0.023  0.00  0.00    +0.049 A 
ATOM     10  C   UNL     1       2.291  10.742   0.038  0.00  0.00    +0.121 A 
ATOM     11  C   UNL     1       1.198   9.888   0.044  0.00  0.00    +0.091 A 
ATOM     12  C   UNL     1       1.389   8.518   0.035  0.00  0.00    +0.129 A 
ATOM     13  C   UNL     1       2.691   7.996   0.019  0.00  0.00    +0.039 A 
BRANCH  12  14
ATOM     14  O   UNL     1       0.320   7.680   0.040  0.00  0.00    -0.506 OA
ATOM     15  H   UNL     1       0.019   7.433   0.925  0.00  0.00    +0.292 HD
ENDBRANCH  12  14
BRANCH  10  16
ATOM     16  O   UNL     1       2.099  12.087   0.048  0.00  0.00    -0.507 OA
ATOM     17  H   UNL     1       2.052  12.471   0.933  0.00  0.00    +0.292 HD
ENDBRANCH  10  16
ENDBRANCH   5  13
ENDBRANCH   1   6
BRANCH   2  18
ATOM     18  C   UNL     1       1.248   2.021   0.001  0.00  0.00    +0.326 C 
BRANCH  18  19
ATOM     19  O   UNL     1      -0.016   1.355   0.009  0.00  0.00    -0.482 OA
BRANCH  19  20
ATOM     20  C   UNL     1       0.002  -0.004   0.002  0.00  0.00    +0.135 A 
ATOM     21  C   UNL     1       1.212  -0.682  -0.013  0.00  0.00    +0.049 A 
ATOM     22  C   UNL     1       1.228  -2.064  -0.021  0.00  0.00    +0.036 A 
ATOM     23  C   UNL     1       0.040  -2.771  -0.013  0.00  0.00    +0.127 A 
ATOM     24  C   UNL     1      -1.168  -2.098   0.002  0.00  0.00    +0.051 A 
ATOM     25  C   UNL     1      -1.190  -0.716   0.015  0.00  0.00    +0.062 A 
ATOM     26 BR   UNL     1      -2.841   0.205   0.044  0.00  0.00    -0.046 Br
BRANCH  23  27
ATOM     27  N   UNL     1       0.060  -4.251  -0.021  0.00  0.00    +0.056 N 
ATOM     28  O   UNL     1       1.124  -4.845  -0.035  0.00  0.00    -0.126 OA
ATOM     29  O   UNL     1      -0.986  -4.874  -0.015  0.00  0.00    -0.126 OA
ENDBRANCH  23  27
ENDBRANCH  19  20
ENDBRANCH  18  19
ENDBRANCH   2  18
TORSDOF 8
