REMARK  Name = ZINC46703342
REMARK  9 active torsions:
REMARK  status: ('A' for Active; 'I' for Inactive)
REMARK    1  A    between atoms: C_1  and  C_2
REMARK    2  A    between atoms: C_7  and  C_19
REMARK    3  A    between atoms: C_11  and  C_12
REMARK    4  A    between atoms: C_12  and  O_14
REMARK    5  A    between atoms: O_14  and  C_15
REMARK    6  A    between atoms: C_15  and  C_16
REMARK    7  A    between atoms: C_16  and  O_17
REMARK    8  A    between atoms: O_17  and  C_18
REMARK    9  A    between atoms: C_22  and  O_25
REMARK                            x       y       z     vdW  Elec       q    Type
REMARK                         _______ _______ _______ _____ _____    ______ ____
ROOT
ATOM      1  C   UNL     1      -0.018   1.503   0.010  0.00  0.00    +0.046 C 
ATOM      2  C   UNL     1       0.002  -0.004   0.002  0.00  0.00    -0.015 A 
ATOM      3  C   UNL     1       0.006  -0.727  -1.196  0.00  0.00    +0.076 A 
ATOM      4  C   UNL     1      -0.007  -0.217  -2.591  0.00  0.00    +0.282 A 
ATOM      5  O   UNL     1      -0.024   0.984  -2.808  0.00  0.00    -0.265 OA
ATOM      6  N   UNL     1      -0.000  -1.087  -3.606  0.00  0.00    -0.191 NA
ATOM      7  C   UNL     1       0.018  -2.388  -3.415  0.00  0.00    +0.143 A 
ATOM      8  N   UNL     1       0.031  -2.928  -2.162  0.00  0.00    -0.333 N 
ATOM      9  C   UNL     1       0.025  -2.124  -1.065  0.00  0.00    +0.093 A 
ATOM     10  S   UNL     1       0.037  -2.407   0.582  0.00  0.00    -0.064 S 
ATOM     11  C   UNL     1       0.023  -0.723   1.163  0.00  0.00    +0.102 A 
ATOM     12  H   UNL     1       0.045  -3.891  -2.053  0.00  0.00    +0.168 HD
ENDROOT
BRANCH   7  13
ATOM     13  C   UNL     1       0.024  -3.287  -4.585  0.00  0.00    +0.018 A 
ATOM     14  C   UNL     1       0.038  -4.673  -4.404  0.00  0.00    +0.015 A 
ATOM     15  C   UNL     1       0.044  -5.508  -5.499  0.00  0.00    +0.046 A 
ATOM     16  C   UNL     1       0.037  -4.974  -6.782  0.00  0.00    +0.117 A 
ATOM     17  C   UNL     1       0.023  -3.597  -6.966  0.00  0.00    +0.046 A 
ATOM     18  C   UNL     1       0.011  -2.755  -5.877  0.00  0.00    +0.015 A 
BRANCH  16  19
ATOM     19  O   UNL     1       0.043  -5.801  -7.859  0.00  0.00    -0.507 OA
ATOM     20  H   UNL     1      -0.839  -6.049  -8.169  0.00  0.00    +0.292 HD
ENDBRANCH  16  19
ENDBRANCH   7  13
BRANCH  11  21
ATOM     21  C   UNL     1       0.031  -0.232   2.542  0.00  0.00    +0.346 C 
ATOM     22  O   UNL     1       0.018   0.965   2.762  0.00  0.00    -0.244 OA
BRANCH  21  23
ATOM     23  O   UNL     1       0.053  -1.106   3.570  0.00  0.00    -0.458 OA
BRANCH  23  24
ATOM     24  C   UNL     1       0.059  -0.556   4.889  0.00  0.00    +0.260 C 
BRANCH  24  25
ATOM     25  C   UNL     1       0.085  -1.692   5.914  0.00  0.00    +0.200 C 
BRANCH  25  26
ATOM     26  O   UNL     1       1.314  -2.411   5.798  0.00  0.00    -0.380 OA
ATOM     27  C   UNL     1       1.440  -3.499   6.716  0.00  0.00    +0.194 C 
ENDBRANCH  25  26
ENDBRANCH  24  25
ENDBRANCH  23  24
ENDBRANCH  21  23
ENDBRANCH  11  21
TORSDOF 7
