REMARK  Name = ZINC12888000
REMARK  6 active torsions:
REMARK  status: ('A' for Active; 'I' for Inactive)
REMARK    1  A    between atoms: C_1  and  C_2
REMARK    2  A    between atoms: C_2  and  C_4
REMARK    3  A    between atoms: C_2  and  N_14
REMARK    4  A    between atoms: N_6  and  C_7
REMARK    5  A    between atoms: C_7  and  C_8
REMARK    6  A    between atoms: C_15  and  C_17
REMARK                            x       y       z     vdW  Elec       q    Type
REMARK                         _______ _______ _______ _____ _____    ______ ____
ROOT
ATOM      1  C   UNL     1      -4.185  -4.458   0.511  0.00  0.00    +0.167 C 
ATOM      2  C   UNL     1      -5.074  -3.532   1.353  0.00  0.00    +0.069 C 
ATOM      3  C   UNL     1      -4.900  -3.831   2.820  0.00  0.00    -0.015 A 
ATOM      4  C   UNL     1      -5.318  -3.006   3.940  0.00  0.00    +0.003 A 
ATOM      5  C   UNL     1      -5.958  -1.765   4.008  0.00  0.00    +0.010 A 
ATOM      6  C   UNL     1      -6.210  -1.267   5.263  0.00  0.00    +0.001 A 
ATOM      7  C   UNL     1      -5.850  -1.953   6.412  0.00  0.00    +0.002 A 
ATOM      8  C   UNL     1      -5.216  -3.182   6.372  0.00  0.00    +0.026 A 
ATOM      9  C   UNL     1      -4.948  -3.712   5.112  0.00  0.00    +0.047 A 
ATOM     10  N   UNL     1      -4.352  -4.874   4.715  0.00  0.00    -0.356 N 
ATOM     11  H   UNL     1      -4.002  -5.554   5.311  0.00  0.00    +0.166 HD
ATOM     12  C   UNL     1      -4.321  -4.934   3.348  0.00  0.00    +0.046 A 
ATOM     13  C   UNL     1      -3.737  -6.039   2.502  0.00  0.00    +0.155 C 
ATOM     14  N   UNL     1      -4.218  -5.790   1.123  0.00  0.00    -0.273 N 
ATOM     15  C   UNL     1      -4.687  -6.941   0.622  0.00  0.00    +0.248 C 
ATOM     16  O   UNL     1      -4.969  -7.132  -0.545  0.00  0.00    -0.270 OA
ATOM     17  C   UNL     1      -4.809  -7.933   1.694  0.00  0.00    +0.042 A 
ATOM     18  C   UNL     1      -4.259  -7.385   2.871  0.00  0.00    -0.009 A 
ATOM     19  C   UNL     1      -4.272  -8.077   4.061  0.00  0.00    +0.006 A 
ATOM     20  C   UNL     1      -4.838  -9.348   4.049  0.00  0.00    +0.000 A 
ATOM     21  C   UNL     1      -5.366  -9.899   2.898  0.00  0.00    +0.001 A 
ATOM     22  C   UNL     1      -5.368  -9.212   1.693  0.00  0.00    +0.013 A 
ENDROOT
BRANCH   1  24
ATOM     23  N   UNL     1      -2.510  -2.708   0.011  0.00  0.00    -0.303 N 
ATOM     24  C   UNL     1      -2.771  -3.936   0.501  0.00  0.00    +0.235 C 
ATOM     25  O   UNL     1      -1.869  -4.622   0.932  0.00  0.00    -0.274 OA
ATOM     26  H   UNL     1      -3.232  -2.159  -0.334  0.00  0.00    +0.149 HD
BRANCH  23  28
ATOM     27  C   UNL     1      -0.419  -2.694  -1.258  0.00  0.00    +0.038 C 
ATOM     28  C   UNL     1      -1.135  -2.201   0.001  0.00  0.00    +0.156 C 
BRANCH  28  29
ATOM     29  C   UNL     1      -1.156  -0.694   0.009  0.00  0.00    +0.233 C 
ATOM     30  O   UNL     1      -2.214  -0.102   0.023  0.00  0.00    -0.274 OA
ATOM     31  N   UNL     1       0.002  -0.004   0.002  0.00  0.00    -0.310 N 
ATOM     32  H   UNL     1       0.849  -0.478  -0.009  0.00  0.00    +0.149 HD
BRANCH  31  33
ATOM     33  C   UNL     1      -0.018   1.461   0.010  0.00  0.00    +0.139 C 
BRANCH  33  34
ATOM     34  C   UNL     1       1.396   1.982  -0.001  0.00  0.00    -0.030 A 
ATOM     35  C   UNL     1       2.054   2.221   1.192  0.00  0.00    +0.005 A 
ATOM     36  C   UNL     1       3.353   2.694   1.182  0.00  0.00    +0.000 A 
ATOM     37  C   UNL     1       3.990   2.940  -0.020  0.00  0.00    +0.000 A 
ATOM     38  C   UNL     1       3.330   2.707  -1.212  0.00  0.00    +0.000 A 
ATOM     39  C   UNL     1       2.033   2.228  -1.203  0.00  0.00    +0.005 A 
ENDBRANCH  33  34
ENDBRANCH  31  33
ENDBRANCH  28  29
ENDBRANCH  23  28
ENDBRANCH   1  24
TORSDOF 5
