REMARK  Name = ZINC40390409
REMARK  5 active torsions:
REMARK  status: ('A' for Active; 'I' for Inactive)
REMARK    1  A    between atoms: C_1  and  C_2
REMARK    2  A    between atoms: C_5  and  N_9
REMARK    3  A    between atoms: C_6  and  C_8
REMARK    4  A    between atoms: C_10  and  C_12
REMARK    5  A    between atoms: C_31  and  C_33
REMARK                            x       y       z     vdW  Elec       q    Type
REMARK                         _______ _______ _______ _____ _____    ______ ____
ROOT
ATOM      1  C   UNL     1      -0.193  -6.640  -1.101  0.00  0.00    +0.122 C 
ATOM      2  C   UNL     1       1.092  -7.187  -0.477  0.00  0.00    +0.114 C 
ATOM      3  C   UNL     1       2.256  -6.918  -1.395  0.00  0.00    +0.219 C 
ATOM      4  O   UNL     1       3.334  -6.625  -0.926  0.00  0.00    -0.275 OA
ATOM      5  N   UNL     1       2.110  -7.001  -2.728  0.00  0.00    -0.270 N 
ATOM      6  C   UNL     1       0.869  -7.230  -3.296  0.00  0.00    +0.138 A 
ATOM      7  C   UNL     1      -0.279  -7.077  -2.539  0.00  0.00    +0.069 A 
ATOM      8  C   UNL     1      -1.521  -7.335  -3.127  0.00  0.00    +0.258 A 
ATOM      9  O   UNL     1      -2.551  -7.220  -2.483  0.00  0.00    -0.267 OA
ATOM     10  N   UNL     1      -1.557  -7.712  -4.423  0.00  0.00    -0.295 N 
ATOM     11  H   UNL     1      -2.407  -7.910  -4.847  0.00  0.00    +0.172 HD
ATOM     12  C   UNL     1      -0.402  -7.813  -5.136  0.00  0.00    +0.200 A 
ATOM     13  N   UNL     1       0.768  -7.575  -4.584  0.00  0.00    -0.200 NA
ATOM     14  N   UNL     1      -0.460  -8.172  -6.456  0.00  0.00    -0.298 N 
ATOM     15  C   UNL     1      -1.753  -8.306  -7.140  0.00  0.00    +0.108 C 
ATOM     16  C   UNL     1      -1.826  -9.692  -7.789  0.00  0.00    +0.019 C 
ATOM     17  C   UNL     1      -0.611  -9.889  -8.699  0.00  0.00    +0.003 C 
ATOM     18  C   UNL     1       0.670  -9.813  -7.864  0.00  0.00    +0.022 C 
ATOM     19  C   UNL     1       0.772  -8.424  -7.218  0.00  0.00    +0.073 C 
ATOM     20  C   UNL     1       1.976  -8.382  -6.274  0.00  0.00    +0.028 C 
ATOM     21  H   UNL     1       2.886  -6.898  -3.301  0.00  0.00    +0.156 HD
ENDROOT
BRANCH   1  23
ATOM     22  N   UNL     1      -0.109  -4.514   0.160  0.00  0.00    -0.285 N 
ATOM     23  C   UNL     1      -0.182  -5.135  -1.034  0.00  0.00    +0.225 C 
ATOM     24  O   UNL     1      -0.238  -4.482  -2.054  0.00  0.00    -0.275 OA
ATOM     25  H   UNL     1       0.003  -5.034   0.971  0.00  0.00    +0.155 HD
BRANCH  22  30
ATOM     26  C   UNL     1      -0.460   1.141   0.443  0.00  0.00    +0.044 C 
ATOM     27  C   UNL     1      -0.367  -0.361   0.368  0.00  0.00    -0.050 A 
ATOM     28  C   UNL     1       0.248  -0.961  -0.716  0.00  0.00    +0.005 A 
ATOM     29  C   UNL     1       0.335  -2.337  -0.788  0.00  0.00    +0.024 A 
ATOM     30  C   UNL     1      -0.196  -3.119   0.230  0.00  0.00    +0.036 A 
ATOM     31  C   UNL     1      -0.812  -2.514   1.317  0.00  0.00    -0.029 A 
ATOM     32  C   UNL     1      -0.891  -1.136   1.385  0.00  0.00    +0.008 A 
ATOM     33  C   UNL     1      -1.389  -3.358   2.424  0.00  0.00    +0.045 C 
ENDBRANCH  22  30
ENDBRANCH   1  23
TORSDOF 2
