REMARK  Name = ZINC58633422
REMARK  8 active torsions:
REMARK  status: ('A' for Active; 'I' for Inactive)
REMARK    1  A    between atoms: C_3  and  N_13
REMARK    2  A    between atoms: C_6  and  C_7
REMARK    3  A    between atoms: C_7  and  O_9
REMARK    4  A    between atoms: O_9  and  C_10
REMARK    5  A    between atoms: C_10  and  C_11
REMARK    6  A    between atoms: C_11  and  O_12
REMARK    7  A    between atoms: N_13  and  S_14
REMARK    8  A    between atoms: S_14  and  C_17
REMARK                            x       y       z     vdW  Elec       q    Type
REMARK                         _______ _______ _______ _____ _____    ______ ____
ROOT
ATOM      1  N   UNL     1       3.568   2.126  -0.018  0.00  0.00    -0.216 N 
ATOM      2  H   UNL     1       2.686   2.288   0.351  0.00  0.00    +0.174 HD
ENDROOT
BRANCH   1   5
ATOM      3  C   UNL     1       3.154   2.160  -3.656  0.00  0.00    +0.017 A 
ATOM      4  C   UNL     1       2.915   1.920  -2.328  0.00  0.00    +0.025 A 
ATOM      5  C   UNL     1       3.814   2.370  -1.364  0.00  0.00    +0.048 A 
ATOM      6  C   UNL     1       4.958   3.065  -1.746  0.00  0.00    +0.025 A 
ATOM      7  C   UNL     1       5.204   3.308  -3.073  0.00  0.00    +0.017 A 
ATOM      8  C   UNL     1       4.303   2.857  -4.043  0.00  0.00    +0.059 A 
BRANCH   8   9
ATOM      9  C   UNL     1       4.564   3.116  -5.471  0.00  0.00    +0.339 C 
ATOM     10  O   UNL     1       3.781   2.723  -6.313  0.00  0.00    -0.245 OA
BRANCH   9  11
ATOM     11  O   UNL     1       5.671   3.788  -5.842  0.00  0.00    -0.459 OA
BRANCH  11  12
ATOM     12  C   UNL     1       5.861   4.003  -7.242  0.00  0.00    +0.260 C 
BRANCH  12  13
ATOM     13  C   UNL     1       7.161   4.777  -7.468  0.00  0.00    +0.197 C 
BRANCH  13  14
ATOM     14  O   UNL     1       8.270   3.975  -7.055  0.00  0.00    -0.392 OA
ATOM     15  H   UNL     1       9.129   4.404  -7.170  0.00  0.00    +0.210 HD
ENDBRANCH  13  14
ENDBRANCH  12  13
ENDBRANCH  11  12
ENDBRANCH   9  11
ENDBRANCH   8   9
ENDBRANCH   1   5
BRANCH   1  16
ATOM     16  S   UNL     1       4.781   1.557   0.955  0.00  0.00    +0.072 S 
ATOM     17  O   UNL     1       5.886   2.433   0.780  0.00  0.00    -0.150 OA
ATOM     18  O   UNL     1       4.199   1.311   2.228  0.00  0.00    -0.150 OA
BRANCH  16  19
ATOM     19  C   UNL     1       5.272  -0.009   0.314  0.00  0.00    +0.112 A 
ATOM     20  C   UNL     1       4.579  -1.149   0.675  0.00  0.00    +0.032 A 
ATOM     21  C   UNL     1       4.959  -2.382   0.175  0.00  0.00    +0.051 A 
ATOM     22  C   UNL     1       6.037  -2.470  -0.689  0.00  0.00    +0.162 A 
ATOM     23  C   UNL     1       6.733  -1.325  -1.051  0.00  0.00    +0.164 A 
ATOM     24  C   UNL     1       6.347  -0.092  -0.553  0.00  0.00    +0.078 A 
ATOM     25  O   UNL     1       7.794  -1.422  -1.904  0.00  0.00    -0.488 OA
ATOM     26  C   UNL     1       8.949  -2.089  -1.391  0.00  0.00    +0.232 C 
ATOM     27  C   UNL     1       8.821  -3.595  -1.557  0.00  0.00    +0.082 C 
ATOM     28  C   UNL     1       7.682  -4.174  -0.732  0.00  0.00    +0.232 C 
ATOM     29  O   UNL     1       6.422  -3.679  -1.190  0.00  0.00    -0.488 OA
ENDBRANCH  16  19
ENDBRANCH   1  16
TORSDOF 8
