REMARK  Name = ZINC34900488
REMARK  10 active torsions:
REMARK  status: ('A' for Active; 'I' for Inactive)
REMARK    1  A    between atoms: C_1  and  C_2
REMARK    2  A    between atoms: C_7  and  C_8
REMARK    3  A    between atoms: N_10  and  C_11
REMARK    4  A    between atoms: C_17  and  N_19
REMARK    5  A    between atoms: C_20  and  C_22
REMARK    6  A    between atoms: C_29  and  C_31
REMARK    7  A    between atoms: C_34  and  C_37
REMARK    8  A    between atoms: C_37  and  C_38
REMARK    9  A    between atoms: C_37  and  C_39
REMARK   10  A    between atoms: C_37  and  C_40
REMARK                            x       y       z     vdW  Elec       q    Type
REMARK                         _______ _______ _______ _____ _____    ______ ____
ROOT
ATOM      1  N   UNL     1      -1.267  -1.033   5.784  0.00  0.00    -0.310 N 
ATOM      2  C   UNL     1      -1.716  -2.075   6.511  0.00  0.00    +0.218 C 
ATOM      3  O   UNL     1      -0.982  -2.617   7.311  0.00  0.00    -0.275 OA
ATOM      4  H   UNL     1      -1.854  -0.600   5.144  0.00  0.00    +0.149 HD
ENDROOT
BRANCH   2   5
ATOM      5  C   UNL     1      -3.128  -2.568   6.331  0.00  0.00    +0.092 C 
ATOM      6  C   UNL     1      -3.380  -3.752   7.268  0.00  0.00    +0.016 C 
ATOM      7  C   UNL     1      -4.825  -4.232   7.109  0.00  0.00    +0.020 C 
ATOM      8  C   UNL     1      -5.048  -4.700   5.668  0.00  0.00    +0.108 C 
ATOM      9  N   UNL     1      -4.669  -3.614   4.754  0.00  0.00    -0.297 N 
ATOM     10  C   UNL     1      -3.332  -3.017   4.880  0.00  0.00    +0.120 C 
ATOM     11  C   UNL     1      -5.531  -3.173   3.816  0.00  0.00    +0.247 C 
ATOM     12  O   UNL     1      -5.180  -2.327   3.017  0.00  0.00    -0.270 OA
BRANCH  11  13
ATOM     13  C   UNL     1      -6.904  -3.718   3.760  0.00  0.00    +0.037 A 
ATOM     14  C   UNL     1      -7.994  -2.859   3.610  0.00  0.00    +0.013 A 
ATOM     15  C   UNL     1      -9.273  -3.374   3.558  0.00  0.00    +0.005 A 
ATOM     16  C   UNL     1      -9.476  -4.739   3.655  0.00  0.00    -0.042 A 
ATOM     17  C   UNL     1      -8.401  -5.596   3.805  0.00  0.00    +0.005 A 
ATOM     18  C   UNL     1      -7.116  -5.095   3.852  0.00  0.00    +0.013 A 
BRANCH  16  19
ATOM     19  C   UNL     1     -10.876  -5.295   3.598  0.00  0.00    -0.013 C 
ATOM     20  C   UNL     1     -11.521  -4.917   2.263  0.00  0.00    +0.015 C 
ATOM     21  C   UNL     1     -10.826  -6.818   3.727  0.00  0.00    +0.015 C 
ATOM     22  C   UNL     1     -11.703  -4.713   4.747  0.00  0.00    +0.015 C 
ENDBRANCH  16  19
ENDBRANCH  11  13
ENDBRANCH   2   5
BRANCH   1  28
ATOM     23  C   UNL     1       0.568   0.148   4.681  0.00  0.00    +0.093 C 
ATOM     24  C   UNL     1       2.003   0.648   4.864  0.00  0.00    +0.024 C 
ATOM     25  C   UNL     1       2.054   1.632   6.034  0.00  0.00    +0.002 C 
ATOM     26  C   UNL     1       1.592   0.929   7.312  0.00  0.00    +0.002 C 
ATOM     27  C   UNL     1       0.158   0.429   7.129  0.00  0.00    +0.024 C 
ATOM     28  C   UNL     1       0.106  -0.555   5.959  0.00  0.00    +0.093 C 
BRANCH  23  31
ATOM     29  C   UNL     1       0.383  -0.336   2.300  0.00  0.00    +0.245 C 
ATOM     30  O   UNL     1       0.301   0.859   2.093  0.00  0.00    -0.270 OA
ATOM     31  N   UNL     1       0.519  -0.794   3.560  0.00  0.00    -0.307 N 
ATOM     32  H   UNL     1       0.584  -1.748   3.725  0.00  0.00    +0.149 HD
BRANCH  29  39
ATOM     33  C   UNL     1       0.251   0.669  -0.410  0.00  0.00    +0.044 C 
ATOM     34  C   UNL     1       0.269  -0.814  -0.142  0.00  0.00    -0.038 A 
ATOM     35  C   UNL     1       0.229  -1.706  -1.194  0.00  0.00    +0.004 A 
ATOM     36  C   UNL     1       0.245  -3.068  -0.950  0.00  0.00    +0.000 A 
ATOM     37  C   UNL     1       0.302  -3.544   0.348  0.00  0.00    +0.001 A 
ATOM     38  C   UNL     1       0.344  -2.662   1.408  0.00  0.00    +0.013 A 
ATOM     39  C   UNL     1       0.333  -1.287   1.169  0.00  0.00    +0.040 A 
ENDBRANCH  29  39
ENDBRANCH  23  31
ENDBRANCH   1  28
TORSDOF 6
