REMARK  Name = ZINC23199416
REMARK  4 active torsions:
REMARK  status: ('A' for Active; 'I' for Inactive)
REMARK    1  A    between atoms: C_1  and  C_2
REMARK    2  A    between atoms: N_7  and  C_8
REMARK    3  A    between atoms: C_15  and  C_17
REMARK    4  A    between atoms: C_17  and  N_18
REMARK                            x       y       z     vdW  Elec       q    Type
REMARK                         _______ _______ _______ _____ _____    ______ ____
ROOT
ATOM      1  C   UNL     1      -1.236   5.635  -1.234  0.00  0.00    +0.217 C 
ENDROOT
BRANCH   1   2
ATOM      2  N   UNL     1      -1.259   4.203  -0.924  0.00  0.00    -0.215 N 
ATOM      3  C   UNL     1      -1.254   3.226  -1.853  0.00  0.00    +0.251 C 
ATOM      4  O   UNL     1      -1.229   3.359  -3.058  0.00  0.00    -0.272 OA
ATOM      5  C   UNL     1      -1.284   1.928  -1.076  0.00  0.00    +0.138 C 
ATOM      6  C   UNL     1      -2.545   1.142  -1.411  0.00  0.00    +0.040 C 
ATOM      7  C   UNL     1      -2.444  -0.242  -0.759  0.00  0.00    +0.008 C 
ATOM      8  C   UNL     1      -1.350  -1.034  -1.472  0.00  0.00    +0.035 C 
ATOM      9  C   UNL     1      -0.072  -0.239  -1.532  0.00  0.00    -0.042 A 
ATOM     10  C   UNL     1      -0.044   1.128  -1.358  0.00  0.00    -0.012 A 
ATOM     11  C   UNL     1       1.166   1.805  -1.437  0.00  0.00    +0.006 A 
ATOM     12  C   UNL     1       2.338   1.120  -1.683  0.00  0.00    +0.000 A 
ATOM     13  C   UNL     1       2.310  -0.251  -1.852  0.00  0.00    +0.000 A 
ATOM     14  C   UNL     1       1.109  -0.926  -1.776  0.00  0.00    +0.004 A 
ATOM     15  N   UNL     1      -1.305   2.357   0.329  0.00  0.00    -0.281 N 
ATOM     16  C   UNL     1      -1.288   3.703   0.318  0.00  0.00    +0.310 C 
ATOM     17  O   UNL     1      -1.298   4.388   1.322  0.00  0.00    -0.252 OA
ATOM     18  H   UNL     1      -1.329   1.606   1.133  0.00  0.00    +0.152 HD
ENDBRANCH   1   2
BRANCH   1  27
ATOM     19  C   UNL     1      -3.555  11.555  -2.559  0.00  0.00    +0.044 C 
ATOM     20  C   UNL     1      -3.334  10.100  -2.238  0.00  0.00    -0.046 A 
ATOM     21  C   UNL     1      -2.026   9.597  -2.108  0.00  0.00    +0.021 A 
ATOM     22  C   UNL     1      -1.818   8.297  -1.822  0.00  0.00    +0.096 A 
ATOM     23  N   UNL     1      -2.874   7.440  -1.653  0.00  0.00    -0.272 N 
ATOM     24  C   UNL     1      -4.170   7.903  -1.780  0.00  0.00    +0.114 A 
ATOM     25  N   UNL     1      -5.184   7.083  -1.623  0.00  0.00    -0.368 N 
ATOM     26  C   UNL     1      -4.396   9.270  -2.075  0.00  0.00    +0.048 A 
ATOM     27  C   UNL     1      -2.649   6.143  -1.367  0.00  0.00    +0.251 C 
ATOM     28  O   UNL     1      -3.582   5.384  -1.217  0.00  0.00    -0.271 OA
ATOM     29  H   UNL     1      -5.009   6.048  -1.295  0.00  0.00    +0.161 HD
BRANCH  25  30
ATOM     30  C   UNL     1      -6.549   7.548  -1.884  0.00  0.00    +0.081 C 
ATOM     31  C   UNL     1      -7.362   7.498  -0.589  0.00  0.00    +0.024 C 
ATOM     32  C   UNL     1      -8.787   7.983  -0.863  0.00  0.00    +0.002 C 
ATOM     33  C   UNL     1      -9.441   7.080  -1.911  0.00  0.00    +0.000 C 
ATOM     34  C   UNL     1      -8.628   7.130  -3.206  0.00  0.00    +0.002 C 
ATOM     35  C   UNL     1      -7.203   6.645  -2.932  0.00  0.00    +0.024 C 
ENDBRANCH  25  30
ENDBRANCH   1  27
TORSDOF 3
