REMARK  Name = ZINC19941241
REMARK  10 active torsions:
REMARK  status: ('A' for Active; 'I' for Inactive)
REMARK    1  A    between atoms: C_1  and  C_2
REMARK    2  A    between atoms: C_2  and  C_4
REMARK    3  A    between atoms: C_2  and  N_12
REMARK    4  A    between atoms: N_6  and  C_7
REMARK    5  A    between atoms: N_12  and  C_13
REMARK    6  A    between atoms: C_20  and  C_22
REMARK    7  A    between atoms: C_22  and  S_23
REMARK    8  A    between atoms: S_23  and  C_25
REMARK    9  A    between atoms: C_25  and  C_26
REMARK   10  A    between atoms: N_28  and  C_29
REMARK                            x       y       z     vdW  Elec       q    Type
REMARK                         _______ _______ _______ _____ _____    ______ ____
ROOT
ATOM      1  N   UNL     1       6.462   1.305  -0.167  0.00  0.00    -0.259 N 
ATOM      2  C   UNL     1       5.403   0.644  -0.675  0.00  0.00    +0.233 C 
ATOM      3  O   UNL     1       5.413  -0.568  -0.727  0.00  0.00    -0.274 OA
ENDROOT
BRANCH   1   4
ATOM      4  C   UNL     1       6.409   2.695  -0.010  0.00  0.00    +0.037 A 
ATOM      5  C   UNL     1       5.580   3.256   0.953  0.00  0.00    +0.025 A 
ATOM      6  C   UNL     1       5.535   4.628   1.108  0.00  0.00    +0.022 A 
ATOM      7  C   UNL     1       6.305   5.443   0.298  0.00  0.00    +0.041 A 
ATOM      8  C   UNL     1       7.127   4.887  -0.666  0.00  0.00    +0.022 A 
ATOM      9  C   UNL     1       7.181   3.516  -0.822  0.00  0.00    +0.025 A 
ATOM     10 CL   UNL     1       6.239   7.167   0.492  0.00  0.00    -0.084 Cl
ENDBRANCH   1   4
BRANCH   1  12
ATOM     11  C   UNL     1       8.881   1.165  -0.493  0.00  0.00    +0.038 C 
ATOM     12  C   UNL     1       7.667   0.569   0.222  0.00  0.00    +0.164 C 
BRANCH  12  13
ATOM     13  C   UNL     1       7.861   0.674   1.713  0.00  0.00    +0.234 C 
ATOM     14  O   UNL     1       7.070   1.302   2.385  0.00  0.00    -0.274 OA
ATOM     15  N   UNL     1       8.914   0.071   2.300  0.00  0.00    -0.311 N 
ATOM     16  H   UNL     1       9.631  -0.498   1.691  0.00  0.00    +0.149 HD
BRANCH  15  17
ATOM     17  C   UNL     1       9.102   0.173   3.749  0.00  0.00    +0.073 C 
ATOM     18  C   UNL     1       9.916   1.438   4.088  0.00  0.00    +0.022 C 
ATOM     19  C   UNL     1      10.818   1.004   5.271  0.00  0.00    +0.002 C 
ATOM     20  C   UNL     1      11.203  -0.447   4.892  0.00  0.00    +0.002 C 
ATOM     21  C   UNL     1       9.920  -1.026   4.260  0.00  0.00    +0.022 C 
ENDBRANCH  15  17
ENDBRANCH  12  13
ENDBRANCH   1  12
BRANCH   2  22
ATOM     22  C   UNL     1       4.207   1.410  -1.177  0.00  0.00    +0.200 C 
BRANCH  22  23
ATOM     23  S   UNL     1       2.909   0.244  -1.678  0.00  0.00    +0.040 S 
ATOM     24  O   UNL     1       2.479  -0.499  -0.546  0.00  0.00    -0.256 OA
BRANCH  23  25
ATOM     25  C   UNL     1       1.558   1.311  -2.250  0.00  0.00    +0.200 C 
BRANCH  25  26
ATOM     26  C   UNL     1       0.401   0.458  -2.701  0.00  0.00    +0.230 C 
ATOM     27  O   UNL     1       0.480  -0.751  -2.642  0.00  0.00    -0.274 OA
ATOM     28  N   UNL     1      -0.720   1.038  -3.175  0.00  0.00    -0.285 N 
ATOM     29  H   UNL     1      -0.826   2.132  -3.149  0.00  0.00    +0.155 HD
BRANCH  28  30
ATOM     30  C   UNL     1      -1.749   0.247  -3.700  0.00  0.00    +0.034 A 
ATOM     31  C   UNL     1      -2.500   0.707  -4.774  0.00  0.00    +0.026 A 
ATOM     32  C   UNL     1      -3.511  -0.077  -5.294  0.00  0.00    +0.040 A 
ATOM     33  C   UNL     1      -3.784  -1.316  -4.738  0.00  0.00    +0.124 A 
ATOM     34  C   UNL     1      -3.039  -1.774  -3.664  0.00  0.00    +0.040 A 
ATOM     35  C   UNL     1      -2.023  -0.996  -3.145  0.00  0.00    +0.026 A 
ATOM     36  F   UNL     1      -4.777  -2.079  -5.245  0.00  0.00    -0.205 F 
ENDBRANCH  28  30
ENDBRANCH  25  26
ENDBRANCH  23  25
ENDBRANCH  22  23
ENDBRANCH   2  22
TORSDOF 9
