REMARK  Name = ZINC63375484
REMARK  8 active torsions:
REMARK  status: ('A' for Active; 'I' for Inactive)
REMARK    1  A    between atoms: C_1  and  C_2
REMARK    2  A    between atoms: C_2  and  C_3
REMARK    3  A    between atoms: C_3  and  N_4
REMARK    4  A    between atoms: C_5  and  C_7
REMARK    5  A    between atoms: C_12  and  N_13
REMARK    6  A    between atoms: C_29  and  C_34
REMARK    7  A    between atoms: C_37  and  O_40
REMARK    8  A    between atoms: O_40  and  C_41
REMARK                            x       y       z     vdW  Elec       q    Type
REMARK                         _______ _______ _______ _____ _____    ______ ____
ROOT
ATOM      1  N   UNL     1       2.617  -4.132   4.316  0.00  0.00    -0.192 N 
ATOM      2  C   UNL     1       1.986  -3.776   5.455  0.00  0.00    +0.248 C 
ATOM      3  O   UNL     1       0.822  -3.966   5.737  0.00  0.00    -0.273 OA
ATOM      4  C   UNL     1       3.034  -3.093   6.307  0.00  0.00    +0.169 C 
ATOM      5  C   UNL     1       2.593  -1.653   6.622  0.00  0.00    +0.065 C 
ATOM      6  C   UNL     1       3.854  -0.872   6.905  0.00  0.00    -0.034 C 
ATOM      7  C   UNL     1       4.043   0.430   7.095  0.00  0.00    -0.001 A 
ATOM      8  C   UNL     1       3.095   1.552   7.188  0.00  0.00    +0.010 A 
ATOM      9  C   UNL     1       3.641   2.783   7.375  0.00  0.00    +0.001 A 
ATOM     10  C   UNL     1       5.018   3.006   7.476  0.00  0.00    +0.002 A 
ATOM     11  C   UNL     1       5.960   2.033   7.408  0.00  0.00    +0.026 A 
ATOM     12  C   UNL     1       5.508   0.694   7.220  0.00  0.00    +0.043 A 
ATOM     13  N   UNL     1       6.179  -0.417   7.138  0.00  0.00    -0.375 N 
ATOM     14  C   UNL     1       5.228  -1.523   7.006  0.00  0.00    +0.131 C 
ATOM     15  C   UNL     1       5.452  -2.306   5.705  0.00  0.00    +0.135 C 
ATOM     16  N   UNL     1       4.214  -3.049   5.420  0.00  0.00    -0.264 N 
ATOM     17  C   UNL     1       3.899  -3.742   4.318  0.00  0.00    +0.317 C 
ATOM     18  O   UNL     1       4.684  -3.987   3.423  0.00  0.00    -0.252 OA
ATOM     19  H   UNL     1       7.145  -0.499   7.160  0.00  0.00    +0.160 HD
ENDROOT
BRANCH   1  25
ATOM     20  C   UNL     1       1.384  -4.122   2.227  0.00  0.00    +0.059 A 
ATOM     21  C   UNL     1       0.785  -4.827   1.180  0.00  0.00    +0.015 A 
ATOM     22  C   UNL     1       0.808  -6.205   1.178  0.00  0.00    +0.001 A 
ATOM     23  C   UNL     1       1.422  -6.896   2.210  0.00  0.00    +0.002 A 
ATOM     24  C   UNL     1       2.018  -6.213   3.251  0.00  0.00    +0.025 A 
ATOM     25  C   UNL     1       2.010  -4.825   3.267  0.00  0.00    +0.058 A 
BRANCH  20  27
ATOM     26  N   UNL     1       0.762  -1.976   1.234  0.00  0.00    -0.311 N 
ATOM     27  C   UNL     1       1.364  -2.647   2.235  0.00  0.00    +0.246 C 
ATOM     28  O   UNL     1       1.891  -2.037   3.145  0.00  0.00    -0.270 OA
ATOM     29  H   UNL     1       0.342  -2.462   0.507  0.00  0.00    +0.149 HD
BRANCH  26  30
ATOM     30  C   UNL     1       0.742  -0.511   1.242  0.00  0.00    +0.104 C 
BRANCH  30  32
ATOM     31  C   UNL     1      -0.019   1.526   0.010  0.00  0.00    +0.005 C 
ATOM     32  C   UNL     1       0.002  -0.004   0.002  0.00  0.00    +0.015 C 
ENDBRANCH  30  32
ENDBRANCH  26  30
ENDBRANCH  20  27
ENDBRANCH   1  25
BRANCH  15  33
ATOM     33  C   UNL     1       6.584  -3.285   5.885  0.00  0.00    -0.024 A 
ATOM     34  C   UNL     1       6.358  -4.492   6.520  0.00  0.00    +0.009 A 
ATOM     35  C   UNL     1       7.394  -5.391   6.686  0.00  0.00    +0.046 A 
ATOM     36  C   UNL     1       8.662  -5.081   6.215  0.00  0.00    +0.120 A 
ATOM     37  C   UNL     1       8.885  -3.869   5.577  0.00  0.00    +0.046 A 
ATOM     38  C   UNL     1       7.845  -2.976   5.409  0.00  0.00    +0.009 A 
BRANCH  36  39
ATOM     39  O   UNL     1       9.682  -5.964   6.377  0.00  0.00    -0.495 OA
ATOM     40  C   UNL     1      10.960  -5.579   5.867  0.00  0.00    +0.277 C 
ENDBRANCH  36  39
ENDBRANCH  15  33
TORSDOF 6
