REMARK  Name = ZINC09507498
REMARK  10 active torsions:
REMARK  status: ('A' for Active; 'I' for Inactive)
REMARK    1  A    between atoms: C_1  and  C_2
REMARK    2  A    between atoms: C_2  and  C_4
REMARK    3  A    between atoms: C_2  and  S_20
REMARK    4  A    between atoms: N_6  and  C_7
REMARK    5  A    between atoms: C_10  and  S_13
REMARK    6  A    between atoms: S_13  and  N_16
REMARK    7  A    between atoms: N_16  and  C_17
REMARK    8  A    between atoms: C_17  and  C_18
REMARK    9  A    between atoms: C_17  and  C_19
REMARK   10  A    between atoms: S_20  and  C_21
REMARK                            x       y       z     vdW  Elec       q    Type
REMARK                         _______ _______ _______ _____ _____    ______ ____
ROOT
ATOM      1  C   UNL     1      -1.411  -0.527   0.013  0.00  0.00    +0.230 C 
ATOM      2  O   UNL     1      -1.935  -0.837   1.062  0.00  0.00    -0.274 OA
ATOM      3  N   UNL     1      -2.090  -0.657  -1.144  0.00  0.00    -0.285 N 
ATOM      4  H   UNL     1      -1.697  -0.348  -1.975  0.00  0.00    +0.155 HD
ENDROOT
BRANCH   3   5
ATOM      5  C   UNL     1      -3.363  -1.239  -1.147  0.00  0.00    +0.034 A 
ATOM      6  C   UNL     1      -3.765  -2.028  -2.216  0.00  0.00    +0.025 A 
ATOM      7  C   UNL     1      -5.022  -2.600  -2.216  0.00  0.00    +0.030 A 
ATOM      8  C   UNL     1      -5.880  -2.388  -1.152  0.00  0.00    +0.105 A 
ATOM      9  C   UNL     1      -5.482  -1.602  -0.086  0.00  0.00    +0.030 A 
ATOM     10  C   UNL     1      -4.224  -1.032  -0.077  0.00  0.00    +0.025 A 
BRANCH   8  11
ATOM     11  S   UNL     1      -7.482  -3.120  -1.155  0.00  0.00    +0.059 S 
ATOM     12  O   UNL     1      -8.294  -2.325  -0.301  0.00  0.00    -0.153 OA
ATOM     13  O   UNL     1      -7.816  -3.362  -2.515  0.00  0.00    -0.153 OA
BRANCH  11  14
ATOM     14  N   UNL     1      -7.345  -4.603  -0.431  0.00  0.00    -0.187 NA
ATOM     15  H   UNL     1      -7.506  -5.410  -0.944  0.00  0.00    +0.148 HD
BRANCH  14  16
ATOM     16  C   UNL     1      -6.980  -4.696   0.985  0.00  0.00    +0.070 C 
ATOM     17  C   UNL     1      -8.249  -4.806   1.833  0.00  0.00    +0.025 C 
ATOM     18  C   UNL     1      -6.109  -5.934   1.208  0.00  0.00    +0.025 C 
ENDBRANCH  14  16
ENDBRANCH  11  14
ENDBRANCH   8  11
ENDBRANCH   3   5
BRANCH   1  20
ATOM     19  C   UNL     1      -0.030   1.532   0.018  0.00  0.00    +0.029 C 
ATOM     20  C   UNL     1      -0.000   0.002   0.002  0.00  0.00    +0.137 C 
BRANCH  20  21
ATOM     21  S   UNL     1       0.882  -0.600   1.468  0.00  0.00    -0.073 S 
BRANCH  21  22
ATOM     22  C   UNL     1       2.533  -0.027   1.238  0.00  0.00    +0.196 A 
ATOM     23  N   UNL     1       2.953   0.671   0.226  0.00  0.00    -0.146 NA
ATOM     24  N   UNL     1       4.318   0.935   0.401  0.00  0.00    -0.243 N 
ATOM     25  H   UNL     1       4.889   1.437  -0.201  0.00  0.00    +0.192 HD
ATOM     26  C   UNL     1       4.697   0.352   1.582  0.00  0.00    +0.232 A 
ATOM     27  N   UNL     1       3.582  -0.243   2.105  0.00  0.00    -0.255 N 
ATOM     28  C   UNL     1       3.954  -0.831   3.305  0.00  0.00    +0.077 A 
ATOM     29  C   UNL     1       3.276  -1.564   4.266  0.00  0.00    +0.028 A 
ATOM     30  C   UNL     1       3.947  -2.023   5.381  0.00  0.00    +0.002 A 
ATOM     31  C   UNL     1       5.299  -1.756   5.547  0.00  0.00    +0.002 A 
ATOM     32  C   UNL     1       5.989  -1.030   4.603  0.00  0.00    +0.030 A 
ATOM     33  C   UNL     1       5.323  -0.558   3.468  0.00  0.00    +0.092 A 
ATOM     34  N   UNL     1       5.721   0.160   2.387  0.00  0.00    -0.211 NA
ENDBRANCH  21  22
ENDBRANCH  20  21
ENDBRANCH   1  20
TORSDOF 7
