REMARK  Name = ZINC08219457
REMARK  9 active torsions:
REMARK  status: ('A' for Active; 'I' for Inactive)
REMARK    1  A    between atoms: C_1  and  C_2
REMARK    2  A    between atoms: C_2  and  C_3
REMARK    3  A    between atoms: C_2  and  C_4
REMARK    4  A    between atoms: C_2  and  N_5
REMARK    5  A    between atoms: C_7  and  C_12
REMARK    6  A    between atoms: N_14  and  C_15
REMARK    7  A    between atoms: C_18  and  S_21
REMARK    8  A    between atoms: S_21  and  N_24
REMARK    9  A    between atoms: N_24  and  C_25
REMARK                            x       y       z     vdW  Elec       q    Type
REMARK                         _______ _______ _______ _____ _____    ______ ____
ROOT
ATOM      1  C   UNL     1       0.236  -0.646  -3.994  0.00  0.00    +0.034 A 
ATOM      2  C   UNL     1      -1.005  -1.070  -4.453  0.00  0.00    +0.025 A 
ATOM      3  C   UNL     1      -1.084  -1.924  -5.535  0.00  0.00    +0.030 A 
ATOM      4  C   UNL     1       0.071  -2.364  -6.156  0.00  0.00    +0.105 A 
ATOM      5  C   UNL     1       1.307  -1.947  -5.699  0.00  0.00    +0.030 A 
ATOM      6  C   UNL     1       1.393  -1.090  -4.620  0.00  0.00    +0.025 A 
ENDROOT
BRANCH   1   9
ATOM      7  C   UNL     1       1.289   1.157  -2.854  0.00  0.00    +0.222 C 
ATOM      8  O   UNL     1       2.139   1.192  -3.718  0.00  0.00    -0.275 OA
ATOM      9  N   UNL     1       0.319   0.223  -2.900  0.00  0.00    -0.285 N 
ATOM     10  H   UNL     1      -0.321   0.152  -2.175  0.00  0.00    +0.155 HD
BRANCH   7  13
ATOM     11  N   UNL     1       1.854   4.481  -1.459  0.00  0.00    -0.296 N 
ATOM     12  C   UNL     1       2.415   3.221  -1.961  0.00  0.00    +0.121 C 
ATOM     13  C   UNL     1       1.317   2.159  -1.729  0.00  0.00    +0.101 C 
ATOM     14  C   UNL     1       0.036   3.026  -1.728  0.00  0.00    +0.110 C 
ATOM     15  C   UNL     1       0.516   4.402  -1.323  0.00  0.00    +0.217 C 
ATOM     16  O   UNL     1      -0.200   5.300  -0.933  0.00  0.00    -0.276 OA
BRANCH  11  18
ATOM     17  C   UNL     1       3.381   6.141  -2.404  0.00  0.00    +0.031 C 
ATOM     18  C   UNL     1       2.647   5.672  -1.146  0.00  0.00    +0.029 C 
ATOM     19  C   UNL     1       1.722   6.785  -0.650  0.00  0.00    +0.031 C 
ATOM     20  C   UNL     1       3.667   5.333  -0.057  0.00  0.00    +0.031 C 
ENDBRANCH  11  18
ENDBRANCH   7  13
ENDBRANCH   1   9
BRANCH   4  21
ATOM     21  S   UNL     1      -0.034  -3.458  -7.534  0.00  0.00    +0.059 S 
ATOM     22  O   UNL     1      -1.320  -3.267  -8.107  0.00  0.00    -0.153 OA
ATOM     23  O   UNL     1       1.165  -3.291  -8.278  0.00  0.00    -0.153 OA
BRANCH  21  24
ATOM     24  N   UNL     1      -0.008  -5.003  -6.935  0.00  0.00    -0.187 NA
ATOM     25  H   UNL     1       0.735  -5.590  -7.142  0.00  0.00    +0.148 HD
BRANCH  24  26
ATOM     26  C   UNL     1      -1.107  -5.481  -6.093  0.00  0.00    +0.077 C 
ATOM     27  C   UNL     1      -0.740  -5.294  -4.620  0.00  0.00    +0.020 C 
ATOM     28  C   UNL     1      -1.888  -5.793  -3.741  0.00  0.00    +0.002 C 
ATOM     29  C   UNL     1      -2.137  -7.277  -4.020  0.00  0.00    +0.000 C 
ATOM     30  C   UNL     1      -2.504  -7.463  -5.494  0.00  0.00    +0.002 C 
ATOM     31  C   UNL     1      -1.356  -6.964  -6.373  0.00  0.00    +0.020 C 
ENDBRANCH  24  26
ENDBRANCH  21  24
ENDBRANCH   4  21
TORSDOF 6
