REMARK  Name = ZINC05363173
REMARK  11 active torsions:
REMARK  status: ('A' for Active; 'I' for Inactive)
REMARK    1  A    between atoms: C_1  and  C_2
REMARK    2  A    between atoms: C_8  and  N_10
REMARK    3  A    between atoms: C_11  and  C_13
REMARK    4  A    between atoms: C_13  and  C_15
REMARK    5  A    between atoms: C_13  and  O_16
REMARK    6  A    between atoms: O_16  and  C_17
REMARK    7  A    between atoms: C_17  and  C_19
REMARK    8  A    between atoms: C_22  and  N_28
REMARK    9  A    between atoms: C_23  and  N_25
REMARK   10  A    between atoms: N_28  and  C_29
REMARK   11  A    between atoms: N_28  and  C_30
REMARK                            x       y       z     vdW  Elec       q    Type
REMARK                         _______ _______ _______ _____ _____    ______ ____
ROOT
ATOM      1  O   UNL     1       0.002  -0.004   0.002  0.00  0.00    -0.449 OA
ENDROOT
BRANCH   1   2
ATOM      2  C   UNL     1       1.305  -0.646  -0.014  0.00  0.00    +0.259 C 
ATOM      3  C   UNL     1       1.748  -0.863  -1.462  0.00  0.00    +0.062 C 
BRANCH   2   5
ATOM      4  N   UNL     1       2.333  -2.707   0.888  0.00  0.00    -0.309 N 
ATOM      5  C   UNL     1       1.218  -1.975   0.690  0.00  0.00    +0.254 C 
ATOM      6  O   UNL     1       0.146  -2.387   1.079  0.00  0.00    -0.272 OA
ATOM      7  H   UNL     1       3.191  -2.377   0.577  0.00  0.00    +0.149 HD
BRANCH   4  14
ATOM      8  C   UNL     1       3.959  -3.235   3.226  0.00  0.00    +0.009 C 
ATOM      9  C   UNL     1       3.599  -4.325   2.214  0.00  0.00    +0.006 C 
ATOM     10  C   UNL     1       4.677  -4.391   1.131  0.00  0.00    +0.005 C 
ATOM     11  C   UNL     1       4.317  -5.481   0.119  0.00  0.00    +0.000 C 
ATOM     12  C   UNL     1       2.967  -5.155  -0.523  0.00  0.00    +0.002 C 
ATOM     13  C   UNL     1       1.889  -5.090   0.561  0.00  0.00    +0.022 C 
ATOM     14  C   UNL     1       2.249  -3.999   1.572  0.00  0.00    +0.076 C 
ENDBRANCH   4  14
ENDBRANCH   2   5
ENDBRANCH   1   2
BRANCH   1  15
ATOM     15  C   UNL     1      -0.016   1.343   0.009  0.00  0.00    +0.340 C 
ATOM     16  O   UNL     1       1.028   1.965   0.003  0.00  0.00    -0.245 OA
BRANCH  15  17
ATOM     17  C   UNL     1      -1.302   2.063   0.019  0.00  0.00    +0.061 A 
ATOM     18  C   UNL     1      -2.505   1.349   0.015  0.00  0.00    +0.017 A 
ATOM     19  C   UNL     1      -3.697   2.016   0.030  0.00  0.00    +0.026 A 
ATOM     20  C   UNL     1      -3.720   3.408   0.037  0.00  0.00    +0.060 A 
ATOM     21  C   UNL     1      -2.528   4.128   0.036  0.00  0.00    +0.148 A 
ATOM     22  C   UNL     1      -1.323   3.461   0.027  0.00  0.00    +0.049 A 
BRANCH  21  23
ATOM     23  N   UNL     1      -2.555   5.607   0.044  0.00  0.00    +0.058 N 
ATOM     24  O   UNL     1      -1.512   6.236   0.042  0.00  0.00    -0.126 OA
ATOM     25  O   UNL     1      -3.622   6.196   0.051  0.00  0.00    -0.126 OA
ENDBRANCH  21  23
BRANCH  20  26
ATOM     26  N   UNL     1      -4.936   4.081   0.046  0.00  0.00    -0.334 N 
ATOM     27  C   UNL     1      -5.734   3.743  -1.140  0.00  0.00    +0.129 C 
ATOM     28  C   UNL     1      -5.683   3.803   1.280  0.00  0.00    +0.129 C 
ENDBRANCH  20  26
ENDBRANCH  15  17
ENDBRANCH   1  15
TORSDOF 7
