REMARK  Name = ZINC17254061
REMARK  6 active torsions:
REMARK  status: ('A' for Active; 'I' for Inactive)
REMARK    1  A    between atoms: C_1  and  O_2
REMARK    2  A    between atoms: O_2  and  P_3
REMARK    3  A    between atoms: P_3  and  C_5
REMARK    4  A    between atoms: C_5  and  C_7
REMARK    5  A    between atoms: C_5  and  N_30
REMARK    6  A    between atoms: C_7  and  C_8
REMARK                            x       y       z     vdW  Elec       q    Type
REMARK                         _______ _______ _______ _____ _____    ______ ____
ROOT
ATOM      1  C   UNL     1      -2.369   1.784  -1.393  0.00  0.00    +0.033 C 
ENDROOT
BRANCH   1   2
ATOM      2  C   UNL     1      -2.455   0.281  -1.337  0.00  0.00    -0.023 A 
ATOM      3  C   UNL     1      -2.636  -0.548  -2.377  0.00  0.00    +0.087 A 
ATOM      4  N   UNL     1      -2.660  -1.845  -1.941  0.00  0.00    -0.360 N 
ATOM      5  H   UNL     1      -2.779  -2.622  -2.510  0.00  0.00    +0.165 HD
ATOM      6  C   UNL     1      -2.492  -1.883  -0.575  0.00  0.00    +0.047 A 
ATOM      7  C   UNL     1      -2.349  -0.553  -0.137  0.00  0.00    +0.003 A 
ATOM      8  C   UNL     1      -2.168  -0.283   1.220  0.00  0.00    +0.010 A 
ATOM      9  C   UNL     1      -2.118  -1.313   2.116  0.00  0.00    +0.001 A 
ATOM     10  C   UNL     1      -2.252  -2.627   1.689  0.00  0.00    +0.002 A 
ATOM     11  C   UNL     1      -2.438  -2.916   0.354  0.00  0.00    +0.026 A 
ENDBRANCH   1   2
BRANCH   1  12
ATOM     12  C   UNL     1      -0.901   2.210  -1.466  0.00  0.00    +0.049 C 
BRANCH  12  15
ATOM     13  H   UNL     1      -1.244   4.030  -2.364  0.00  0.00    -0.089 HD
ATOM     14  H   UNL     1      -1.235   4.092  -0.702  0.00  0.00    -0.089 HD
ATOM     15  N   UNL     1      -0.793   3.678  -1.521  0.00  0.00    +0.388 N 
ATOM     16  H   UNL     1       0.199   3.943  -1.536  0.00  0.00    -0.089 HD
ENDBRANCH  12  15
BRANCH  12  17
ATOM     17  P   UNL     1      -0.020   1.606   0.011  0.00  0.00    +0.347 P 
ATOM     18  O   UNL     1      -0.713   2.083   1.228  0.00  0.00    -0.258 OA
ATOM     19  O   UNL     1       1.491   2.163  -0.001  0.00  0.00    -0.142 OA
BRANCH  17  21
ATOM     20  C   UNL     1       0.529  -0.781   1.079  0.00  0.00    +0.204 C 
ATOM     21  O   UNL     1       0.002  -0.004   0.002  0.00  0.00    -0.311 OA
ENDBRANCH  17  21
ENDBRANCH  12  17
ENDBRANCH   1  12
TORSDOF 5
