REMARK  Name = ZINC15621011
REMARK  12 active torsions:
REMARK  status: ('A' for Active; 'I' for Inactive)
REMARK    1  A    between atoms: C_1  and  C_2
REMARK    2  A    between atoms: C_5  and  N_8
REMARK    3  A    between atoms: N_8  and  S_9
REMARK    4  A    between atoms: S_9  and  C_12
REMARK    5  A    between atoms: C_15  and  C_34
REMARK    6  A    between atoms: C_16  and  C_18
REMARK    7  A    between atoms: N_20  and  C_21
REMARK    8  A    between atoms: C_21  and  C_22
REMARK    9  A    between atoms: N_24  and  C_25
REMARK   10  A    between atoms: C_26  and  C_33
REMARK   11  A    between atoms: C_28  and  C_32
REMARK   12  A    between atoms: C_30  and  C_31
REMARK                            x       y       z     vdW  Elec       q    Type
REMARK                         _______ _______ _______ _____ _____    ______ ____
ROOT
ATOM      1  C   UNL     1       1.690   7.288  -0.250  0.00  0.00    +0.109 A 
ATOM      2  C   UNL     1       2.483   7.189   0.880  0.00  0.00    +0.029 A 
ATOM      3  C   UNL     1       3.768   6.683   0.788  0.00  0.00    +0.006 A 
ATOM      4  C   UNL     1       4.271   6.286  -0.433  0.00  0.00    -0.038 A 
ATOM      5  C   UNL     1       3.478   6.389  -1.577  0.00  0.00    +0.041 A 
ATOM      6  C   UNL     1       2.181   6.894  -1.477  0.00  0.00    +0.042 A 
ATOM      7  C   UNL     1       5.673   5.742  -0.532  0.00  0.00    +0.044 C 
ENDROOT
BRANCH   5   8
ATOM      8  C   UNL     1       4.010   5.964  -2.890  0.00  0.00    +0.245 C 
ATOM      9  O   UNL     1       5.170   5.616  -2.992  0.00  0.00    -0.270 OA
ATOM     10  N   UNL     1       3.209   5.962  -3.974  0.00  0.00    -0.303 N 
ATOM     11  H   UNL     1       2.283   6.240  -3.892  0.00  0.00    +0.150 HD
BRANCH  10  12
ATOM     12  C   UNL     1       3.736   5.541  -5.274  0.00  0.00    +0.200 C 
BRANCH  12  13
ATOM     13  C   UNL     1       2.646   5.630  -6.311  0.00  0.00    +0.234 C 
ATOM     14  O   UNL     1       1.538   6.009  -5.994  0.00  0.00    -0.274 OA
ATOM     15  N   UNL     1       2.902   5.290  -7.589  0.00  0.00    -0.284 N 
ATOM     16  H   UNL     1       3.774   4.942  -7.833  0.00  0.00    +0.155 HD
BRANCH  15  17
ATOM     17  C   UNL     1       1.911   5.439  -8.565  0.00  0.00    +0.039 A 
ATOM     18  C   UNL     1       0.692   4.788  -8.425  0.00  0.00    -0.029 A 
ATOM     19  C   UNL     1      -0.286   4.941  -9.388  0.00  0.00    +0.008 A 
ATOM     20  C   UNL     1      -0.049   5.733 -10.496  0.00  0.00    -0.050 A 
ATOM     21  C   UNL     1       1.165   6.379 -10.641  0.00  0.00    +0.008 A 
ATOM     22  C   UNL     1       2.145   6.234  -9.680  0.00  0.00    -0.029 A 
ATOM     23  C   UNL     1       3.468   6.939  -9.839  0.00  0.00    +0.045 C 
ATOM     24  C   UNL     1      -1.117   5.893 -11.547  0.00  0.00    +0.044 C 
ATOM     25  C   UNL     1       0.436   3.920  -7.220  0.00  0.00    +0.045 C 
ENDBRANCH  15  17
ENDBRANCH  12  13
ENDBRANCH  10  12
ENDBRANCH   5   8
BRANCH   1  26
ATOM     26  S   UNL     1       0.053   7.926  -0.121  0.00  0.00    +0.072 S 
ATOM     27  O   UNL     1      -0.330   8.330  -1.429  0.00  0.00    -0.150 OA
ATOM     28  O   UNL     1       0.051   8.821   0.983  0.00  0.00    -0.150 OA
BRANCH  26  29
ATOM     29  N   UNL     1      -0.934   6.663   0.292  0.00  0.00    -0.216 N 
ATOM     30  H   UNL     1      -1.638   6.380  -0.312  0.00  0.00    +0.174 HD
BRANCH  29  35
ATOM     31  C   UNL     1      -0.197   3.987   5.237  0.00  0.00    +0.044 C 
ATOM     32  C   UNL     1      -0.393   4.698   3.923  0.00  0.00    -0.050 A 
ATOM     33  C   UNL     1      -1.008   5.936   3.894  0.00  0.00    +0.005 A 
ATOM     34  C   UNL     1      -1.189   6.591   2.691  0.00  0.00    +0.025 A 
ATOM     35  C   UNL     1      -0.752   6.004   1.510  0.00  0.00    +0.048 A 
ATOM     36  C   UNL     1      -0.140   4.758   1.543  0.00  0.00    +0.025 A 
ATOM     37  C   UNL     1       0.043   4.111   2.749  0.00  0.00    +0.005 A 
ENDBRANCH  29  35
ENDBRANCH  26  29
ENDBRANCH   1  26
TORSDOF 7
