REMARK  Name = ZINC67292928
REMARK  4 active torsions:
REMARK  status: ('A' for Active; 'I' for Inactive)
REMARK    1  A    between atoms: C_4  and  N_8
REMARK    2  A    between atoms: C_10  and  C_20
REMARK    3  A    between atoms: N_22  and  C_23
REMARK    4  A    between atoms: C_23  and  C_24
REMARK                            x       y       z     vdW  Elec       q    Type
REMARK                         _______ _______ _______ _____ _____    ______ ____
ROOT
ATOM      1  N   UNL     1       3.624  -0.609   0.025  0.00  0.00    -0.323 N 
ATOM      2  C   UNL     1       3.637  -1.922   0.102  0.00  0.00    +0.212 A 
ATOM      3  C   UNL     1       4.909  -2.668   0.172  0.00  0.00    +0.097 A 
ATOM      4  C   UNL     1       4.882  -3.906   0.799  0.00  0.00    +0.030 A 
ATOM      5  C   UNL     1       3.597  -4.362   1.335  0.00  0.00    +0.020 A 
ATOM      6  C   UNL     1       3.531  -5.456   2.205  0.00  0.00    +0.031 A 
ATOM      7  C   UNL     1       2.310  -5.862   2.697  0.00  0.00    +0.042 A 
ATOM      8  C   UNL     1       1.149  -5.191   2.335  0.00  0.00    +0.023 A 
ATOM      9  C   UNL     1       1.199  -4.111   1.477  0.00  0.00    +0.048 A 
ATOM     10  C   UNL     1       2.417  -3.687   0.968  0.00  0.00    +0.138 A 
ATOM     11  O   UNL     1       2.480  -2.632   0.124  0.00  0.00    -0.439 OA
ATOM     12 CL   UNL     1       2.222  -7.220   3.776  0.00  0.00    -0.084 Cl
ATOM     13  H   UNL     1       4.460  -0.117   0.003  0.00  0.00    +0.169 HD
ENDROOT
BRANCH   1  17
ATOM     14  C   UNL     1       0.021   1.425  -0.117  0.00  0.00    +0.041 A 
ATOM     15  C   UNL     1       0.986   1.798   0.802  0.00  0.00    +0.043 A 
ATOM     16  C   UNL     1       2.190   1.125   0.856  0.00  0.00    +0.147 A 
ATOM     17  C   UNL     1       2.433   0.062  -0.022  0.00  0.00    +0.080 A 
ATOM     18  C   UNL     1       1.456  -0.309  -0.946  0.00  0.00    +0.067 A 
ATOM     19  C   UNL     1       0.255   0.374  -0.989  0.00  0.00    +0.126 A 
ATOM     20  F   UNL     1      -0.693   0.017  -1.884  0.00  0.00    -0.205 F 
ATOM     21  F   UNL     1       3.131   1.491   1.753  0.00  0.00    -0.203 F 
ENDBRANCH   1  17
BRANCH   3  22
ATOM     22  C   UNL     1       6.152  -2.123  -0.399  0.00  0.00    +0.249 C 
ATOM     23  O   UNL     1       6.160  -1.009  -0.887  0.00  0.00    -0.270 OA
ATOM     24  N   UNL     1       7.282  -2.858  -0.381  0.00  0.00    -0.309 N 
ATOM     25  H   UNL     1       7.291  -3.721   0.063  0.00  0.00    +0.149 HD
BRANCH  24  26
ATOM     26  C   UNL     1       8.494  -2.354  -1.030  0.00  0.00    +0.136 C 
BRANCH  26  27
ATOM     27  C   UNL     1       9.623  -3.374  -0.864  0.00  0.00    +0.135 C 
ATOM     28  C   UNL     1      10.936  -2.800  -1.438  0.00  0.00    +0.035 C 
ATOM     29  C   UNL     1      11.566  -4.043  -2.124  0.00  0.00    +0.031 C 
ATOM     30  C   UNL     1      10.297  -4.781  -2.621  0.00  0.00    +0.160 C 
ATOM     31  O   UNL     1       9.312  -4.566  -1.595  0.00  0.00    -0.375 OA
ENDBRANCH  26  27
ENDBRANCH  24  26
ENDBRANCH   3  22
TORSDOF 4
