REMARK  Name = ZINC15016934
REMARK  4 active torsions:
REMARK  status: ('A' for Active; 'I' for Inactive)
REMARK    1  A    between atoms: C_9  and  C_11
REMARK    2  A    between atoms: C_12  and  C_13
REMARK    3  A    between atoms: C_16  and  C_18
REMARK    4  A    between atoms: C_21  and  N_24
REMARK                            x       y       z     vdW  Elec       q    Type
REMARK                         _______ _______ _______ _____ _____    ______ ____
ROOT
ATOM      1  C   UNL     1       0.002  -0.004   0.002  0.00  0.00    +0.029 C 
ATOM      2  C   UNL     1      -1.195  -0.717   0.010  0.00  0.00    +0.048 C 
ENDROOT
BRANCH   1  11
ATOM      3  C   UNL     1      -1.335   6.196   0.045  0.00  0.00    +0.001 A 
ATOM      4  C   UNL     1      -2.511   5.450   0.052  0.00  0.00    +0.002 A 
ATOM      5  C   UNL     1      -2.496   4.091   0.046  0.00  0.00    +0.026 A 
ATOM      6  C   UNL     1      -1.259   3.411   0.032  0.00  0.00    +0.051 A 
ATOM      7  C   UNL     1      -0.024   4.202   0.024  0.00  0.00    +0.045 A 
ATOM      8  C   UNL     1      -0.108   5.598   0.031  0.00  0.00    +0.014 A 
ATOM      9  C   UNL     1       1.218   3.525   0.009  0.00  0.00    +0.190 A 
ATOM     10  C   UNL     1       1.204   2.156   0.002  0.00  0.00    +0.077 A 
ATOM     11  C   UNL     1      -0.018   1.458   0.010  0.00  0.00    +0.043 A 
ATOM     12  N   UNL     1      -1.190   2.086   0.019  0.00  0.00    -0.354 N 
ATOM     13  O   UNL     1       2.387   4.212   0.002  0.00  0.00    -0.287 OA
ATOM     14  H   UNL     1      -2.112   1.487   0.016  0.00  0.00    +0.166 HD
ENDBRANCH   1  11
BRANCH   2  15
ATOM     15  C   UNL     1      -1.176  -2.106   0.002  0.00  0.00    +0.129 A 
ATOM     16  C   UNL     1      -2.348  -2.993   0.014  0.00  0.00    +0.050 A 
ATOM     17  C   UNL     1      -1.866  -4.263  -0.002  0.00  0.00    +0.050 A 
ATOM     18  C   UNL     1      -0.452  -4.182  -0.015  0.00  0.00    +0.136 A 
ATOM     19  O   UNL     1      -0.077  -2.892  -0.012  0.00  0.00    -0.455 OA
BRANCH  18  20
ATOM     20  C   UNL     1       0.431  -5.291  -0.029  0.00  0.00    +0.017 A 
ATOM     21  C   UNL     1      -0.079  -6.604  -0.026  0.00  0.00    +0.014 A 
ATOM     22  C   UNL     1       0.784  -7.669  -0.044  0.00  0.00    +0.033 A 
ATOM     23  C   UNL     1       2.155  -7.457  -0.057  0.00  0.00    +0.126 A 
ATOM     24  C   UNL     1       2.668  -6.168  -0.056  0.00  0.00    +0.033 A 
ATOM     25  C   UNL     1       1.824  -5.088  -0.042  0.00  0.00    +0.014 A 
BRANCH  23  26
ATOM     26  N   UNL     1       3.077  -8.615  -0.071  0.00  0.00    +0.056 N 
ATOM     27  O   UNL     1       4.379  -8.420  -0.083  0.00  0.00    -0.126 OA
ATOM     28  O   UNL     1       2.595  -9.841  -0.073  0.00  0.00    -0.126 OA
ENDBRANCH  23  26
ENDBRANCH  18  20
ENDBRANCH   2  15
TORSDOF 4
