REMARK  Name = ZINC22310348
REMARK  7 active torsions:
REMARK  status: ('A' for Active; 'I' for Inactive)
REMARK    1  A    between atoms: C_1  and  C_2
REMARK    2  A    between atoms: C_2  and  N_3
REMARK    3  A    between atoms: C_7  and  S_22
REMARK    4  A    between atoms: C_11  and  S_12
REMARK    5  A    between atoms: S_12  and  C_13
REMARK    6  A    between atoms: C_13  and  C_14
REMARK    7  A    between atoms: S_22  and  N_25
REMARK                            x       y       z     vdW  Elec       q    Type
REMARK                         _______ _______ _______ _____ _____    ______ ____
ROOT
ATOM      1  N   UNL     1      -2.103   1.072   1.277  0.00  0.00    -0.319 N 
ATOM      2  C   UNL     1      -3.215   1.700   0.738  0.00  0.00    +0.070 A 
ATOM      3  C   UNL     1      -3.412   2.898   0.069  0.00  0.00    +0.030 A 
ATOM      4  C   UNL     1      -4.678   3.248  -0.353  0.00  0.00    +0.030 A 
ATOM      5  C   UNL     1      -5.756   2.410  -0.112  0.00  0.00    +0.107 A 
ATOM      6  C   UNL     1      -5.577   1.212   0.544  0.00  0.00    +0.058 A 
ATOM      7  C   UNL     1      -4.303   0.845   0.982  0.00  0.00    +0.092 A 
ATOM      8  N   UNL     1      -3.821  -0.236   1.650  0.00  0.00    -0.222 NA
ATOM      9  C   UNL     1      -2.529  -0.105   1.825  0.00  0.00    +0.170 A 
ENDROOT
BRANCH   5  10
ATOM     10  S   UNL     1      -7.365   2.875  -0.659  0.00  0.00    +0.056 S 
ATOM     11  O   UNL     1      -8.291   2.181   0.165  0.00  0.00    -0.153 OA
ATOM     12  O   UNL     1      -7.361   4.292  -0.774  0.00  0.00    -0.153 OA
BRANCH  10  13
ATOM     13  N   UNL     1      -7.554   2.276  -2.191  0.00  0.00    -0.204 NA
ATOM     14  H   UNL     1      -8.550   2.546  -2.571  0.00  0.00    +0.144 HD
ATOM     15  H   UNL     1      -7.453   1.181  -2.172  0.00  0.00    +0.144 HD
ENDBRANCH  10  13
ENDBRANCH   5  10
BRANCH   1  17
ATOM     16  C   UNL     1      -0.013   1.086   0.008  0.00  0.00    +0.027 C 
ATOM     17  C   UNL     1      -0.729   1.579   1.267  0.00  0.00    +0.121 C 
ENDBRANCH   1  17
BRANCH   9  18
ATOM     18  S   UNL     1      -1.494  -1.273   2.644  0.00  0.00    -0.083 S 
BRANCH  18  19
ATOM     19  C   UNL     1      -2.723  -2.528   3.083  0.00  0.00    +0.112 C 
BRANCH  19  20
ATOM     20  C   UNL     1      -2.047  -3.659   3.814  0.00  0.00    -0.036 A 
ATOM     21  C   UNL     1      -1.546  -4.736   3.108  0.00  0.00    +0.006 A 
ATOM     22  C   UNL     1      -0.920  -5.771   3.777  0.00  0.00    +0.022 A 
ATOM     23  C   UNL     1      -0.806  -5.735   5.155  0.00  0.00    +0.059 A 
ATOM     24  C   UNL     1      -1.314  -4.659   5.863  0.00  0.00    +0.060 A 
ATOM     25  C   UNL     1      -1.934  -3.621   5.191  0.00  0.00    +0.026 A 
ATOM     26 CL   UNL     1      -1.171  -4.611   7.593  0.00  0.00    -0.082 Cl
ATOM     27 CL   UNL     1      -0.027  -7.038   5.997  0.00  0.00    -0.082 Cl
ENDBRANCH  19  20
ENDBRANCH  18  19
ENDBRANCH   9  18
TORSDOF 6
