REMARK  Name = ZINC03410792
REMARK  6 active torsions:
REMARK  status: ('A' for Active; 'I' for Inactive)
REMARK    1  A    between atoms: C_1  and  C_2
REMARK    2  A    between atoms: C_5  and  N_8
REMARK    3  A    between atoms: C_18  and  S_19
REMARK    4  A    between atoms: S_19  and  C_20
REMARK    5  A    between atoms: C_20  and  C_22
REMARK    6  A    between atoms: C_20  and  C_23
REMARK                            x       y       z     vdW  Elec       q    Type
REMARK                         _______ _______ _______ _____ _____    ______ ____
ROOT
ATOM      1  N   UNL     1       3.514  -5.307  -1.092  0.00  0.00    -0.255 N 
ATOM      2  C   UNL     1       3.132  -6.506  -1.589  0.00  0.00    +0.267 A 
ATOM      3  O   UNL     1       3.842  -7.123  -2.362  0.00  0.00    -0.267 OA
ATOM      4  C   UNL     1       1.830  -7.035  -1.164  0.00  0.00    +0.065 A 
ATOM      5  C   UNL     1       1.349  -8.261  -1.622  0.00  0.00    +0.017 A 
ATOM      6  C   UNL     1       0.131  -8.712  -1.197  0.00  0.00    +0.021 A 
ATOM      7  C   UNL     1      -0.636  -7.962  -0.313  0.00  0.00    +0.043 A 
ATOM      8  C   UNL     1      -0.185  -6.746   0.155  0.00  0.00    +0.048 A 
ATOM      9  C   UNL     1       1.057  -6.264  -0.265  0.00  0.00    +0.080 A 
ATOM     10  N   UNL     1       1.542  -5.078   0.173  0.00  0.00    -0.223 NA
ATOM     11  C   UNL     1       2.705  -4.625  -0.225  0.00  0.00    +0.177 A 
ATOM     12 CL   UNL     1      -2.179  -8.562   0.208  0.00  0.00    -0.083 Cl
ENDROOT
BRANCH   1  17
ATOM     13  C   UNL     1       8.512  -3.093  -2.616  0.00  0.00    +0.044 C 
ATOM     14  C   UNL     1       7.184  -3.680  -2.211  0.00  0.00    -0.050 A 
ATOM     15  C   UNL     1       7.103  -4.503  -1.102  0.00  0.00    +0.005 A 
ATOM     16  C   UNL     1       5.888  -5.044  -0.729  0.00  0.00    +0.026 A 
ATOM     17  C   UNL     1       4.747  -4.760  -1.468  0.00  0.00    +0.052 A 
ATOM     18  C   UNL     1       4.833  -3.937  -2.583  0.00  0.00    +0.026 A 
ATOM     19  C   UNL     1       6.050  -3.396  -2.948  0.00  0.00    +0.005 A 
ENDBRANCH   1  17
BRANCH  11  20
ATOM     20  S   UNL     1       3.256  -3.069   0.391  0.00  0.00    -0.075 S 
BRANCH  20  21
ATOM     21  C   UNL     1       1.853  -2.635   1.449  0.00  0.00    +0.137 C 
ATOM     22  C   UNL     1       1.755  -3.636   2.602  0.00  0.00    +0.029 C 
BRANCH  21  23
ATOM     23  C   UNL     1       2.052  -1.248   2.004  0.00  0.00    +0.233 C 
ATOM     24  O   UNL     1       3.161  -0.758   2.027  0.00  0.00    -0.274 OA
ATOM     25  N   UNL     1       0.998  -0.552   2.473  0.00  0.00    -0.239 N 
ATOM     26  C   UNL     1       1.176   0.688   2.969  0.00  0.00    +0.303 C 
ATOM     27  O   UNL     1       2.287   1.179   2.993  0.00  0.00    -0.253 OA
ATOM     28  N   UNL     1       0.121   1.386   3.434  0.00  0.00    -0.313 N 
ATOM     29  H   UNL     1       0.111  -0.944   2.454  0.00  0.00    +0.159 HD
ATOM     30  H   UNL     1      -0.767   0.996   3.411  0.00  0.00    +0.146 HD
ATOM     31  H   UNL     1       0.249   2.279   3.791  0.00  0.00    +0.146 HD
ENDBRANCH  21  23
ENDBRANCH  20  21
ENDBRANCH  11  20
TORSDOF 4
