REMARK  Name = ZINC36332909
REMARK  11 active torsions:
REMARK  status: ('A' for Active; 'I' for Inactive)
REMARK    1  A    between atoms: C_1  and  C_2
REMARK    2  A    between atoms: C_7  and  N_12
REMARK    3  A    between atoms: C_9  and  C_11
REMARK    4  A    between atoms: C_13  and  C_15
REMARK    5  A    between atoms: C_15  and  C_17
REMARK    6  A    between atoms: C_15  and  N_20
REMARK    7  A    between atoms: C_17  and  C_18
REMARK    8  A    between atoms: C_17  and  C_19
REMARK    9  A    between atoms: C_21  and  C_23
REMARK   10  A    between atoms: C_27  and  S_29
REMARK   11  A    between atoms: S_29  and  N_32
REMARK                            x       y       z     vdW  Elec       q    Type
REMARK                         _______ _______ _______ _____ _____    ______ ____
ROOT
ATOM      1  N   UNL     1      -2.394  -5.637   2.128  0.00  0.00    -0.300 N 
ATOM      2  C   UNL     1      -3.573  -6.107   2.583  0.00  0.00    +0.245 C 
ATOM      3  O   UNL     1      -4.572  -5.420   2.503  0.00  0.00    -0.270 OA
ATOM      4  H   UNL     1      -1.596  -6.185   2.192  0.00  0.00    +0.150 HD
ENDROOT
BRANCH   2   5
ATOM      5  C   UNL     1      -3.649  -7.458   3.180  0.00  0.00    +0.039 A 
ATOM      6  C   UNL     1      -2.502  -8.246   3.279  0.00  0.00    +0.013 A 
ATOM      7  C   UNL     1      -2.580  -9.505   3.837  0.00  0.00    +0.003 A 
ATOM      8  C   UNL     1      -3.793  -9.987   4.298  0.00  0.00    +0.028 A 
ATOM      9  C   UNL     1      -4.934  -9.211   4.203  0.00  0.00    +0.106 A 
ATOM     10  C   UNL     1      -4.868  -7.947   3.652  0.00  0.00    +0.041 A 
BRANCH   9  11
ATOM     11  S   UNL     1      -6.473  -9.834   4.792  0.00  0.00    +0.061 S 
ATOM     12  O   UNL     1      -7.490  -9.131   4.093  0.00  0.00    -0.153 OA
ATOM     13  O   UNL     1      -6.372 -11.251   4.770  0.00  0.00    -0.153 OA
BRANCH  11  14
ATOM     14  N   UNL     1      -6.602  -9.394   6.383  0.00  0.00    -0.172 NA
ATOM     15  C   UNL     1      -6.089 -10.264   7.454  0.00  0.00    +0.137 C 
ATOM     16  C   UNL     1      -5.201  -9.422   8.377  0.00  0.00    +0.177 C 
ATOM     17  O   UNL     1      -5.922  -8.260   8.794  0.00  0.00    -0.377 OA
ATOM     18  C   UNL     1      -6.288  -7.384   7.725  0.00  0.00    +0.177 C 
ATOM     19  C   UNL     1      -7.227  -8.119   6.769  0.00  0.00    +0.137 C 
ENDBRANCH  11  14
ENDBRANCH   9  11
ENDBRANCH   2   5
BRANCH   1  20
ATOM     20  C   UNL     1      -2.318  -4.299   1.537  0.00  0.00    +0.162 C 
BRANCH  20  22
ATOM     21  N   UNL     1      -0.704  -2.442   1.792  0.00  0.00    -0.311 N 
ATOM     22  C   UNL     1      -0.914  -3.768   1.674  0.00  0.00    +0.234 C 
ATOM     23  O   UNL     1       0.026  -4.534   1.677  0.00  0.00    -0.274 OA
ATOM     24  H   UNL     1      -1.457  -1.837   1.870  0.00  0.00    +0.149 HD
BRANCH  21  30
ATOM     25  C   UNL     1      -0.181   1.673   2.915  0.00  0.00    +0.008 C 
ATOM     26  C   UNL     1      -0.231   0.402   2.064  0.00  0.00    -0.009 C 
ATOM     27  C   UNL     1       0.201   0.730   0.633  0.00  0.00    +0.003 C 
ATOM     28  C   UNL     1       0.151  -0.541  -0.218  0.00  0.00    +0.002 C 
ATOM     29  C   UNL     1       1.096  -1.589   0.373  0.00  0.00    +0.022 C 
ATOM     30  C   UNL     1       0.663  -1.916   1.804  0.00  0.00    +0.076 C 
ATOM     31  C   UNL     1       0.714  -0.646   2.655  0.00  0.00    +0.009 C 
ATOM     32  C   UNL     1       0.281  -0.973   4.086  0.00  0.00    +0.009 C 
ENDBRANCH  21  30
ENDBRANCH  20  22
BRANCH  20  33
ATOM     33  C   UNL     1      -2.693  -4.374   0.056  0.00  0.00    +0.012 C 
ATOM     34  C   UNL     1      -4.066  -5.033  -0.090  0.00  0.00    +0.009 C 
ATOM     35  C   UNL     1      -2.740  -2.961  -0.530  0.00  0.00    +0.009 C 
ENDBRANCH  20  33
ENDBRANCH   1  20
TORSDOF 7
