REMARK  Name = ZINC38547651
REMARK  9 active torsions:
REMARK  status: ('A' for Active; 'I' for Inactive)
REMARK    1  A    between atoms: C_1  and  C_2
REMARK    2  A    between atoms: C_6  and  N_8
REMARK    3  A    between atoms: N_8  and  C_9
REMARK    4  A    between atoms: C_9  and  C_11
REMARK    5  A    between atoms: C_9  and  C_18
REMARK    6  A    between atoms: C_19  and  C_32
REMARK    7  A    between atoms: C_20  and  C_31
REMARK    8  A    between atoms: C_22  and  N_23
REMARK    9  A    between atoms: C_24  and  C_26
REMARK                            x       y       z     vdW  Elec       q    Type
REMARK                         _______ _______ _______ _____ _____    ______ ____
ROOT
ATOM      1  C   UNL     1       0.384  -4.465   2.335  0.00  0.00    +0.135 C 
ENDROOT
BRANCH   1   2
ATOM      2  C   UNL     1       1.707  -5.170   2.489  0.00  0.00    -0.023 A 
ATOM      3  C   UNL     1       2.716  -4.589   3.235  0.00  0.00    +0.007 A 
ATOM      4  C   UNL     1       3.930  -5.236   3.377  0.00  0.00    +0.015 A 
ATOM      5  C   UNL     1       4.134  -6.463   2.773  0.00  0.00    +0.018 A 
ATOM      6  C   UNL     1       3.124  -7.043   2.027  0.00  0.00    +0.015 A 
ATOM      7  C   UNL     1       1.909  -6.399   1.890  0.00  0.00    +0.007 A 
ATOM      8 BR   UNL     1       5.794  -7.347   2.966  0.00  0.00    -0.050 Br
ENDBRANCH   1   2
BRANCH   1   9
ATOM      9  C   UNL     1      -0.542  -4.886   3.446  0.00  0.00    +0.009 A 
ATOM     10  C   UNL     1      -1.609  -5.729   3.193  0.00  0.00    -0.033 A 
ATOM     11  C   UNL     1      -2.422  -6.088   4.215  0.00  0.00    -0.008 A 
ATOM     12  S   UNL     1      -1.688  -5.227   5.596  0.00  0.00    -0.078 S 
ATOM     13  C   UNL     1      -0.341  -4.448   4.721  0.00  0.00    +0.078 A 
ATOM     14  C   UNL     1      -3.634  -6.984   4.193  0.00  0.00    +0.052 C 
ATOM     15  C   UNL     1      -1.864  -6.240   1.798  0.00  0.00    +0.045 C 
BRANCH  13  16
ATOM     16  N   UNL     1       0.658  -3.606   5.214  0.00  0.00    -0.273 N 
ATOM     17  C   UNL     1       0.755  -3.378   6.539  0.00  0.00    +0.284 C 
ATOM     18  O   UNL     1      -0.029  -3.906   7.306  0.00  0.00    -0.266 OA
ATOM     19  H   UNL     1       1.283  -3.185   4.603  0.00  0.00    +0.156 HD
BRANCH  17  20
ATOM     20  C   UNL     1       1.804  -2.494   7.056  0.00  0.00    +0.189 A 
ATOM     21  C   UNL     1       2.016  -2.184   8.369  0.00  0.00    +0.054 A 
ATOM     22  C   UNL     1       3.116  -1.313   8.405  0.00  0.00    +0.042 A 
ATOM     23  C   UNL     1       3.522  -1.133   7.129  0.00  0.00    +0.196 A 
ATOM     24  O   UNL     1       2.732  -1.850   6.319  0.00  0.00    -0.458 OA
ENDBRANCH  17  20
ENDBRANCH  13  16
ENDBRANCH   1   9
BRANCH   1  25
ATOM     25  N   UNL     1       0.592  -3.016   2.395  0.00  0.00    -0.320 N 
ATOM     26  H   UNL     1       0.308  -2.518   3.178  0.00  0.00    +0.148 HD
BRANCH  25  32
ATOM     27  C   UNL     1       2.139   1.109   0.523  0.00  0.00    +0.063 C 
ATOM     28  C   UNL     1       1.951  -0.381   0.405  0.00  0.00    +0.014 A 
ATOM     29  C   UNL     1       2.377  -1.034  -0.735  0.00  0.00    +0.021 A 
ATOM     30  C   UNL     1       2.201  -2.407  -0.838  0.00  0.00    +0.005 A 
ATOM     31  C   UNL     1       1.601  -3.077   0.213  0.00  0.00    +0.041 A 
ATOM     32  C   UNL     1       1.197  -2.356   1.332  0.00  0.00    +0.097 A 
ATOM     33  N   UNL     1       1.387  -1.047   1.395  0.00  0.00    -0.347 N 
ATOM     34  H   UNL     1       1.101  -0.565   2.187  0.00  0.00    +0.167 HD
ENDBRANCH  25  32
ENDBRANCH   1  25
TORSDOF 6
