REMARK  Name = ZINC63383707
REMARK  11 active torsions:
REMARK  status: ('A' for Active; 'I' for Inactive)
REMARK    1  A    between atoms: C_1  and  C_2
REMARK    2  A    between atoms: C_2  and  C_3
REMARK    3  A    between atoms: C_3  and  C_5
REMARK    4  A    between atoms: C_3  and  C_6
REMARK    5  A    between atoms: C_6  and  C_8
REMARK    6  A    between atoms: C_6  and  N_15
REMARK    7  A    between atoms: N_10  and  C_11
REMARK    8  A    between atoms: C_11  and  C_12
REMARK    9  A    between atoms: C_12  and  O_13
REMARK   10  A    between atoms: O_13  and  C_14
REMARK   11  A    between atoms: C_16  and  C_18
REMARK                            x       y       z     vdW  Elec       q    Type
REMARK                         _______ _______ _______ _____ _____    ______ ____
ROOT
ATOM      1  C   UNL     1      -1.704   3.532  -2.414  0.00  0.00    +0.167 C 
ATOM      2  C   UNL     1      -2.973   3.731  -3.266  0.00  0.00    +0.065 C 
ATOM      3  C   UNL     1      -2.593   3.465  -4.701  0.00  0.00    -0.034 C 
ATOM      4  C   UNL     1      -3.130   2.653  -5.606  0.00  0.00    -0.001 A 
ATOM      5  C   UNL     1      -4.332   1.803  -5.567  0.00  0.00    +0.010 A 
ATOM      6  C   UNL     1      -4.585   1.072  -6.684  0.00  0.00    +0.001 A 
ATOM      7  C   UNL     1      -3.774   1.101  -7.823  0.00  0.00    +0.002 A 
ATOM      8  C   UNL     1      -2.656   1.859  -7.949  0.00  0.00    +0.026 A 
ATOM      9  C   UNL     1      -2.290   2.677  -6.841  0.00  0.00    +0.043 A 
ATOM     10  N   UNL     1      -1.296   3.503  -6.698  0.00  0.00    -0.375 N 
ATOM     11  C   UNL     1      -1.411   4.142  -5.386  0.00  0.00    +0.131 C 
ATOM     12  C   UNL     1      -0.183   3.860  -4.511  0.00  0.00    +0.134 C 
ATOM     13  N   UNL     1      -0.569   4.154  -3.110  0.00  0.00    -0.276 N 
ATOM     14  C   UNL     1       0.271   5.078  -2.610  0.00  0.00    +0.248 C 
ATOM     15  O   UNL     1       0.265   5.475  -1.461  0.00  0.00    -0.270 OA
ATOM     16  C   UNL     1       1.196   5.534  -3.650  0.00  0.00    +0.042 A 
ATOM     17  C   UNL     1       0.934   4.793  -4.845  0.00  0.00    -0.013 A 
ATOM     18  C   UNL     1       1.644   4.996  -6.008  0.00  0.00    +0.006 A 
ATOM     19  C   UNL     1       2.646   5.962  -5.976  0.00  0.00    +0.000 A 
ATOM     20  C   UNL     1       2.922   6.686  -4.834  0.00  0.00    +0.001 A 
ATOM     21  C   UNL     1       2.201   6.504  -3.615  0.00  0.00    +0.013 A 
ATOM     22  H   UNL     1      -0.598   3.668  -7.350  0.00  0.00    +0.160 HD
ENDROOT
BRANCH   1  24
ATOM     23  N   UNL     1      -2.357   1.281  -1.624  0.00  0.00    -0.302 N 
ATOM     24  C   UNL     1      -1.441   2.059  -2.234  0.00  0.00    +0.235 C 
ATOM     25  O   UNL     1      -0.405   1.574  -2.638  0.00  0.00    -0.274 OA
ATOM     26  H   UNL     1      -3.216   1.652  -1.369  0.00  0.00    +0.150 HD
BRANCH  23  27
ATOM     27  C   UNL     1      -2.054  -0.126  -1.346  0.00  0.00    +0.162 C 
BRANCH  27  28
ATOM     28  C   UNL     1      -3.321  -0.938  -1.430  0.00  0.00    +0.234 C 
ATOM     29  O   UNL     1      -4.371  -0.397  -1.705  0.00  0.00    -0.274 OA
ATOM     30  N   UNL     1      -3.287  -2.265  -1.198  0.00  0.00    -0.312 N 
ATOM     31  H   UNL     1      -2.463  -2.686  -0.907  0.00  0.00    +0.149 HD
BRANCH  30  32
ATOM     32  C   UNL     1      -4.495  -3.072  -1.387  0.00  0.00    +0.132 C 
BRANCH  32  33
ATOM     33  C   UNL     1      -4.187  -4.535  -1.060  0.00  0.00    +0.178 C 
BRANCH  33  34
ATOM     34  O   UNL     1      -3.865  -4.655   0.327  0.00  0.00    -0.381 OA
ATOM     35  C   UNL     1      -3.559  -5.988   0.740  0.00  0.00    +0.194 C 
ENDBRANCH  33  34
ENDBRANCH  32  33
ENDBRANCH  30  32
ENDBRANCH  27  28
BRANCH  27  36
ATOM     36  C   UNL     1      -1.460  -0.252   0.058  0.00  0.00    +0.015 C 
ATOM     37  C   UNL     1      -0.092   0.433   0.096  0.00  0.00    +0.010 C 
BRANCH  36  39
ATOM     38  C   UNL     1      -3.686  -0.393   1.184  0.00  0.00    +0.004 C 
ATOM     39  C   UNL     1      -2.393   0.417   1.069  0.00  0.00    +0.002 C 
ENDBRANCH  36  39
ENDBRANCH  27  36
ENDBRANCH  23  27
ENDBRANCH   1  24
TORSDOF 8
