REMARK  Name = ZINC36494056
REMARK  10 active torsions:
REMARK  status: ('A' for Active; 'I' for Inactive)
REMARK    1  A    between atoms: C_4  and  C_7
REMARK    2  A    between atoms: C_7  and  O_8
REMARK    3  A    between atoms: O_8  and  C_9
REMARK    4  A    between atoms: C_15  and  C_17
REMARK    5  A    between atoms: N_19  and  C_20
REMARK    6  A    between atoms: N_19  and  C_26
REMARK    7  A    between atoms: C_20  and  C_21
REMARK    8  A    between atoms: C_26  and  C_28
REMARK    9  A    between atoms: C_26  and  C_33
REMARK   10  A    between atoms: N_35  and  C_36
REMARK                            x       y       z     vdW  Elec       q    Type
REMARK                         _______ _______ _______ _____ _____    ______ ____
ROOT
ATOM      1  C   UNL     1       7.768  -4.611   3.283  0.00  0.00    +0.238 C 
ATOM      2  O   UNL     1       6.562  -4.595   3.412  0.00  0.00    -0.274 OA
ATOM      3  N   UNL     1       8.321  -5.149   2.178  0.00  0.00    -0.275 N 
ENDROOT
BRANCH   1  10
ATOM      4  C   UNL     1       7.412  -1.859   4.585  0.00  0.00    +0.404 C 
ATOM      5  O   UNL     1       7.557  -1.615   3.404  0.00  0.00    -0.226 OA
ATOM      6  N   UNL     1       7.911  -2.998   5.105  0.00  0.00    -0.256 N 
ATOM      7  C   UNL     1       7.803  -3.419   6.513  0.00  0.00    +0.112 C 
ATOM      8  C   UNL     1       8.993  -4.387   6.730  0.00  0.00    +0.021 C 
ATOM      9  C   UNL     1       9.045  -5.128   5.368  0.00  0.00    +0.033 C 
ATOM     10  C   UNL     1       8.648  -4.029   4.359  0.00  0.00    +0.165 C 
BRANCH   4  11
ATOM     11  O   UNL     1       6.754  -0.990   5.376  0.00  0.00    -0.445 OA
BRANCH  11  12
ATOM     12  C   UNL     1       6.252   0.197   4.758  0.00  0.00    +0.269 C 
BRANCH  12  16
ATOM     13  C   UNL     1       4.261   2.592   7.681  0.00  0.00    +0.000 A 
ATOM     14  C   UNL     1       5.613   2.765   7.450  0.00  0.00    +0.000 A 
ATOM     15  C   UNL     1       6.257   1.990   6.505  0.00  0.00    +0.007 A 
ATOM     16  C   UNL     1       5.549   1.041   5.790  0.00  0.00    -0.010 A 
ATOM     17  C   UNL     1       4.198   0.868   6.021  0.00  0.00    +0.007 A 
ATOM     18  C   UNL     1       3.553   1.644   6.966  0.00  0.00    +0.000 A 
ENDBRANCH  12  16
ENDBRANCH  11  12
ENDBRANCH   4  11
ENDBRANCH   1  10
BRANCH   3  19
ATOM     19  C   UNL     1       9.778  -5.246   2.062  0.00  0.00    +0.183 C 
BRANCH  19  20
ATOM     20  C   UNL     1      10.306  -4.035   1.338  0.00  0.00    +0.122 A 
ATOM     21  C   UNL     1      10.584  -2.843   1.897  0.00  0.00    +0.046 A 
ATOM     22  C   UNL     1      11.052  -2.004   0.860  0.00  0.00    +0.041 A 
ATOM     23  C   UNL     1      11.033  -2.732  -0.270  0.00  0.00    +0.195 A 
ATOM     24  O   UNL     1      10.586  -3.964   0.026  0.00  0.00    -0.466 OA
ENDBRANCH  19  20
ENDBRANCH   3  19
BRANCH   3  25
ATOM     25  C   UNL     1       7.465  -5.636   1.094  0.00  0.00    +0.229 C 
BRANCH  25  26
ATOM     26  C   UNL     1       7.827  -7.062   0.770  0.00  0.00    +0.134 A 
ATOM     27  C   UNL     1       6.957  -8.053   0.503  0.00  0.00    +0.047 A 
ATOM     28  C   UNL     1       7.724  -9.215   0.257  0.00  0.00    +0.041 A 
ATOM     29  C   UNL     1       9.016  -8.865   0.388  0.00  0.00    +0.195 A 
ATOM     30  O   UNL     1       9.072  -7.558   0.693  0.00  0.00    -0.465 OA
ENDBRANCH  25  26
BRANCH  25  31
ATOM     31  C   UNL     1       7.665  -4.777  -0.129  0.00  0.00    +0.241 C 
ATOM     32  O   UNL     1       8.142  -3.667  -0.018  0.00  0.00    -0.273 OA
ATOM     33  N   UNL     1       7.314  -5.242  -1.344  0.00  0.00    -0.311 N 
ATOM     34  H   UNL     1       6.932  -6.129  -1.432  0.00  0.00    +0.149 HD
BRANCH  33  35
ATOM     35  C   UNL     1       7.508  -4.407  -2.532  0.00  0.00    +0.073 C 
ATOM     36  C   UNL     1       6.306  -3.476  -2.703  0.00  0.00    +0.022 C 
ATOM     37  C   UNL     1       6.510  -2.604  -3.944  0.00  0.00    +0.002 C 
ATOM     38  C   UNL     1       6.642  -3.497  -5.179  0.00  0.00    +0.000 C 
ATOM     39  C   UNL     1       7.844  -4.429  -5.008  0.00  0.00    +0.002 C 
ATOM     40  C   UNL     1       7.641  -5.300  -3.767  0.00  0.00    +0.022 C 
ENDBRANCH  33  35
ENDBRANCH  25  31
ENDBRANCH   3  25
TORSDOF 10
