REMARK  Name = ZINC06636064
REMARK  8 active torsions:
REMARK  status: ('A' for Active; 'I' for Inactive)
REMARK    1  A    between atoms: C_1  and  C_2
REMARK    2  A    between atoms: C_2  and  C_3
REMARK    3  A    between atoms: C_3  and  C_4
REMARK    4  A    between atoms: C_4  and  N_5
REMARK    5  A    between atoms: C_9  and  C_28
REMARK    6  A    between atoms: N_13  and  N_14
REMARK    7  A    between atoms: C_15  and  C_17
REMARK    8  A    between atoms: C_20  and  N_23
REMARK                            x       y       z     vdW  Elec       q    Type
REMARK                         _______ _______ _______ _____ _____    ______ ____
ROOT
ATOM      1  N   UNL     1       1.425  -2.500  -2.470  0.00  0.00    -0.266 N 
ATOM      2  C   UNL     1       0.792  -2.758  -3.681  0.00  0.00    +0.046 A 
ATOM      3  C   UNL     1      -0.540  -2.655  -4.068  0.00  0.00    +0.024 A 
ATOM      4  C   UNL     1      -0.915  -2.978  -5.356  0.00  0.00    +0.005 A 
ATOM      5  C   UNL     1       0.026  -3.408  -6.277  0.00  0.00    -0.050 A 
ATOM      6  C   UNL     1       1.353  -3.516  -5.912  0.00  0.00    +0.015 A 
ATOM      7  C   UNL     1       1.740  -3.192  -4.616  0.00  0.00    +0.029 A 
ATOM      8  C   UNL     1       3.045  -3.198  -3.917  0.00  0.00    +0.153 C 
ATOM      9  N   UNL     1       4.213  -3.536  -4.408  0.00  0.00    -0.174 NA
ATOM     10  C   UNL     1       2.746  -2.733  -2.547  0.00  0.00    +0.271 C 
ATOM     11  O   UNL     1       3.552  -2.590  -1.647  0.00  0.00    -0.268 OA
ATOM     12  C   UNL     1      -0.400  -3.758  -7.680  0.00  0.00    +0.044 C 
ENDROOT
BRANCH   9  13
ATOM     13  N   UNL     1       5.356  -3.482  -3.599  0.00  0.00    -0.202 N 
ATOM     14  C   UNL     1       6.556  -3.829  -4.103  0.00  0.00    +0.263 C 
ATOM     15  O   UNL     1       6.647  -4.190  -5.260  0.00  0.00    -0.268 OA
ATOM     16  H   UNL     1       5.283  -3.194  -2.675  0.00  0.00    +0.178 HD
BRANCH  14  17
ATOM     17  C   UNL     1       7.761  -3.772  -3.250  0.00  0.00    +0.038 A 
ATOM     18  C   UNL     1       7.658  -3.364  -1.919  0.00  0.00    +0.015 A 
ATOM     19  C   UNL     1       8.787  -3.313  -1.127  0.00  0.00    +0.033 A 
ATOM     20  C   UNL     1      10.019  -3.666  -1.650  0.00  0.00    +0.126 A 
ATOM     21  C   UNL     1      10.127  -4.071  -2.969  0.00  0.00    +0.033 A 
ATOM     22  C   UNL     1       9.006  -4.131  -3.770  0.00  0.00    +0.015 A 
BRANCH  20  23
ATOM     23  N   UNL     1      11.226  -3.608  -0.795  0.00  0.00    +0.056 N 
ATOM     24  O   UNL     1      11.134  -3.254   0.357  0.00  0.00    -0.126 OA
ATOM     25  O   UNL     1      12.303  -3.916  -1.249  0.00  0.00    -0.126 OA
ENDBRANCH  20  23
ENDBRANCH  14  17
ENDBRANCH   9  13
BRANCH   1  26
ATOM     26  C   UNL     1       0.739  -2.027  -1.265  0.00  0.00    +0.114 C 
BRANCH  26  27
ATOM     27  C   UNL     1       0.718  -0.497  -1.257  0.00  0.00    +0.019 C 
BRANCH  27  29
ATOM     28  C   UNL     1      -0.019   1.526   0.010  0.00  0.00    +0.004 C 
ATOM     29  C   UNL     1       0.002  -0.004   0.002  0.00  0.00    -0.002 C 
ENDBRANCH  27  29
ENDBRANCH  26  27
ENDBRANCH   1  26
TORSDOF 6
