REMARK  Name = ZINC08601112
REMARK  6 active torsions:
REMARK  status: ('A' for Active; 'I' for Inactive)
REMARK    1  A    between atoms: C_1  and  C_2
REMARK    2  A    between atoms: C_5  and  N_9
REMARK    3  A    between atoms: C_10  and  C_12
REMARK    4  A    between atoms: C_12  and  S_13
REMARK    5  A    between atoms: S_13  and  C_14
REMARK    6  A    between atoms: N_28  and  C_29
REMARK                            x       y       z     vdW  Elec       q    Type
REMARK                         _______ _______ _______ _____ _____    ______ ____
ROOT
ATOM      1  C   UNL     1       0.950  -8.728   2.637  0.00  0.00    +0.177 A 
ATOM      2  N   UNL     1       0.956  -9.248   1.431  0.00  0.00    -0.221 NA
ATOM      3  C   UNL     1       0.728 -10.557   1.239  0.00  0.00    +0.104 A 
ATOM      4  C   UNL     1       0.670 -11.412   0.045  0.00  0.00    +0.026 A 
ATOM      5  C   UNL     1       0.832 -11.169  -1.319  0.00  0.00    +0.012 A 
ATOM      6  C   UNL     1       0.717 -12.197  -2.212  0.00  0.00    +0.001 A 
ATOM      7  C   UNL     1       0.440 -13.483  -1.772  0.00  0.00    +0.002 A 
ATOM      8  C   UNL     1       0.276 -13.746  -0.431  0.00  0.00    +0.026 A 
ATOM      9  C   UNL     1       0.389 -12.713   0.497  0.00  0.00    +0.049 A 
ATOM     10  N   UNL     1       0.278 -12.678   1.871  0.00  0.00    -0.349 N 
ATOM     11  H   UNL     1       0.087 -13.445   2.433  0.00  0.00    +0.166 HD
ATOM     12  C   UNL     1       0.480 -11.386   2.332  0.00  0.00    +0.132 A 
ATOM     13  C   UNL     1       0.476 -10.816   3.622  0.00  0.00    +0.283 A 
ATOM     14  O   UNL     1       0.264 -11.505   4.606  0.00  0.00    -0.265 OA
ATOM     15  N   UNL     1       0.719  -9.494   3.745  0.00  0.00    -0.254 N 
ENDROOT
BRANCH  15  16
ATOM     16  C   UNL     1       0.727  -8.902   5.015  0.00  0.00    +0.052 A 
ATOM     17  C   UNL     1       1.868  -8.964   5.804  0.00  0.00    +0.026 A 
ATOM     18  C   UNL     1       1.873  -8.380   7.055  0.00  0.00    +0.002 A 
ATOM     19  C   UNL     1       0.743  -7.734   7.523  0.00  0.00    +0.000 A 
ATOM     20  C   UNL     1      -0.395  -7.670   6.739  0.00  0.00    +0.002 A 
ATOM     21  C   UNL     1      -0.404  -8.248   5.485  0.00  0.00    +0.026 A 
ENDBRANCH  15  16
BRANCH   1  22
ATOM     22  S   UNL     1       1.256  -7.004   2.832  0.00  0.00    -0.078 S 
BRANCH  22  23
ATOM     23  C   UNL     1       1.503  -6.407   1.137  0.00  0.00    +0.173 C 
BRANCH  23  25
ATOM     24  N   UNL     1       1.994  -4.262   0.008  0.00  0.00    -0.285 N 
ATOM     25  C   UNL     1       1.777  -4.926   1.161  0.00  0.00    +0.227 C 
ATOM     26  O   UNL     1       1.803  -4.331   2.217  0.00  0.00    -0.275 OA
ATOM     27  H   UNL     1       1.895  -4.720  -0.841  0.00  0.00    +0.155 HD
BRANCH  24  32
ATOM     28  C   UNL     1       3.484   1.212   0.124  0.00  0.00    +0.045 C 
ATOM     29  C   UNL     1       3.088  -0.242   0.093  0.00  0.00    -0.032 A 
ATOM     30  C   UNL     1       3.433  -1.074   1.143  0.00  0.00    +0.006 A 
ATOM     31  C   UNL     1       3.071  -2.406   1.117  0.00  0.00    +0.023 A 
ATOM     32  C   UNL     1       2.361  -2.912   0.036  0.00  0.00    +0.035 A 
ATOM     33  C   UNL     1       2.015  -2.075  -1.016  0.00  0.00    +0.043 A 
ATOM     34  C   UNL     1       2.375  -0.741  -0.983  0.00  0.00    +0.046 A 
ATOM     35 CL   UNL     1       1.939   0.308  -2.296  0.00  0.00    -0.083 Cl
ENDBRANCH  24  32
ENDBRANCH  23  25
ENDBRANCH  22  23
ENDBRANCH   1  22
TORSDOF 5
