REMARK  Name = ZINC22702198
REMARK  12 active torsions:
REMARK  status: ('A' for Active; 'I' for Inactive)
REMARK    1  A    between atoms: C_1  and  C_2
REMARK    2  A    between atoms: C_2  and  N_3
REMARK    3  A    between atoms: N_3  and  C_4
REMARK    4  A    between atoms: C_4  and  C_5
REMARK    5  A    between atoms: C_6  and  C_8
REMARK    6  A    between atoms: C_12  and  N_14
REMARK    7  A    between atoms: C_15  and  C_17
REMARK    8  A    between atoms: C_17  and  C_19
REMARK    9  A    between atoms: C_17  and  N_26
REMARK   10  A    between atoms: C_19  and  C_20
REMARK   11  A    between atoms: N_26  and  S_27
REMARK   12  A    between atoms: S_27  and  C_30
REMARK                            x       y       z     vdW  Elec       q    Type
REMARK                         _______ _______ _______ _____ _____    ______ ____
ROOT
ATOM      1  C   UNL     1      -3.565   1.712   0.221  0.00  0.00    +0.167 C 
ENDROOT
BRANCH   1   3
ATOM      2  N   UNL     1      -3.819  -0.746   0.108  0.00  0.00    -0.284 N 
ATOM      3  C   UNL     1      -4.380   0.453   0.364  0.00  0.00    +0.236 C 
ATOM      4  O   UNL     1      -5.541   0.517   0.709  0.00  0.00    -0.274 OA
ATOM      5  H   UNL     1      -2.745  -0.812  -0.121  0.00  0.00    +0.155 HD
BRANCH   2  10
ATOM      6  C   UNL     1      -6.404  -3.187   1.081  0.00  0.00    +0.039 A 
ATOM      7  C   UNL     1      -6.146  -4.213   0.169  0.00  0.00    +0.013 A 
ATOM      8  C   UNL     1      -5.124  -4.079  -0.749  0.00  0.00    +0.003 A 
ATOM      9  C   UNL     1      -4.354  -2.931  -0.770  0.00  0.00    +0.023 A 
ATOM     10  C   UNL     1      -4.602  -1.905   0.133  0.00  0.00    +0.034 A 
ATOM     11  C   UNL     1      -5.623  -2.031   1.063  0.00  0.00    +0.036 A 
BRANCH   6  13
ATOM     12  N   UNL     1      -7.314  -2.925   3.339  0.00  0.00    -0.298 N 
ATOM     13  C   UNL     1      -7.498  -3.327   2.066  0.00  0.00    +0.247 C 
ATOM     14  O   UNL     1      -8.562  -3.806   1.727  0.00  0.00    -0.270 OA
BRANCH  12  16
ATOM     15  C   UNL     1      -8.087  -4.539   5.006  0.00  0.00    +0.024 C 
ATOM     16  C   UNL     1      -8.347  -3.183   4.345  0.00  0.00    +0.104 C 
ENDBRANCH  12  16
BRANCH  12  17
ATOM     17  C   UNL     1      -6.082  -2.228   3.716  0.00  0.00    +0.104 C 
ATOM     18  C   UNL     1      -6.337  -0.720   3.743  0.00  0.00    +0.024 C 
ENDBRANCH  12  17
ENDBRANCH   6  13
ENDBRANCH   2  10
ENDBRANCH   1   3
BRANCH   1  19
ATOM     19  N   UNL     1      -4.396   2.872   0.553  0.00  0.00    -0.178 NA
ATOM     20  H   UNL     1      -4.889   3.443  -0.247  0.00  0.00    +0.149 HD
BRANCH  19  21
ATOM     21  S   UNL     1      -4.398   3.475   2.096  0.00  0.00    +0.062 S 
ATOM     22  O   UNL     1      -5.228   4.628   2.080  0.00  0.00    -0.153 OA
ATOM     23  O   UNL     1      -4.640   2.374   2.962  0.00  0.00    -0.153 OA
BRANCH  21  24
ATOM     24  C   UNL     1      -2.763   4.035   2.439  0.00  0.00    +0.140 A 
ATOM     25  C   UNL     1      -2.505   5.388   2.551  0.00  0.00    +0.031 A 
ATOM     26  C   UNL     1      -1.224   5.827   2.826  0.00  0.00    +0.002 A 
ATOM     27  C   UNL     1      -0.196   4.915   2.977  0.00  0.00    +0.003 A 
ATOM     28  C   UNL     1      -0.450   3.562   2.859  0.00  0.00    +0.040 A 
ATOM     29  C   UNL     1      -1.735   3.120   2.590  0.00  0.00    +0.150 A 
ATOM     30  F   UNL     1      -1.985   1.797   2.474  0.00  0.00    -0.203 F 
ENDBRANCH  21  24
ENDBRANCH  19  21
ENDBRANCH   1  19
BRANCH   1  31
ATOM     31  C   UNL     1      -3.067   1.838  -1.220  0.00  0.00    +0.065 C 
BRANCH  31  32
ATOM     32  C   UNL     1      -2.201   3.064  -1.348  0.00  0.00    -0.045 A 
ATOM     33  C   UNL     1      -0.856   2.996  -1.036  0.00  0.00    +0.004 A 
ATOM     34  C   UNL     1      -0.060   4.120  -1.158  0.00  0.00    +0.000 A 
ATOM     35  C   UNL     1      -0.610   5.313  -1.588  0.00  0.00    +0.000 A 
ATOM     36  C   UNL     1      -1.956   5.382  -1.895  0.00  0.00    +0.000 A 
ATOM     37  C   UNL     1      -2.752   4.259  -1.772  0.00  0.00    +0.004 A 
ENDBRANCH  31  32
ENDBRANCH   1  31
TORSDOF 10
