REMARK  Name = ZINC20232150
REMARK  15 active torsions:
REMARK  status: ('A' for Active; 'I' for Inactive)
REMARK    1  A    between atoms: C_1  and  C_2
REMARK    2  A    between atoms: C_2  and  C_3
REMARK    3  A    between atoms: C_2  and  C_4
REMARK    4  A    between atoms: C_4  and  C_6
REMARK    5  A    between atoms: C_4  and  N_21
REMARK    6  A    between atoms: N_8  and  C_9
REMARK    7  A    between atoms: C_9  and  C_10
REMARK    8  A    between atoms: C_10  and  C_11
REMARK    9  A    between atoms: C_11  and  N_12
REMARK   10  A    between atoms: N_12  and  C_13
REMARK   11  A    between atoms: N_12  and  C_14
REMARK   12  A    between atoms: C_14  and  C_15
REMARK   13  A    between atoms: N_21  and  S_22
REMARK   14  A    between atoms: S_22  and  C_25
REMARK   15  A    between atoms: C_34  and  C_36
REMARK                            x       y       z     vdW  Elec       q    Type
REMARK                         _______ _______ _______ _____ _____    ______ ____
ROOT
ATOM      1  C   UNL     1       1.357  11.425  -5.974  0.00  0.00    +0.165 C 
ENDROOT
BRANCH   1   2
ATOM      2  C   UNL     1       0.987  11.195  -4.532  0.00  0.00    +0.232 C 
ATOM      3  O   UNL     1       0.612  12.123  -3.847  0.00  0.00    -0.274 OA
ATOM      4  N   UNL     1       1.071   9.959  -4.003  0.00  0.00    -0.314 N 
ATOM      5  H   UNL     1       1.331   9.103  -4.644  0.00  0.00    +0.149 HD
BRANCH   4   6
ATOM      6  C   UNL     1       0.818   9.754  -2.575  0.00  0.00    +0.102 C 
BRANCH   6   7
ATOM      7  C   UNL     1       0.979   8.271  -2.236  0.00  0.00    +0.000 C 
BRANCH   7   8
ATOM      8  C   UNL     1       0.714   8.057  -0.744  0.00  0.00    -0.077 C 
BRANCH   8   9
ATOM      9  N   UNL     1       0.868   6.632  -0.419  0.00  0.00    +0.381 N 
ATOM     10  C   UNL     1      -0.169   5.827  -1.077  0.00  0.00    -0.096 C 
ATOM     11  H   UNL     1       1.846   6.302  -0.801  0.00  0.00    -0.082 HD
BRANCH   9  12
ATOM     12  C   UNL     1       0.857   6.420   1.035  0.00  0.00    -0.043 C 
BRANCH  12  13
ATOM     13  C   UNL     1       1.259   5.000   1.338  0.00  0.00    -0.064 A 
ATOM     14  C   UNL     1       2.591   4.686   1.536  0.00  0.00    +0.002 A 
ATOM     15  C   UNL     1       2.960   3.384   1.815  0.00  0.00    +0.000 A 
ATOM     16  C   UNL     1       1.998   2.395   1.896  0.00  0.00    +0.000 A 
ATOM     17  C   UNL     1       0.667   2.708   1.692  0.00  0.00    +0.000 A 
ATOM     18  C   UNL     1       0.297   4.011   1.419  0.00  0.00    +0.002 A 
ENDBRANCH  12  13
ENDBRANCH   9  12
ENDBRANCH   8   9
ENDBRANCH   7   8
ENDBRANCH   6   7
ENDBRANCH   4   6
ENDBRANCH   1   2
BRANCH   1  20
ATOM     19  C   UNL     1      -0.260   9.699  -6.779  0.00  0.00    +0.009 C 
ATOM     20  C   UNL     1       0.136  11.175  -6.861  0.00  0.00    +0.010 C 
ATOM     21  C   UNL     1      -1.030  12.042  -6.380  0.00  0.00    +0.009 C 
ENDBRANCH   1  20
BRANCH   1  22
ATOM     22  N   UNL     1       1.812  12.807  -6.148  0.00  0.00    -0.178 NA
ATOM     23  H   UNL     1       1.248  13.633  -5.689  0.00  0.00    +0.149 HD
BRANCH  22  24
ATOM     24  S   UNL     1       3.018  13.153  -7.229  0.00  0.00    +0.059 S 
ATOM     25  O   UNL     1       3.210  14.560  -7.186  0.00  0.00    -0.153 OA
ATOM     26  O   UNL     1       4.069  12.232  -6.971  0.00  0.00    -0.153 OA
BRANCH  24  27
ATOM     27  C   UNL     1       2.401  12.777  -8.836  0.00  0.00    +0.106 A 
ATOM     28  C   UNL     1       2.576  11.512  -9.367  0.00  0.00    +0.030 A 
ATOM     29  C   UNL     1       2.090  11.213 -10.622  0.00  0.00    +0.026 A 
ATOM     30  C   UNL     1       1.428  12.187 -11.371  0.00  0.00    +0.040 A 
ATOM     31  C   UNL     1       1.262  13.453 -10.832  0.00  0.00    -0.023 A 
ATOM     32  C   UNL     1       1.746  13.746  -9.571  0.00  0.00    +0.034 A 
ATOM     33  C   UNL     1       0.522  14.310 -11.834  0.00  0.00    +0.056 C 
ATOM     34  C   UNL     1       0.275  13.379 -13.032  0.00  0.00    +0.118 C 
ATOM     35  N   UNL     1       0.870  12.095 -12.650  0.00  0.00    -0.271 N 
ATOM     36  C   UNL     1       0.878  10.988 -13.418  0.00  0.00    +0.217 C 
ATOM     37  O   UNL     1       1.397   9.970 -13.010  0.00  0.00    -0.276 OA
ATOM     38  C   UNL     1       0.241  11.014 -14.784  0.00  0.00    +0.109 C 
ENDBRANCH  24  27
ENDBRANCH  22  24
ENDBRANCH   1  22
TORSDOF 11
