REMARK  Name = ZINC01579512
REMARK  6 active torsions:
REMARK  status: ('A' for Active; 'I' for Inactive)
REMARK    1  A    between atoms: C_7  and  C_11
REMARK    2  A    between atoms: C_11  and  C_12
REMARK    3  A    between atoms: C_12  and  N_53
REMARK    4  A    between atoms: N_14  and  C_19
REMARK    5  A    between atoms: C_19  and  C_20
REMARK    6  A    between atoms: C_20  and  C_21
REMARK                            x       y       z     vdW  Elec       q    Type
REMARK                         _______ _______ _______ _____ _____    ______ ____
ROOT
ATOM      1  C   UNL     1       2.345  -0.213   0.563  0.00  0.00    +0.032 C 
ATOM      2  N   UNL     1       2.610   1.183   0.280  0.00  0.00    -0.335 N 
ATOM      3  C   UNL     1       1.710   2.121  -0.003  0.00  0.00    +0.106 C 
ATOM      4  S   UNL     1       2.259   3.694  -0.398  0.00  0.00    -0.028 S 
ATOM      5  S   UNL     1      -0.022   1.809   0.012  0.00  0.00    -0.121 S 
ATOM      6  C   UNL     1       0.002  -0.004   0.002  0.00  0.00    +0.002 C 
ATOM      7  N   UNL     1       0.970  -0.434   1.038  0.00  0.00    +0.396 N 
ATOM      8  H   UNL     1       0.818   0.122   1.888  0.00  0.00    -0.078 HD
ENDROOT
BRANCH   7   9
ATOM      9  C   UNL     1       0.769  -1.863   1.356  0.00  0.00    -0.071 C 
BRANCH   9  10
ATOM     10  C   UNL     1      -0.583  -2.029   2.052  0.00  0.00    +0.019 C 
BRANCH  10  17
ATOM     11  C   UNL     1       0.725  -4.671   5.697  0.00  0.00    +0.001 A 
ATOM     12  C   UNL     1       0.296  -5.987   5.592  0.00  0.00    +0.002 A 
ATOM     13  C   UNL     1      -0.435  -6.404   4.501  0.00  0.00    +0.026 A 
ATOM     14  C   UNL     1      -0.748  -5.498   3.493  0.00  0.00    +0.047 A 
ATOM     15  C   UNL     1      -0.311  -4.165   3.603  0.00  0.00    +0.003 A 
ATOM     16  C   UNL     1       0.429  -3.765   4.718  0.00  0.00    +0.010 A 
ATOM     17  C   UNL     1      -0.794  -3.480   2.402  0.00  0.00    -0.024 A 
ATOM     18  C   UNL     1      -1.464  -4.387   1.675  0.00  0.00    +0.087 A 
ATOM     19  N   UNL     1      -1.443  -5.600   2.308  0.00  0.00    -0.360 N 
ATOM     20  H   UNL     1      -1.858  -6.410   1.974  0.00  0.00    +0.165 HD
ENDBRANCH  10  17
ENDBRANCH   9  10
ENDBRANCH   7   9
BRANCH   2  21
ATOM     21  C   UNL     1       4.013   1.605   0.309  0.00  0.00    +0.108 C 
BRANCH  21  22
ATOM     22  C   UNL     1       4.622   1.444  -1.086  0.00  0.00    +0.056 C 
BRANCH  22  23
ATOM     23  C   UNL     1       6.065   1.878  -1.056  0.00  0.00    -0.021 A 
ATOM     24  C   UNL     1       6.541   3.090  -1.383  0.00  0.00    +0.087 A 
ATOM     25  N   UNL     1       7.901   3.113  -1.231  0.00  0.00    -0.360 N 
ATOM     26  H   UNL     1       8.468   3.880  -1.405  0.00  0.00    +0.165 HD
ATOM     27  C   UNL     1       8.345   1.883  -0.800  0.00  0.00    +0.047 A 
ATOM     28  C   UNL     1       7.215   1.055  -0.672  0.00  0.00    +0.003 A 
ATOM     29  C   UNL     1       7.363  -0.265  -0.245  0.00  0.00    +0.010 A 
ATOM     30  C   UNL     1       8.608  -0.749   0.046  0.00  0.00    +0.001 A 
ATOM     31  C   UNL     1       9.726   0.064  -0.080  0.00  0.00    +0.002 A 
ATOM     32  C   UNL     1       9.602   1.370  -0.499  0.00  0.00    +0.026 A 
ENDBRANCH  22  23
ENDBRANCH  21  22
ENDBRANCH   2  21
TORSDOF 6
