REMARK  Name = ZINC00235504
REMARK  4 active torsions:
REMARK  status: ('A' for Active; 'I' for Inactive)
REMARK    1  A    between atoms: C_1  and  C_2
REMARK    2  A    between atoms: N_4  and  C_5
REMARK    3  A    between atoms: C_8  and  C_11
REMARK    4  A    between atoms: C_17  and  N_22
REMARK                            x       y       z     vdW  Elec       q    Type
REMARK                         _______ _______ _______ _____ _____    ______ ____
ROOT
ATOM      1  C   UNL     1      -1.738   5.661   0.027  0.00  0.00    +0.139 A 
ATOM      2  N   UNL     1      -0.380   5.575   0.178  0.00  0.00    -0.338 N 
ATOM      3  H   UNL     1       0.251   6.338   0.320  0.00  0.00    +0.167 HD
ATOM      4  C   UNL     1      -0.044   4.237   0.099  0.00  0.00    +0.068 A 
ATOM      5  C   UNL     1       1.153   3.539   0.178  0.00  0.00    +0.030 A 
ATOM      6  C   UNL     1       1.157   2.166   0.058  0.00  0.00    +0.036 A 
ATOM      7  C   UNL     1      -0.028   1.473  -0.143  0.00  0.00    +0.147 A 
ATOM      8  C   UNL     1      -1.226   2.147  -0.229  0.00  0.00    +0.098 A 
ATOM      9  C   UNL     1      -1.249   3.542  -0.104  0.00  0.00    +0.110 A 
ATOM     10  N   UNL     1      -2.243   4.463  -0.139  0.00  0.00    -0.226 NA
ATOM     11 CL   UNL     1      -2.702   1.272  -0.487  0.00  0.00    -0.079 Cl
ENDROOT
BRANCH   1  15
ATOM     12  C   UNL     1      -3.979   9.271   0.082  0.00  0.00    +0.033 A 
ATOM     13  C   UNL     1      -4.628   8.054  -0.101  0.00  0.00    +0.024 A 
ATOM     14  C   UNL     1      -3.904   6.882  -0.119  0.00  0.00    +0.013 A 
ATOM     15  C   UNL     1      -2.518   6.917   0.046  0.00  0.00    +0.017 A 
ATOM     16  C   UNL     1      -1.870   8.139   0.235  0.00  0.00    +0.013 A 
ATOM     17  C   UNL     1      -2.599   9.308   0.248  0.00  0.00    +0.024 A 
BRANCH  12  21
ATOM     18  C   UNL     1      -6.804  11.716   0.519  0.00  0.00    +0.109 C 
ATOM     19  C   UNL     1      -5.965  10.467   0.606  0.00  0.00    +0.214 C 
ATOM     20  O   UNL     1      -6.415   9.470   1.131  0.00  0.00    -0.276 OA
ATOM     21  N   UNL     1      -4.716  10.457   0.101  0.00  0.00    -0.286 N 
ATOM     22  H   UNL     1      -4.329  11.274  -0.250  0.00  0.00    +0.155 HD
ENDBRANCH  12  21
ENDBRANCH   1  15
BRANCH   7  23
ATOM     23  N   UNL     1      -0.005  -0.001  -0.271  0.00  0.00    +0.058 N 
ATOM     24  O   UNL     1       1.052  -0.602  -0.200  0.00  0.00    -0.126 OA
ATOM     25  O   UNL     1      -1.043  -0.614  -0.446  0.00  0.00    -0.126 OA
ENDBRANCH   7  23
TORSDOF 3
