REMARK  Name = ZINC06089916
REMARK  13 active torsions:
REMARK  status: ('A' for Active; 'I' for Inactive)
REMARK    1  A    between atoms: C_1  and  C_2
REMARK    2  A    between atoms: C_2  and  O_3
REMARK    3  A    between atoms: O_3  and  C_4
REMARK    4  A    between atoms: C_7  and  N_10
REMARK    5  A    between atoms: N_10  and  C_11
REMARK    6  A    between atoms: C_11  and  N_13
REMARK    7  A    between atoms: N_13  and  C_14
REMARK    8  A    between atoms: N_13  and  C_22
REMARK    9  A    between atoms: C_14  and  C_15
REMARK   10  A    between atoms: C_15  and  C_16
REMARK   11  A    between atoms: C_16  and  N_69
REMARK   12  A    between atoms: C_22  and  C_23
REMARK   13  A    between atoms: C_29  and  C_35
REMARK                            x       y       z     vdW  Elec       q    Type
REMARK                         _______ _______ _______ _____ _____    ______ ____
ROOT
ATOM      1  N   UNL     1       1.636  -2.789   5.059  0.00  0.00    -0.308 N 
ENDROOT
BRANCH   1   2
ATOM      2  C   UNL     1       2.397  -3.858   4.750  0.00  0.00    +0.137 C 
ATOM      3  S   UNL     1       1.979  -4.850   3.419  0.00  0.00    -0.018 S 
BRANCH   2   4
ATOM      4  N   UNL     1       3.486  -4.146   5.490  0.00  0.00    -0.297 N 
ATOM      5  H   UNL     1       3.757  -3.551   6.206  0.00  0.00    +0.154 HD
BRANCH   4   9
ATOM      6  C   UNL     1       5.694  -7.593   4.697  0.00  0.00    +0.121 A 
ATOM      7  C   UNL     1       5.282  -6.779   3.653  0.00  0.00    +0.047 A 
ATOM      8  C   UNL     1       4.551  -5.637   3.915  0.00  0.00    +0.027 A 
ATOM      9  C   UNL     1       4.228  -5.304   5.223  0.00  0.00    +0.033 A 
ATOM     10  C   UNL     1       4.644  -6.118   6.269  0.00  0.00    +0.027 A 
ATOM     11  C   UNL     1       5.370  -7.263   6.005  0.00  0.00    +0.047 A 
BRANCH   6  12
ATOM     12  O   UNL     1       6.414  -8.718   4.439  0.00  0.00    -0.492 OA
BRANCH  12  14
ATOM     13  C   UNL     1       7.600 -10.724   5.078  0.00  0.00    +0.048 C 
ATOM     14  C   UNL     1       6.804  -9.510   5.562  0.00  0.00    +0.225 C 
ENDBRANCH  12  14
ENDBRANCH   6  12
ENDBRANCH   4   9
ENDBRANCH   2   4
ENDBRANCH   1   2
BRANCH   1  15
ATOM     15  C   UNL     1       1.993  -1.940   6.198  0.00  0.00    +0.105 C 
BRANCH  15  16
ATOM     16  C   UNL     1       1.312  -2.469   7.462  0.00  0.00    +0.000 C 
BRANCH  16  17
ATOM     17  C   UNL     1       1.685  -1.582   8.652  0.00  0.00    -0.077 C 
BRANCH  17  23
ATOM     18  C   UNL     1      -0.430  -1.946   9.775  0.00  0.00    -0.050 C 
ATOM     19  C   UNL     1      -1.073  -2.540  11.031  0.00  0.00    +0.141 C 
ATOM     20  O   UNL     1      -0.536  -1.893  12.188  0.00  0.00    -0.383 OA
ATOM     21  C   UNL     1       0.884  -2.013  12.307  0.00  0.00    +0.141 C 
ATOM     22  C   UNL     1       1.548  -1.414  11.064  0.00  0.00    -0.050 C 
ATOM     23  N   UNL     1       1.036  -2.116   9.868  0.00  0.00    +0.383 N 
ATOM     24  H   UNL     1       1.251  -3.116   9.950  0.00  0.00    -0.082 HD
ENDBRANCH  17  23
ENDBRANCH  16  17
ENDBRANCH  15  16
ENDBRANCH   1  15
BRANCH   1  25
ATOM     25  C   UNL     1       0.452  -2.477   4.256  0.00  0.00    +0.147 C 
BRANCH  25  26
ATOM     26  C   UNL     1       0.839  -1.558   3.126  0.00  0.00    +0.035 A 
ATOM     27  C   UNL     1       1.133  -2.073   1.906  0.00  0.00    +0.020 A 
ATOM     28  C   UNL     1       1.505  -1.153   0.830  0.00  0.00    -0.001 A 
ATOM     29  C   UNL     1       1.819  -1.625  -0.449  0.00  0.00    +0.010 A 
ATOM     30  C   UNL     1       2.163  -0.741  -1.432  0.00  0.00    +0.001 A 
ATOM     31  C   UNL     1       2.198   0.623  -1.174  0.00  0.00    +0.005 A 
ATOM     32  C   UNL     1       1.899   1.110   0.080  0.00  0.00    -0.026 A 
ATOM     33  C   UNL     1       1.546   0.228   1.097  0.00  0.00    +0.052 A 
ATOM     34  N   UNL     1       1.237   0.688   2.359  0.00  0.00    -0.322 N 
ATOM     35  H   UNL     1       1.267   1.670   2.546  0.00  0.00    +0.169 HD
ATOM     36  C   UNL     1       0.895  -0.164   3.341  0.00  0.00    +0.254 A 
ATOM     37  O   UNL     1       0.628   0.278   4.445  0.00  0.00    -0.268 OA
ATOM     38  C   UNL     1       1.948   2.592   0.347  0.00  0.00    +0.046 C 
ENDBRANCH  25  26
ENDBRANCH   1  25
TORSDOF 11
