REMARK  Name = ZINC39930262
REMARK  6 active torsions:
REMARK  status: ('A' for Active; 'I' for Inactive)
REMARK    1  A    between atoms: C_4  and  C_7
REMARK    2  A    between atoms: C_10  and  C_12
REMARK    3  A    between atoms: N_14  and  N_15
REMARK    4  A    between atoms: C_16  and  C_18
REMARK    5  A    between atoms: C_18  and  C_19
REMARK    6  A    between atoms: C_22  and  C_24
REMARK                            x       y       z     vdW  Elec       q    Type
REMARK                         _______ _______ _______ _____ _____    ______ ____
ROOT
ATOM      1  N   UNL     1       8.403  -4.514  -0.114  0.00  0.00    -0.234 N 
ATOM      2  C   UNL     1       9.746  -4.407  -0.123  0.00  0.00    +0.235 C 
ATOM      3  O   UNL     1      10.268  -3.312  -0.115  0.00  0.00    -0.274 OA
ATOM      4  H   UNL     1       7.986  -5.390  -0.120  0.00  0.00    +0.173 HD
ENDROOT
BRANCH   1   7
ATOM      5  C   UNL     1       6.265  -3.467  -0.086  0.00  0.00    +0.276 C 
ATOM      6  O   UNL     1       5.742  -4.565  -0.094  0.00  0.00    -0.267 OA
ATOM      7  N   UNL     1       7.609  -3.360  -0.096  0.00  0.00    -0.229 N 
ATOM      8  H   UNL     1       8.025  -2.484  -0.089  0.00  0.00    +0.173 HD
BRANCH   5  12
ATOM      9  C   UNL     1       3.689  -0.676  -0.038  0.00  0.00    +0.077 C 
ATOM     10  N   UNL     1       4.894  -0.155  -0.042  0.00  0.00    -0.153 NA
ATOM     11  N   UNL     1       5.836  -1.015  -0.058  0.00  0.00    -0.148 NA
ATOM     12  C   UNL     1       5.433  -2.258  -0.067  0.00  0.00    +0.132 C 
ATOM     13  C   UNL     1       3.916  -2.179  -0.048  0.00  0.00    +0.120 C 
BRANCH   9  17
ATOM     14  C   UNL     1      -0.017   1.380   0.010  0.00  0.00    +0.000 A 
ATOM     15  C   UNL     1       1.168   2.097   0.002  0.00  0.00    +0.001 A 
ATOM     16  C   UNL     1       2.377   1.436  -0.013  0.00  0.00    +0.010 A 
ATOM     17  C   UNL     1       2.406   0.036  -0.021  0.00  0.00    -0.002 A 
ATOM     18  C   UNL     1       1.203  -0.681  -0.013  0.00  0.00    +0.010 A 
ATOM     19  C   UNL     1       0.002  -0.004   0.002  0.00  0.00    +0.001 A 
ENDBRANCH   9  17
ENDBRANCH   5  12
ENDBRANCH   1   7
BRANCH   2  20
ATOM     20  C   UNL     1      10.601  -5.648  -0.142  0.00  0.00    +0.153 C 
BRANCH  20  21
ATOM     21  C   UNL     1      12.056  -5.257  -0.149  0.00  0.00    +0.058 A 
ATOM     22  C   UNL     1      12.897  -5.745   0.800  0.00  0.00    +0.071 A 
ATOM     23  S   UNL     1      14.433  -4.971   0.310  0.00  0.00    -0.075 S 
ATOM     24  C   UNL     1      13.789  -4.083  -1.101  0.00  0.00    +0.109 A 
ATOM     25  N   UNL     1      12.514  -4.447  -1.075  0.00  0.00    -0.243 NA
BRANCH  24  26
ATOM     26  C   UNL     1      14.490  -3.188  -2.047  0.00  0.00    +0.007 A 
ATOM     27  C   UNL     1      13.787  -2.584  -3.091  0.00  0.00    +0.013 A 
ATOM     28  C   UNL     1      14.446  -1.750  -3.970  0.00  0.00    +0.039 A 
ATOM     29  C   UNL     1      15.803  -1.512  -3.818  0.00  0.00    +0.123 A 
ATOM     30  C   UNL     1      16.505  -2.110  -2.784  0.00  0.00    +0.039 A 
ATOM     31  C   UNL     1      15.855  -2.940  -1.895  0.00  0.00    +0.013 A 
ATOM     32  F   UNL     1      16.444  -0.695  -4.683  0.00  0.00    -0.205 F 
ENDBRANCH  24  26
ENDBRANCH  20  21
ENDBRANCH   2  20
TORSDOF 6
