REMARK  Name = ZINC36548297
REMARK  9 active torsions:
REMARK  status: ('A' for Active; 'I' for Inactive)
REMARK    1  A    between atoms: C_1  and  C_2
REMARK    2  A    between atoms: C_5  and  C_8
REMARK    3  A    between atoms: C_8  and  C_10
REMARK    4  A    between atoms: C_8  and  N_19
REMARK    5  A    between atoms: N_12  and  C_13
REMARK    6  A    between atoms: N_19  and  C_20
REMARK    7  A    between atoms: C_27  and  C_29
REMARK    8  A    between atoms: C_29  and  N_30
REMARK    9  A    between atoms: C_31  and  C_33
REMARK                            x       y       z     vdW  Elec       q    Type
REMARK                         _______ _______ _______ _____ _____    ______ ____
ROOT
ATOM      1  N   UNL     1       1.048  -4.756   0.947  0.00  0.00    -0.253 N 
ATOM      2  C   UNL     1       0.786  -4.662   2.266  0.00  0.00    +0.238 C 
ATOM      3  O   UNL     1      -0.193  -4.056   2.648  0.00  0.00    -0.274 OA
ENDROOT
BRANCH   1   4
ATOM      4  C   UNL     1       2.177  -5.456   0.506  0.00  0.00    +0.056 A 
ATOM      5  C   UNL     1       3.373  -4.783   0.291  0.00  0.00    +0.025 A 
ATOM      6  C   UNL     1       4.485  -5.475  -0.144  0.00  0.00    +0.002 A 
ATOM      7  C   UNL     1       4.410  -6.838  -0.366  0.00  0.00    +0.002 A 
ATOM      8  C   UNL     1       3.222  -7.512  -0.154  0.00  0.00    +0.022 A 
ATOM      9  C   UNL     1       2.106  -6.826   0.287  0.00  0.00    +0.062 A 
ATOM     10 CL   UNL     1       0.616  -7.674   0.561  0.00  0.00    -0.082 Cl
ENDBRANCH   1   4
BRANCH   1  11
ATOM     11  C   UNL     1       0.150  -4.127  -0.025  0.00  0.00    +0.197 C 
BRANCH  11  16
ATOM     12  C   UNL     1      -0.198   1.537   1.067  0.00  0.00    +0.044 C 
ATOM     13  C   UNL     1      -0.107   0.060   0.782  0.00  0.00    -0.050 A 
ATOM     14  C   UNL     1      -1.220  -0.744   0.943  0.00  0.00    +0.004 A 
ATOM     15  C   UNL     1      -1.137  -2.099   0.682  0.00  0.00    +0.006 A 
ATOM     16  C   UNL     1       0.059  -2.650   0.259  0.00  0.00    -0.018 A 
ATOM     17  C   UNL     1       1.171  -1.845   0.098  0.00  0.00    +0.006 A 
ATOM     18  C   UNL     1       1.087  -0.489   0.355  0.00  0.00    +0.004 A 
ENDBRANCH  11  16
BRANCH  11  19
ATOM     19  C   UNL     1      -1.220  -4.744   0.084  0.00  0.00    +0.239 C 
ATOM     20  O   UNL     1      -1.427  -5.624   0.893  0.00  0.00    -0.273 OA
ATOM     21  N   UNL     1      -2.216  -4.319  -0.719  0.00  0.00    -0.311 N 
ATOM     22  H   UNL     1      -2.051  -3.616  -1.366  0.00  0.00    +0.149 HD
BRANCH  21  23
ATOM     23  C   UNL     1      -3.548  -4.920  -0.614  0.00  0.00    +0.073 C 
ATOM     24  C   UNL     1      -3.603  -6.191  -1.464  0.00  0.00    +0.022 C 
ATOM     25  C   UNL     1      -4.995  -6.818  -1.354  0.00  0.00    +0.002 C 
ATOM     26  C   UNL     1      -6.043  -5.823  -1.855  0.00  0.00    +0.000 C 
ATOM     27  C   UNL     1      -5.988  -4.552  -1.005  0.00  0.00    +0.002 C 
ATOM     28  C   UNL     1      -4.597  -3.925  -1.115  0.00  0.00    +0.022 C 
ENDBRANCH  21  23
ENDBRANCH  11  19
ENDBRANCH   1  11
BRANCH   2  29
ATOM     29  C   UNL     1       1.709  -5.310   3.265  0.00  0.00    +0.201 C 
BRANCH  29  30
ATOM     30  N   UNL     1       1.210  -5.065   4.621  0.00  0.00    -0.303 N 
ATOM     31  C   UNL     1       1.879  -5.554   5.684  0.00  0.00    +0.244 C 
ATOM     32  O   UNL     1       2.897  -6.197   5.518  0.00  0.00    -0.270 OA
ATOM     33  H   UNL     1       0.398  -4.552   4.753  0.00  0.00    +0.150 HD
BRANCH  31  34
ATOM     34  C   UNL     1       1.376  -5.307   7.052  0.00  0.00    +0.037 A 
ATOM     35  C   UNL     1       0.204  -4.574   7.246  0.00  0.00    +0.013 A 
ATOM     36  C   UNL     1      -0.261  -4.348   8.525  0.00  0.00    +0.001 A 
ATOM     37  C   UNL     1       0.432  -4.846   9.614  0.00  0.00    +0.000 A 
ATOM     38  C   UNL     1       1.594  -5.573   9.429  0.00  0.00    +0.001 A 
ATOM     39  C   UNL     1       2.067  -5.812   8.155  0.00  0.00    +0.013 A 
ENDBRANCH  31  34
ENDBRANCH  29  30
ENDBRANCH   2  29
TORSDOF 8
