REMARK  Name = ZINC21329614
REMARK  6 active torsions:
REMARK  status: ('A' for Active; 'I' for Inactive)
REMARK    1  A    between atoms: C_4  and  S_17
REMARK    2  A    between atoms: C_5  and  C_7
REMARK    3  A    between atoms: N_9  and  C_10
REMARK    4  A    between atoms: S_17  and  C_18
REMARK    5  A    between atoms: C_18  and  C_19
REMARK    6  A    between atoms: N_21  and  C_22
REMARK                            x       y       z     vdW  Elec       q    Type
REMARK                         _______ _______ _______ _____ _____    ______ ____
ROOT
ATOM      1  C   UNL     1       0.042  -2.780  -0.044  0.00  0.00    +0.001 A 
ATOM      2  C   UNL     1       1.229  -2.064  -0.058  0.00  0.00    +0.001 A 
ATOM      3  C   UNL     1       1.213  -0.685  -0.046  0.00  0.00    +0.015 A 
ATOM      4  C   UNL     1       0.001  -0.003  -0.021  0.00  0.00    +0.020 A 
ATOM      5  C   UNL     1      -1.202  -0.726  -0.001  0.00  0.00    +0.050 A 
ATOM      6  C   UNL     1      -1.168  -2.123  -0.019  0.00  0.00    +0.014 A 
ENDROOT
BRANCH   5   7
ATOM      7  C   UNL     1      -2.493  -0.016   0.032  0.00  0.00    +0.249 C 
ATOM      8  O   UNL     1      -2.519   1.200   0.043  0.00  0.00    -0.270 OA
ATOM      9  N   UNL     1      -3.646  -0.714   0.051  0.00  0.00    -0.281 N 
ATOM     10  H   UNL     1      -3.626  -1.811  -0.034  0.00  0.00    +0.155 HD
BRANCH   9  11
ATOM     11  C   UNL     1      -4.867  -0.044   0.177  0.00  0.00    +0.048 A 
ATOM     12  C   UNL     1      -5.040   1.205  -0.405  0.00  0.00    +0.024 A 
ATOM     13  C   UNL     1      -6.249   1.862  -0.282  0.00  0.00    +0.002 A 
ATOM     14  C   UNL     1      -7.284   1.281   0.429  0.00  0.00    +0.001 A 
ATOM     15  C   UNL     1      -7.114   0.040   1.014  0.00  0.00    +0.017 A 
ATOM     16  C   UNL     1      -5.909  -0.625   0.891  0.00  0.00    +0.039 A 
ATOM     17 BR   UNL     1      -5.678  -2.321   1.692  0.00  0.00    -0.048 Br
ENDBRANCH   9  11
ENDBRANCH   5   7
BRANCH   4  18
ATOM     18  S   UNL     1      -0.023   1.759  -0.006  0.00  0.00    -0.115 S 
BRANCH  18  19
ATOM     19  C   UNL     1       1.731   2.223  -0.031  0.00  0.00    +0.170 C 
BRANCH  19  20
ATOM     20  C   UNL     1       1.853   3.725  -0.020  0.00  0.00    +0.224 C 
ATOM     21  O   UNL     1       0.856   4.414   0.002  0.00  0.00    -0.275 OA
ATOM     22  N   UNL     1       3.071   4.301  -0.035  0.00  0.00    -0.309 N 
ATOM     23  H   UNL     1       3.976   3.675  -0.055  0.00  0.00    +0.149 HD
BRANCH  22  24
ATOM     24  C   UNL     1       3.191   5.761  -0.025  0.00  0.00    +0.035 C 
ATOM     25  C   UNL     1       2.493   6.339  -1.258  0.00  0.00    +0.029 C 
ATOM     26  C   UNL     1       2.618   7.864  -1.248  0.00  0.00    -0.008 C 
ATOM     27  C   UNL     1       4.097   8.254  -1.269  0.00  0.00    +0.007 C 
ATOM     28  C   UNL     1       4.795   7.677  -0.035  0.00  0.00    -0.008 C 
ATOM     29  C   UNL     1       4.670   6.152  -0.046  0.00  0.00    +0.029 C 
ATOM     30  C   UNL     1       4.138   8.234   1.229  0.00  0.00    +0.007 C 
ATOM     31  C   UNL     1       2.659   7.843   1.250  0.00  0.00    -0.008 C 
ATOM     32  C   UNL     1       1.961   8.420   0.017  0.00  0.00    +0.007 C 
ATOM     33  C   UNL     1       2.534   6.318   1.240  0.00  0.00    +0.029 C 
ENDBRANCH  22  24
ENDBRANCH  19  20
ENDBRANCH  18  19
ENDBRANCH   4  18
TORSDOF 6
