REMARK  Name = ZINC63963490
REMARK  5 active torsions:
REMARK  status: ('A' for Active; 'I' for Inactive)
REMARK    1  A    between atoms: C_6  and  C_10
REMARK    2  A    between atoms: C_12  and  N_17
REMARK    3  A    between atoms: C_18  and  C_20
REMARK    4  A    between atoms: C_22  and  N_32
REMARK    5  A    between atoms: C_25  and  N_26
REMARK                            x       y       z     vdW  Elec       q    Type
REMARK                         _______ _______ _______ _____ _____    ______ ____
ROOT
ATOM      1  N   UNL     1       2.320  -5.418  -3.475  0.00  0.00    -0.281 N 
ATOM      2  C   UNL     1       2.734  -6.146  -4.532  0.00  0.00    +0.250 C 
ATOM      3  O   UNL     1       3.859  -5.997  -4.969  0.00  0.00    -0.270 OA
ATOM      4  H   UNL     1       1.448  -5.584  -3.084  0.00  0.00    +0.155 HD
ENDROOT
BRANCH   1   7
ATOM      5  C   UNL     1       3.414  -2.272  -1.919  0.00  0.00    +0.015 A 
ATOM      6  C   UNL     1       2.595  -3.252  -2.444  0.00  0.00    +0.032 A 
ATOM      7  C   UNL     1       3.148  -4.424  -2.943  0.00  0.00    +0.034 A 
ATOM      8  C   UNL     1       4.524  -4.607  -2.913  0.00  0.00    +0.025 A 
ATOM      9  C   UNL     1       5.339  -3.624  -2.387  0.00  0.00    +0.022 A 
ATOM     10  C   UNL     1       4.786  -2.455  -1.895  0.00  0.00    +0.048 A 
ATOM     11 CL   UNL     1       5.813  -1.218  -1.240  0.00  0.00    -0.083 Cl
BRANCH   5  17
ATOM     12  C   UNL     1      -1.229   0.740  -2.700  0.00  0.00    +0.002 A 
ATOM     13  C   UNL     1      -0.387   1.494  -3.537  0.00  0.00    +0.002 A 
ATOM     14  C   UNL     1       0.954   1.354  -3.534  0.00  0.00    +0.027 A 
ATOM     15  C   UNL     1       1.580   0.381  -2.628  0.00  0.00    +0.060 A 
ATOM     16  N   UNL     1       2.817   0.040  -2.414  0.00  0.00    -0.360 N 
ATOM     17  C   UNL     1       2.815  -1.000  -1.377  0.00  0.00    +0.207 C 
ATOM     18  N   UNL     1       1.409  -1.220  -1.015  0.00  0.00    -0.360 N 
ATOM     19  C   UNL     1       0.688  -0.416  -1.742  0.00  0.00    +0.060 A 
ATOM     20  C   UNL     1      -0.759  -0.178  -1.833  0.00  0.00    +0.027 A 
ATOM     21  H   UNL     1       3.599   0.405  -2.858  0.00  0.00    +0.162 HD
ATOM     22  H   UNL     1       1.078  -1.849  -0.355  0.00  0.00    +0.162 HD
ENDBRANCH   5  17
ENDBRANCH   1   7
BRANCH   2  23
ATOM     23  C   UNL     1       1.823  -7.122  -5.157  0.00  0.00    +0.060 A 
ATOM     24  C   UNL     1       0.528  -7.292  -4.661  0.00  0.00    +0.047 A 
ATOM     25  C   UNL     1      -0.318  -8.206  -5.250  0.00  0.00    +0.127 A 
ATOM     26  C   UNL     1       0.108  -8.960  -6.332  0.00  0.00    +0.034 A 
ATOM     27  C   UNL     1       1.385  -8.804  -6.832  0.00  0.00    +0.026 A 
ATOM     28  C   UNL     1       2.250  -7.882  -6.256  0.00  0.00    +0.042 A 
BRANCH  28  29
ATOM     29  N   UNL     1       3.533  -7.719  -6.763  0.00  0.00    -0.325 N 
ATOM     30  C   UNL     1       4.655  -8.528  -6.261  0.00  0.00    +0.133 C 
ATOM     31  C   UNL     1       5.386  -9.139  -7.462  0.00  0.00    +0.178 C 
ATOM     32  O   UNL     1       5.716  -8.102  -8.388  0.00  0.00    -0.377 OA
ATOM     33  C   UNL     1       4.583  -7.429  -8.942  0.00  0.00    +0.178 C 
ATOM     34  C   UNL     1       3.810  -6.735  -7.821  0.00  0.00    +0.133 C 
ENDBRANCH  28  29
BRANCH  25  35
ATOM     35  N   UNL     1      -1.690  -8.385  -4.723  0.00  0.00    +0.056 N 
ATOM     36  O   UNL     1      -2.065  -7.729  -3.779  0.00  0.00    -0.126 OA
ATOM     37  O   UNL     1      -2.435  -9.186  -5.237  0.00  0.00    -0.126 OA
ENDBRANCH  25  35
ENDBRANCH   2  23
TORSDOF 5
