REMARK  Name = ZINC03048197
REMARK  11 active torsions:
REMARK  status: ('A' for Active; 'I' for Inactive)
REMARK    1  A    between atoms: C_1  and  O_2
REMARK    2  A    between atoms: O_2  and  C_3
REMARK    3  A    between atoms: C_6  and  N_10
REMARK    4  A    between atoms: N_10  and  C_11
REMARK    5  A    between atoms: C_11  and  N_13
REMARK    6  A    between atoms: N_13  and  C_14
REMARK    7  A    between atoms: C_16  and  C_28
REMARK    8  A    between atoms: C_19  and  S_20
REMARK    9  A    between atoms: S_20  and  C_21
REMARK   10  A    between atoms: C_28  and  O_30
REMARK   11  A    between atoms: O_30  and  C_31
REMARK                            x       y       z     vdW  Elec       q    Type
REMARK                         _______ _______ _______ _____ _____    ______ ____
ROOT
ATOM      1  C   UNL     1      -5.881   3.041  -0.275  0.00  0.00    +0.047 A 
ATOM      2  C   UNL     1      -5.829   1.661  -0.300  0.00  0.00    +0.039 A 
ATOM      3  C   UNL     1      -7.006   0.917  -0.162  0.00  0.00    +0.061 A 
ATOM      4  C   UNL     1      -8.230   1.574   0.001  0.00  0.00    +0.016 A 
ATOM      5  C   UNL     1      -8.277   2.949   0.025  0.00  0.00    +0.018 A 
ATOM      6  C   UNL     1      -7.108   3.691  -0.106  0.00  0.00    +0.034 A 
ENDROOT
BRANCH   1   7
ATOM      7  N   UNL     1      -4.704   3.789  -0.413  0.00  0.00    -0.296 N 
ATOM      8  H   UNL     1      -4.662   4.621  -1.132  0.00  0.00    +0.154 HD
BRANCH   7   9
ATOM      9  C   UNL     1      -3.624   3.490   0.335  0.00  0.00    +0.139 C 
ATOM     10  S   UNL     1      -3.643   2.117   1.357  0.00  0.00    -0.018 S 
BRANCH   9  11
ATOM     11  N   UNL     1      -2.528   4.273   0.279  0.00  0.00    -0.297 N 
ATOM     12  H   UNL     1      -2.539   5.192  -0.326  0.00  0.00    +0.154 HD
BRANCH  11  16
ATOM     13  C   UNL     1       0.904   3.211   2.397  0.00  0.00    +0.138 A 
ATOM     14  C   UNL     1       1.004   3.630   1.078  0.00  0.00    +0.049 A 
ATOM     15  C   UNL     1      -0.131   3.987   0.378  0.00  0.00    +0.027 A 
ATOM     16  C   UNL     1      -1.375   3.916   0.991  0.00  0.00    +0.034 A 
ATOM     17  C   UNL     1      -1.476   3.498   2.310  0.00  0.00    +0.047 A 
ATOM     18  C   UNL     1      -0.338   3.146   3.012  0.00  0.00    +0.084 A 
ATOM     19 CL   UNL     1      -0.463   2.623   4.662  0.00  0.00    -0.080 Cl
BRANCH  13  21
ATOM     20  C   UNL     1       3.269   2.957   2.392  0.00  0.00    +0.277 C 
ATOM     21  O   UNL     1       2.023   2.865   3.087  0.00  0.00    -0.494 OA
ENDBRANCH  13  21
ENDBRANCH  11  16
ENDBRANCH   9  11
ENDBRANCH   7   9
ENDBRANCH   1   7
BRANCH   3  22
ATOM     22  C   UNL     1      -6.956  -0.555  -0.187  0.00  0.00    +0.339 C 
ATOM     23  O   UNL     1      -5.891  -1.124  -0.328  0.00  0.00    -0.245 OA
BRANCH  22  24
ATOM     24  O   UNL     1      -8.090  -1.270  -0.054  0.00  0.00    -0.464 OA
ATOM     25  C   UNL     1      -7.965  -2.716  -0.088  0.00  0.00    +0.280 C 
ENDBRANCH  22  24
ENDBRANCH   3  22
BRANCH   6  26
ATOM     26  S   UNL     1      -7.173   5.451  -0.067  0.00  0.00    -0.088 S 
BRANCH  26  27
ATOM     27  C   UNL     1      -6.584   5.863   1.542  0.00  0.00    +0.013 A 
ATOM     28  C   UNL     1      -6.150   4.862   2.402  0.00  0.00    +0.016 A 
ATOM     29  C   UNL     1      -5.683   5.189   3.660  0.00  0.00    +0.021 A 
ATOM     30  C   UNL     1      -5.660   6.511   4.069  0.00  0.00    +0.041 A 
ATOM     31  C   UNL     1      -6.098   7.510   3.217  0.00  0.00    +0.021 A 
ATOM     32  C   UNL     1      -6.559   7.190   1.956  0.00  0.00    +0.016 A 
ATOM     33 CL   UNL     1      -5.079   6.917   5.654  0.00  0.00    -0.084 Cl
ENDBRANCH  26  27
ENDBRANCH   6  26
TORSDOF 9
