REMARK  Name = ZINC08603467
REMARK  7 active torsions:
REMARK  status: ('A' for Active; 'I' for Inactive)
REMARK    1  A    between atoms: C_1  and  C_2
REMARK    2  A    between atoms: C_5  and  N_8
REMARK    3  A    between atoms: C_11  and  C_26
REMARK    4  A    between atoms: N_13  and  C_16
REMARK    5  A    between atoms: C_16  and  C_17
REMARK    6  A    between atoms: C_26  and  C_27
REMARK    7  A    between atoms: N_29  and  C_30
REMARK                            x       y       z     vdW  Elec       q    Type
REMARK                         _______ _______ _______ _____ _____    ______ ____
ROOT
ATOM      1  N   UNL     1       0.074  -4.160   0.089  0.00  0.00    -0.193 N 
ATOM      2  C   UNL     1       0.154  -4.973   1.160  0.00  0.00    +0.248 C 
ATOM      3  O   UNL     1       0.216  -4.645   2.326  0.00  0.00    -0.273 OA
ATOM      4  C   UNL     1       0.149  -6.383   0.606  0.00  0.00    +0.173 C 
ATOM      5  N   UNL     1       0.059  -6.182  -0.851  0.00  0.00    -0.269 N 
ATOM      6  C   UNL     1       0.016  -4.853  -1.054  0.00  0.00    +0.317 C 
ATOM      7  O   UNL     1      -0.065  -4.340  -2.152  0.00  0.00    -0.252 OA
ENDROOT
BRANCH   1  12
ATOM      8  C   UNL     1      -0.026   1.507   0.387  0.00  0.00    +0.044 C 
ATOM      9  C   UNL     1       0.001   0.003   0.308  0.00  0.00    -0.050 A 
ATOM     10  C   UNL     1       0.069  -0.622  -0.924  0.00  0.00    +0.005 A 
ATOM     11  C   UNL     1       0.093  -2.001  -0.999  0.00  0.00    +0.024 A 
ATOM     12  C   UNL     1       0.050  -2.760   0.163  0.00  0.00    +0.045 A 
ATOM     13  C   UNL     1      -0.018  -2.129   1.397  0.00  0.00    +0.024 A 
ATOM     14  C   UNL     1      -0.036  -0.750   1.467  0.00  0.00    +0.005 A 
ENDBRANCH   1  12
BRANCH   5  15
ATOM     15  C   UNL     1       0.020  -7.226  -1.878  0.00  0.00    +0.145 C 
BRANCH  15  16
ATOM     16  C   UNL     1      -1.413  -7.529  -2.232  0.00  0.00    -0.026 A 
ATOM     17  C   UNL     1      -2.105  -8.503  -1.536  0.00  0.00    +0.009 A 
ATOM     18  C   UNL     1      -3.420  -8.783  -1.857  0.00  0.00    +0.050 A 
ATOM     19  C   UNL     1      -4.048  -8.089  -2.879  0.00  0.00    +0.166 A 
ATOM     20  C   UNL     1      -3.351  -7.108  -3.580  0.00  0.00    +0.167 A 
ATOM     21  C   UNL     1      -2.035  -6.828  -3.249  0.00  0.00    +0.054 A 
ATOM     22  O   UNL     1      -4.179  -6.576  -4.525  0.00  0.00    -0.453 OA
ATOM     23  C   UNL     1      -5.257  -7.520  -4.668  0.00  0.00    +0.466 C 
ATOM     24  O   UNL     1      -5.313  -8.171  -3.385  0.00  0.00    -0.453 OA
ENDBRANCH  15  16
ENDBRANCH   5  15
BRANCH   4  25
ATOM     25  C   UNL     1       1.444  -7.111   0.973  0.00  0.00    +0.128 C 
BRANCH  25  26
ATOM     26  C   UNL     1       1.493  -7.329   2.463  0.00  0.00    +0.219 C 
ATOM     27  O   UNL     1       0.616  -6.880   3.171  0.00  0.00    -0.275 OA
ATOM     28  N   UNL     1       2.511  -8.023   3.010  0.00  0.00    -0.285 N 
ATOM     29  H   UNL     1       3.248  -8.320   2.454  0.00  0.00    +0.155 HD
BRANCH  28  30
ATOM     30  C   UNL     1       2.503  -8.315   4.379  0.00  0.00    +0.034 A 
ATOM     31  C   UNL     1       3.695  -8.345   5.090  0.00  0.00    +0.026 A 
ATOM     32  C   UNL     1       3.686  -8.633   6.441  0.00  0.00    +0.040 A 
ATOM     33  C   UNL     1       2.488  -8.893   7.086  0.00  0.00    +0.124 A 
ATOM     34  C   UNL     1       1.298  -8.864   6.379  0.00  0.00    +0.040 A 
ATOM     35  C   UNL     1       1.303  -8.570   5.029  0.00  0.00    +0.026 A 
ATOM     36  F   UNL     1       2.481  -9.175   8.407  0.00  0.00    -0.205 F 
ENDBRANCH  28  30
ENDBRANCH  25  26
ENDBRANCH   4  25
TORSDOF 6
