REMARK  Name = ZINC09467137
REMARK  11 active torsions:
REMARK  status: ('A' for Active; 'I' for Inactive)
REMARK    1  A    between atoms: C_1  and  C_2
REMARK    2  A    between atoms: C_2  and  C_3
REMARK    3  A    between atoms: C_3  and  C_4
REMARK    4  A    between atoms: C_4  and  N_5
REMARK    5  A    between atoms: C_6  and  N_34
REMARK    6  A    between atoms: C_7  and  N_14
REMARK    7  A    between atoms: N_14  and  C_15
REMARK    8  A    between atoms: C_15  and  C_16
REMARK    9  A    between atoms: C_17  and  C_19
REMARK   10  A    between atoms: C_25  and  C_27
REMARK   11  A    between atoms: C_32  and  C_33
REMARK                            x       y       z     vdW  Elec       q    Type
REMARK                         _______ _______ _______ _____ _____    ______ ____
ROOT
ATOM      1  N   UNL     1      -5.794  -2.873   2.633  0.00  0.00    -0.264 N 
ATOM      2  C   UNL     1      -6.810  -3.756   2.536  0.00  0.00    +0.223 C 
ATOM      3  O   UNL     1      -6.998  -4.352   1.496  0.00  0.00    -0.275 OA
ENDROOT
BRANCH   1   6
ATOM      4  N   UNL     1      -6.397  -0.493   5.367  0.00  0.00    -0.280 N 
ATOM      5  C   UNL     1      -6.589  -1.214   4.211  0.00  0.00    +0.127 A 
ATOM      6  C   UNL     1      -5.626  -2.119   3.813  0.00  0.00    +0.140 A 
ATOM      7  C   UNL     1      -4.473  -2.275   4.605  0.00  0.00    +0.277 A 
ATOM      8  O   UNL     1      -3.606  -3.067   4.277  0.00  0.00    -0.266 OA
ATOM      9  N   UNL     1      -4.333  -1.544   5.729  0.00  0.00    -0.273 N 
ATOM     10  H   UNL     1      -3.539  -1.651   6.275  0.00  0.00    +0.173 HD
ATOM     11  C   UNL     1      -5.280  -0.664   6.098  0.00  0.00    +0.331 A 
ATOM     12  O   UNL     1      -5.127  -0.013   7.113  0.00  0.00    -0.246 OA
BRANCH   5  13
ATOM     13  N   UNL     1      -7.727  -1.036   3.462  0.00  0.00    -0.343 N 
ATOM     14  H   UNL     1      -8.432  -0.451   3.781  0.00  0.00    +0.144 HD
ATOM     15  H   UNL     1      -7.826  -1.495   2.613  0.00  0.00    +0.144 HD
ENDBRANCH   5  13
BRANCH   4  16
ATOM     16  C   UNL     1      -7.411   0.470   5.801  0.00  0.00    +0.128 C 
BRANCH  16  17
ATOM     17  C   UNL     1      -7.108   1.840   5.190  0.00  0.00    +0.021 C 
BRANCH  17  19
ATOM     18  C   UNL     1      -7.864   4.216   5.033  0.00  0.00    +0.004 C 
ATOM     19  C   UNL     1      -8.168   2.847   5.644  0.00  0.00    -0.002 C 
ENDBRANCH  17  19
ENDBRANCH  16  17
ENDBRANCH   4  16
ENDBRANCH   1   6
BRANCH   2  20
ATOM     20  C   UNL     1      -7.711  -4.001   3.718  0.00  0.00    +0.078 C 
ATOM     21  C   UNL     1      -7.087  -5.066   4.623  0.00  0.00    +0.032 C 
ATOM     22  C   UNL     1      -7.989  -5.287   5.841  0.00  0.00    +0.109 C 
ATOM     23  N   UNL     1      -9.344  -5.611   5.374  0.00  0.00    -0.297 N 
ATOM     24  C   UNL     1     -10.002  -4.698   4.429  0.00  0.00    +0.109 C 
ATOM     25  C   UNL     1      -9.078  -4.484   3.226  0.00  0.00    +0.032 C 
ATOM     26  C   UNL     1      -9.971  -6.723   5.804  0.00  0.00    +0.247 C 
ATOM     27  O   UNL     1      -9.448  -7.430   6.644  0.00  0.00    -0.270 OA
BRANCH  26  28
ATOM     28  C   UNL     1     -11.296  -7.085   5.255  0.00  0.00    +0.040 A 
ATOM     29  C   UNL     1     -12.345  -6.165   5.295  0.00  0.00    +0.013 A 
ATOM     30  C   UNL     1     -13.578  -6.508   4.780  0.00  0.00    +0.001 A 
ATOM     31  C   UNL     1     -13.776  -7.761   4.226  0.00  0.00    +0.000 A 
ATOM     32  C   UNL     1     -12.740  -8.676   4.183  0.00  0.00    +0.004 A 
ATOM     33  C   UNL     1     -11.500  -8.344   4.689  0.00  0.00    -0.038 A 
ATOM     34  C   UNL     1     -10.371  -9.341   4.637  0.00  0.00    +0.044 C 
ENDBRANCH  26  28
ENDBRANCH   2  20
BRANCH   1  35
ATOM     35  C   UNL     1      -4.865  -2.699   1.513  0.00  0.00    +0.110 C 
ATOM     36  C   UNL     1      -3.809  -3.805   1.550  0.00  0.00    +0.025 C 
ENDBRANCH   1  35
TORSDOF 8
