REMARK  Name = ZINC39945606
REMARK  7 active torsions:
REMARK  status: ('A' for Active; 'I' for Inactive)
REMARK    1  A    between atoms: C_4  and  N_7
REMARK    2  A    between atoms: C_8  and  S_22
REMARK    3  A    between atoms: C_12  and  C_13
REMARK    4  A    between atoms: S_22  and  C_23
REMARK    5  A    between atoms: C_23  and  C_24
REMARK    6  A    between atoms: N_26  and  C_27
REMARK    7  A    between atoms: C_30  and  N_33
REMARK                            x       y       z     vdW  Elec       q    Type
REMARK                         _______ _______ _______ _____ _____    ______ ____
ROOT
ATOM      1  N   UNL     1       3.749  -0.964   0.189  0.00  0.00    -0.254 N 
ATOM      2  C   UNL     1       4.023  -2.385  -0.079  0.00  0.00    +0.241 C 
ATOM      3  N   UNL     1       5.449  -2.418  -0.443  0.00  0.00    -0.237 N 
ATOM      4  N   UNL     1       5.908  -1.098  -0.373  0.00  0.00    -0.169 NA
ATOM      5  C   UNL     1       4.950  -0.280  -0.024  0.00  0.00    +0.151 C 
ATOM      6  H   UNL     1       5.968  -3.202  -0.683  0.00  0.00    +0.171 HD
ENDROOT
BRANCH   5   7
ATOM      7  C   UNL     1       5.107   1.107   0.123  0.00  0.00    +0.022 C 
ATOM      8  C   UNL     1       6.289   1.838   0.005  0.00  0.00    +0.006 A 
ATOM      9  C   UNL     1       7.619   1.461  -0.279  0.00  0.00    +0.010 A 
ATOM     10  C   UNL     1       8.591   2.409  -0.332  0.00  0.00    +0.001 A 
ATOM     11  C   UNL     1       8.309   3.759  -0.112  0.00  0.00    +0.002 A 
ATOM     12  C   UNL     1       7.055   4.191   0.167  0.00  0.00    +0.026 A 
ATOM     13  C   UNL     1       5.987   3.260   0.238  0.00  0.00    +0.043 A 
ATOM     14  N   UNL     1       4.702   3.423   0.487  0.00  0.00    -0.380 N 
ATOM     15  C   UNL     1       4.030   2.122   0.435  0.00  0.00    +0.152 C 
ATOM     16  H   UNL     1       4.269   4.272   0.671  0.00  0.00    +0.160 HD
ENDBRANCH   5   7
BRANCH   1  20
ATOM     17  C   UNL     1       0.108   0.697   1.339  0.00  0.00    +0.000 A 
ATOM     18  C   UNL     1       0.573   0.880   0.049  0.00  0.00    +0.002 A 
ATOM     19  C   UNL     1       1.780   0.330  -0.336  0.00  0.00    +0.023 A 
ATOM     20  C   UNL     1       2.528  -0.406   0.575  0.00  0.00    +0.038 A 
ATOM     21  C   UNL     1       2.058  -0.588   1.869  0.00  0.00    +0.023 A 
ATOM     22  C   UNL     1       0.850  -0.036   2.247  0.00  0.00    +0.002 A 
ENDBRANCH   1  20
BRANCH   2  23
ATOM     23  S   UNL     1       3.000  -2.980  -1.454  0.00  0.00    -0.108 S 
BRANCH  23  24
ATOM     24  C   UNL     1       3.486  -1.929  -2.849  0.00  0.00    +0.168 C 
BRANCH  24  25
ATOM     25  C   UNL     1       2.700  -2.323  -4.073  0.00  0.00    +0.227 C 
ATOM     26  O   UNL     1       1.891  -3.225  -4.010  0.00  0.00    -0.275 OA
ATOM     27  N   UNL     1       2.896  -1.674  -5.238  0.00  0.00    -0.285 N 
ATOM     28  H   UNL     1       3.594  -1.003  -5.308  0.00  0.00    +0.155 HD
BRANCH  27  29
ATOM     29  C   UNL     1       2.093  -1.968  -6.348  0.00  0.00    +0.034 A 
ATOM     30  C   UNL     1       2.623  -1.890  -7.629  0.00  0.00    +0.025 A 
ATOM     31  C   UNL     1       1.832  -2.180  -8.723  0.00  0.00    +0.025 A 
ATOM     32  C   UNL     1       0.506  -2.551  -8.542  0.00  0.00    +0.030 A 
ATOM     33  C   UNL     1      -0.024  -2.629  -7.260  0.00  0.00    +0.025 A 
ATOM     34  C   UNL     1       0.769  -2.344  -6.167  0.00  0.00    +0.025 A 
BRANCH  32  35
ATOM     35  N   UNL     1      -0.296  -2.845  -9.650  0.00  0.00    -0.330 N 
ATOM     36  C   UNL     1      -1.732  -3.106  -9.486  0.00  0.00    +0.105 C 
ATOM     37  C   UNL     1      -2.512  -2.176 -10.420  0.00  0.00    +0.019 C 
ATOM     38  C   UNL     1      -2.001  -2.351 -11.852  0.00  0.00    +0.003 C 
ATOM     39  C   UNL     1      -0.520  -1.970 -11.916  0.00  0.00    +0.019 C 
ATOM     40  C   UNL     1       0.281  -2.892 -11.000  0.00  0.00    +0.105 C 
ENDBRANCH  32  35
ENDBRANCH  27  29
ENDBRANCH  24  25
ENDBRANCH  23  24
ENDBRANCH   2  23
TORSDOF 7
