REMARK  Name = ZINC10040442
REMARK  12 active torsions:
REMARK  status: ('A' for Active; 'I' for Inactive)
REMARK    1  A    between atoms: C_1  and  C_2
REMARK    2  A    between atoms: C_2  and  C_3
REMARK    3  A    between atoms: C_2  and  C_4
REMARK    4  A    between atoms: C_4  and  C_6
REMARK    5  A    between atoms: C_4  and  N_22
REMARK    6  A    between atoms: N_8  and  N_9
REMARK    7  A    between atoms: C_10  and  C_11
REMARK    8  A    between atoms: C_14  and  O_18
REMARK    9  A    between atoms: O_18  and  C_19
REMARK   10  A    between atoms: C_19  and  C_20
REMARK   11  A    between atoms: C_19  and  C_21
REMARK   12  A    between atoms: C_23  and  C_25
REMARK                            x       y       z     vdW  Elec       q    Type
REMARK                         _______ _______ _______ _____ _____    ______ ____
ROOT
ATOM      1  C   UNL     1       3.874  -4.864  -1.273  0.00  0.00    +0.253 C 
ATOM      2  O   UNL     1       4.536  -4.056  -1.890  0.00  0.00    -0.272 OA
ATOM      3  N   UNL     1       4.292  -6.142  -1.172  0.00  0.00    -0.205 N 
ATOM      4  H   UNL     1       3.731  -6.803  -0.736  0.00  0.00    +0.177 HD
ENDROOT
BRANCH   3   5
ATOM      5  N   UNL     1       5.535  -6.515  -1.698  0.00  0.00    -0.188 NA
ATOM      6  C   UNL     1       5.938  -7.745  -1.601  0.00  0.00    +0.138 C 
BRANCH   6   7
ATOM      7  C   UNL     1       7.247  -8.139  -2.154  0.00  0.00    -0.004 A 
ATOM      8  C   UNL     1       8.053  -7.190  -2.788  0.00  0.00    +0.013 A 
ATOM      9  C   UNL     1       9.278  -7.560  -3.300  0.00  0.00    +0.047 A 
ATOM     10  C   UNL     1       9.707  -8.877  -3.195  0.00  0.00    +0.135 A 
ATOM     11  C   UNL     1       8.906  -9.825  -2.570  0.00  0.00    +0.060 A 
ATOM     12  C   UNL     1       7.682  -9.462  -2.051  0.00  0.00    +0.028 A 
ATOM     13 BR   UNL     1       9.497 -11.617  -2.433  0.00  0.00    -0.046 Br
BRANCH  10  14
ATOM     14  O   UNL     1      10.913  -9.239  -3.705  0.00  0.00    -0.488 OA
BRANCH  14  15
ATOM     15  C   UNL     1      11.737  -8.194  -4.225  0.00  0.00    +0.167 C 
ATOM     16  C   UNL     1      13.204  -8.625  -4.168  0.00  0.00    +0.051 C 
ATOM     17  C   UNL     1      11.345  -7.910  -5.677  0.00  0.00    +0.051 C 
ENDBRANCH  14  15
ENDBRANCH  10  14
ENDBRANCH   6   7
ENDBRANCH   3   5
BRANCH   1  18
ATOM     18  C   UNL     1       2.585  -4.440  -0.618  0.00  0.00    +0.163 C 
BRANCH  18  19
ATOM     19  N   UNL     1       1.991  -3.338  -1.379  0.00  0.00    -0.300 N 
ATOM     20  C   UNL     1       0.662  -3.120  -1.325  0.00  0.00    +0.245 C 
ATOM     21  O   UNL     1      -0.044  -3.839  -0.644  0.00  0.00    -0.270 OA
ATOM     22  H   UNL     1       2.554  -2.764  -1.922  0.00  0.00    +0.150 HD
BRANCH  20  23
ATOM     23  C   UNL     1       0.062  -2.009  -2.093  0.00  0.00    +0.037 A 
ATOM     24  C   UNL     1      -1.314  -1.781  -2.038  0.00  0.00    +0.014 A 
ATOM     25  C   UNL     1      -1.867  -0.743  -2.757  0.00  0.00    +0.021 A 
ATOM     26  C   UNL     1      -1.060   0.074  -3.532  0.00  0.00    +0.041 A 
ATOM     27  C   UNL     1       0.306  -0.147  -3.590  0.00  0.00    +0.021 A 
ATOM     28  C   UNL     1       0.871  -1.182  -2.876  0.00  0.00    +0.014 A 
ATOM     29 CL   UNL     1      -1.764   1.379  -4.435  0.00  0.00    -0.084 Cl
ENDBRANCH  20  23
ENDBRANCH  18  19
BRANCH  18  31
ATOM     30  C   UNL     1       1.551  -3.602   1.496  0.00  0.00    +0.009 C 
ATOM     31  C   UNL     1       2.867  -3.977   0.813  0.00  0.00    +0.012 C 
ATOM     32  C   UNL     1       3.541  -5.109   1.591  0.00  0.00    +0.009 C 
ENDBRANCH  18  31
ENDBRANCH   1  18
TORSDOF 8
