REMARK  Name = ZINC03670458
REMARK  8 active torsions:
REMARK  status: ('A' for Active; 'I' for Inactive)
REMARK    1  A    between atoms: C_1  and  C_2
REMARK    2  A    between atoms: C_2  and  C_3
REMARK    3  A    between atoms: C_6  and  N_9
REMARK    4  A    between atoms: C_19  and  C_20
REMARK    5  A    between atoms: C_19  and  O_31
REMARK    6  A    between atoms: N_22  and  C_23
REMARK    7  A    between atoms: C_23  and  C_24
REMARK    8  A    between atoms: C_27  and  C_30
REMARK                            x       y       z     vdW  Elec       q    Type
REMARK                         _______ _______ _______ _____ _____    ______ ____
ROOT
ATOM      1  N   UNL     1       0.015   5.267   3.774  0.00  0.00    -0.214 N 
ATOM      2  C   UNL     1       0.239   4.867   5.039  0.00  0.00    +0.314 C 
ATOM      3  O   UNL     1      -0.718   4.665   5.761  0.00  0.00    -0.252 OA
ATOM      4  N   UNL     1       1.467   4.682   5.539  0.00  0.00    -0.269 N 
ATOM      5  C   UNL     1       2.630   4.886   4.795  0.00  0.00    +0.043 A 
ATOM      6  C   UNL     1       3.880   4.678   5.361  0.00  0.00    +0.025 A 
ATOM      7  C   UNL     1       5.019   4.888   4.609  0.00  0.00    +0.017 A 
ATOM      8  C   UNL     1       4.921   5.301   3.292  0.00  0.00    +0.018 A 
ATOM      9  C   UNL     1       3.675   5.508   2.722  0.00  0.00    +0.025 A 
ATOM     10  C   UNL     1       2.540   5.301   3.471  0.00  0.00    +0.034 A 
ATOM     11  C   UNL     1       1.163   5.517   2.885  0.00  0.00    +0.247 C 
ATOM     12 BR   UNL     1       6.487   5.582   2.270  0.00  0.00    -0.050 Br
ATOM     13  H   UNL     1       1.552   4.392   6.461  0.00  0.00    +0.156 HD
ENDROOT
BRANCH   1  17
ATOM     14  C   UNL     1      -3.878   5.791   2.386  0.00  0.00    -0.048 A 
ATOM     15  C   UNL     1      -3.305   4.532   2.374  0.00  0.00    +0.005 A 
ATOM     16  C   UNL     1      -2.015   4.356   2.833  0.00  0.00    +0.024 A 
ATOM     17  C   UNL     1      -1.293   5.443   3.308  0.00  0.00    +0.041 A 
ATOM     18  C   UNL     1      -1.873   6.704   3.324  0.00  0.00    +0.024 A 
ATOM     19  C   UNL     1      -3.162   6.876   2.858  0.00  0.00    +0.005 A 
BRANCH  14  21
ATOM     20  C   UNL     1      -6.269   5.801   3.044  0.00  0.00    +0.009 C 
ATOM     21  C   UNL     1      -5.287   5.980   1.885  0.00  0.00    +0.032 C 
ENDBRANCH  14  21
ENDBRANCH   1  17
BRANCH  11  22
ATOM     22  C   UNL     1       1.024   4.619   1.683  0.00  0.00    +0.269 C 
ATOM     23  O   UNL     1       1.032   5.095   0.567  0.00  0.00    -0.270 OA
ATOM     24  N   UNL     1       0.890   3.288   1.847  0.00  0.00    -0.307 N 
ATOM     25  H   UNL     1       0.883   2.908   2.739  0.00  0.00    +0.149 HD
BRANCH  24  26
ATOM     26  C   UNL     1       0.754   2.416   0.678  0.00  0.00    +0.139 C 
BRANCH  26  27
ATOM     27  C   UNL     1       0.620   0.985   1.131  0.00  0.00    -0.030 A 
ATOM     28  C   UNL     1      -0.631   0.454   1.384  0.00  0.00    +0.005 A 
ATOM     29  C   UNL     1      -0.753  -0.859   1.799  0.00  0.00    +0.003 A 
ATOM     30  C   UNL     1       0.375  -1.640   1.962  0.00  0.00    -0.050 A 
ATOM     31  C   UNL     1       1.626  -1.109   1.710  0.00  0.00    +0.003 A 
ATOM     32  C   UNL     1       1.749   0.203   1.294  0.00  0.00    +0.005 A 
ATOM     33  C   UNL     1       0.241  -3.071   2.416  0.00  0.00    +0.044 C 
ENDBRANCH  26  27
ENDBRANCH  24  26
ENDBRANCH  11  22
BRANCH  11  34
ATOM     34  O   UNL     1       1.084   6.870   2.433  0.00  0.00    -0.360 OA
ATOM     35  H   UNL     1       1.770   7.112   1.796  0.00  0.00    +0.213 HD
ENDBRANCH  11  34
TORSDOF 6
