REMARK  Name = ZINC35782900
REMARK  12 active torsions:
REMARK  status: ('A' for Active; 'I' for Inactive)
REMARK    1  A    between atoms: C_1  and  C_2
REMARK    2  A    between atoms: C_3  and  C_27
REMARK    3  A    between atoms: C_4  and  N_14
REMARK    4  A    between atoms: C_6  and  C_8
REMARK    5  A    between atoms: N_17  and  C_20
REMARK    6  A    between atoms: C_20  and  C_21
REMARK    7  A    between atoms: C_21  and  C_23
REMARK    8  A    between atoms: C_21  and  O_26
REMARK    9  A    between atoms: C_23  and  C_24
REMARK   10  A    between atoms: C_23  and  C_25
REMARK   11  A    between atoms: C_27  and  C_28
REMARK   12  A    between atoms: C_31  and  N_34
REMARK                            x       y       z     vdW  Elec       q    Type
REMARK                         _______ _______ _______ _____ _____    ______ ____
ROOT
ATOM      1  C   UNL     1      -0.656   1.495   0.153  0.00  0.00    +0.066 C 
ATOM      2  C   UNL     1      -0.446   0.004   0.082  0.00  0.00    +0.047 A 
ATOM      3  C   UNL     1      -0.210  -0.611  -1.133  0.00  0.00    +0.018 A 
ATOM      4  C   UNL     1      -0.021  -1.995  -1.154  0.00  0.00    +0.129 A 
ATOM      5  N   UNL     1      -0.072  -2.670  -0.011  0.00  0.00    -0.212 NA
ATOM      6  C   UNL     1      -0.300  -2.042   1.134  0.00  0.00    +0.162 A 
ATOM      7  N   UNL     1      -0.479  -0.729   1.184  0.00  0.00    -0.232 NA
ENDROOT
BRANCH   6   8
ATOM      8  C   UNL     1      -0.352  -2.828   2.391  0.00  0.00    +0.019 A 
ATOM      9  C   UNL     1      -0.156  -4.207   2.363  0.00  0.00    +0.011 A 
ATOM     10  C   UNL     1      -0.205  -4.933   3.536  0.00  0.00    +0.001 A 
ATOM     11  C   UNL     1      -0.447  -4.293   4.738  0.00  0.00    +0.000 A 
ATOM     12  C   UNL     1      -0.642  -2.924   4.772  0.00  0.00    +0.001 A 
ATOM     13  C   UNL     1      -0.591  -2.188   3.606  0.00  0.00    +0.011 A 
ENDBRANCH   6   8
BRANCH   4  14
ATOM     14  N   UNL     1       0.217  -2.653  -2.350  0.00  0.00    -0.312 N 
ATOM     15  C   UNL     1       1.587  -2.992  -2.765  0.00  0.00    +0.122 C 
ATOM     16  C   UNL     1       1.631  -4.479  -3.133  0.00  0.00    +0.103 C 
ATOM     17  N   UNL     1       0.590  -4.764  -4.130  0.00  0.00    -0.297 NA
ATOM     18  C   UNL     1      -0.752  -4.518  -3.586  0.00  0.00    +0.103 C 
ATOM     19  C   UNL     1      -0.893  -3.038  -3.234  0.00  0.00    +0.122 C 
BRANCH  17  20
ATOM     20  C   UNL     1       0.709  -6.138  -4.636  0.00  0.00    +0.116 C 
BRANCH  20  21
ATOM     21  C   UNL     1      -0.219  -6.320  -5.839  0.00  0.00    +0.131 C 
BRANCH  21  22
ATOM     22  C   UNL     1      -0.190  -7.782  -6.289  0.00  0.00    +0.013 C 
ATOM     23  C   UNL     1      -0.660  -8.678  -5.142  0.00  0.00    +0.010 C 
ATOM     24  C   UNL     1      -1.117  -7.964  -7.492  0.00  0.00    +0.010 C 
ENDBRANCH  21  22
BRANCH  21  25
ATOM     25  O   UNL     1       0.221  -5.483  -6.911  0.00  0.00    -0.390 OA
ATOM     26  H   UNL     1       1.120  -5.671  -7.213  0.00  0.00    +0.210 HD
ENDBRANCH  21  25
ENDBRANCH  20  21
ENDBRANCH  17  20
ENDBRANCH   4  14
BRANCH   3  27
ATOM     27  C   UNL     1      -0.161   0.193  -2.407  0.00  0.00    +0.075 C 
BRANCH  27  28
ATOM     28  C   UNL     1       1.220   0.772  -2.582  0.00  0.00    -0.043 A 
ATOM     29  C   UNL     1       1.563   1.947  -1.940  0.00  0.00    +0.006 A 
ATOM     30  C   UNL     1       2.830   2.478  -2.100  0.00  0.00    +0.033 A 
ATOM     31  C   UNL     1       3.753   1.833  -2.902  0.00  0.00    +0.126 A 
ATOM     32  C   UNL     1       3.410   0.657  -3.543  0.00  0.00    +0.033 A 
ATOM     33  C   UNL     1       2.145   0.124  -3.379  0.00  0.00    +0.006 A 
BRANCH  31  34
ATOM     34  N   UNL     1       5.108   2.402  -3.075  0.00  0.00    +0.056 N 
ATOM     35  O   UNL     1       5.408   3.430  -2.514  0.00  0.00    -0.126 OA
ATOM     36  O   UNL     1       5.916   1.838  -3.776  0.00  0.00    -0.126 OA
ENDBRANCH  31  34
ENDBRANCH  27  28
ENDBRANCH   3  27
TORSDOF 9
