REMARK  Name = ZINC16572154
REMARK  6 active torsions:
REMARK  status: ('A' for Active; 'I' for Inactive)
REMARK    1  A    between atoms: C_4  and  C_7
REMARK    2  A    between atoms: C_7  and  C_8
REMARK    3  A    between atoms: C_8  and  C_10
REMARK    4  A    between atoms: C_8  and  N_25
REMARK    5  A    between atoms: C_16  and  C_18
REMARK    6  A    between atoms: C_26  and  C_28
REMARK                            x       y       z     vdW  Elec       q    Type
REMARK                         _______ _______ _______ _____ _____    ______ ____
ROOT
ATOM      1  C   UNL     1       4.171  -0.963   1.399  0.00  0.00    +0.163 C 
ENDROOT
BRANCH   1   2
ATOM      2  C   UNL     1       5.543  -1.588   1.383  0.00  0.00    +0.239 C 
ATOM      3  O   UNL     1       5.715  -2.683   1.875  0.00  0.00    -0.273 OA
ATOM      4  N   UNL     1       6.577  -0.931   0.823  0.00  0.00    -0.262 N 
ATOM      5  C   UNL     1       7.841  -1.507   0.808  0.00  0.00    +0.188 A 
ATOM      6  N   UNL     1       8.226  -2.678   1.281  0.00  0.00    -0.125 NA
ATOM      7  N   UNL     1       9.423  -3.072   1.194  0.00  0.00    -0.140 NA
ATOM      8  C   UNL     1      10.317  -2.284   0.610  0.00  0.00    +0.134 A 
ATOM      9  S   UNL     1       9.279  -0.895   0.176  0.00  0.00    -0.030 S 
ATOM     10  H   UNL     1       6.438  -0.055   0.429  0.00  0.00    +0.157 HD
BRANCH   8  11
ATOM     11  C   UNL     1      11.761  -2.497   0.379  0.00  0.00    +0.010 A 
ATOM     12  C   UNL     1      12.521  -1.515  -0.259  0.00  0.00    +0.011 A 
ATOM     13  C   UNL     1      13.869  -1.719  -0.472  0.00  0.00    +0.002 A 
ATOM     14  C   UNL     1      14.468  -2.894  -0.053  0.00  0.00    +0.015 A 
ATOM     15  C   UNL     1      13.721  -3.872   0.580  0.00  0.00    +0.019 A 
ATOM     16  C   UNL     1      12.373  -3.677   0.804  0.00  0.00    +0.026 A 
ATOM     17 BR   UNL     1      14.550  -5.474   1.147  0.00  0.00    -0.050 Br
ENDBRANCH   8  11
ENDBRANCH   1   2
BRANCH   1  18
ATOM     18  N   UNL     1       3.229  -1.870   2.059  0.00  0.00    -0.303 N 
ATOM     19  C   UNL     1       2.116  -1.379   2.640  0.00  0.00    +0.217 C 
ATOM     20  O   UNL     1       1.895  -0.187   2.616  0.00  0.00    -0.275 OA
ATOM     21  H   UNL     1       3.406  -2.823   2.078  0.00  0.00    +0.149 HD
BRANCH  19  22
ATOM     22  C   UNL     1       1.147  -2.312   3.320  0.00  0.00    +0.075 C 
ATOM     23  C   UNL     1       0.617  -3.325   2.303  0.00  0.00    +0.013 C 
ATOM     24  C   UNL     1      -0.368  -4.272   2.993  0.00  0.00    +0.001 C 
ATOM     25  C   UNL     1      -1.535  -3.465   3.566  0.00  0.00    +0.000 C 
ATOM     26  C   UNL     1      -1.005  -2.452   4.582  0.00  0.00    +0.001 C 
ATOM     27  C   UNL     1      -0.021  -1.505   3.892  0.00  0.00    +0.013 C 
ENDBRANCH  19  22
ENDBRANCH   1  18
BRANCH   1  28
ATOM     28  C   UNL     1       3.711  -0.707  -0.038  0.00  0.00    +0.067 C 
BRANCH  28  32
ATOM     29  C   UNL     1      -0.017   1.378   0.010  0.00  0.00    +0.000 A 
ATOM     30  C   UNL     1       1.171   2.086   0.002  0.00  0.00    +0.000 A 
ATOM     31  C   UNL     1       2.377   1.411  -0.013  0.00  0.00    +0.004 A 
ATOM     32  C   UNL     1       2.396   0.029  -0.020  0.00  0.00    -0.045 A 
ATOM     33  C   UNL     1       1.208  -0.679  -0.012  0.00  0.00    +0.004 A 
ATOM     34  C   UNL     1       0.002  -0.004   0.002  0.00  0.00    +0.000 A 
ENDBRANCH  28  32
ENDBRANCH   1  28
TORSDOF 6
