REMARK  Name = ZINC09251763
REMARK  4 active torsions:
REMARK  status: ('A' for Active; 'I' for Inactive)
REMARK    1  A    between atoms: C_1  and  C_2
REMARK    2  A    between atoms: N_11  and  S_12
REMARK    3  A    between atoms: S_12  and  C_15
REMARK    4  A    between atoms: C_24  and  C_29
REMARK                            x       y       z     vdW  Elec       q    Type
REMARK                         _______ _______ _______ _____ _____    ______ ____
ROOT
ATOM      1  C   UNL     1       3.470   1.664   0.861  0.00  0.00    +0.110 A 
ATOM      2  C   UNL     1       3.737   2.792   0.105  0.00  0.00    +0.031 A 
ATOM      3  C   UNL     1       2.754   3.329  -0.696  0.00  0.00    +0.027 A 
ATOM      4  C   UNL     1       1.485   2.748  -0.757  0.00  0.00    +0.055 A 
ATOM      5  C   UNL     1       1.218   1.619  -0.001  0.00  0.00    +0.057 A 
ATOM      6  C   UNL     1       2.222   1.083   0.809  0.00  0.00    +0.054 A 
ATOM      7  N   UNL     1      -0.011   0.966   0.007  0.00  0.00    -0.283 N 
ATOM      8  C   UNL     1      -1.203   1.558   0.017  0.00  0.00    +0.229 C 
ATOM      9  O   UNL     1      -2.206   0.876   0.058  0.00  0.00    -0.275 OA
ATOM     10  C   UNL     1      -1.330   3.058  -0.018  0.00  0.00    +0.158 C 
ATOM     11  C   UNL     1      -0.732   3.549  -1.311  0.00  0.00    +0.229 C 
ATOM     12  O   UNL     1      -1.437   4.129  -2.110  0.00  0.00    -0.275 OA
ATOM     13  N   UNL     1       0.554   3.357  -1.593  0.00  0.00    -0.283 N 
ATOM     14  C   UNL     1      -0.577   3.671   1.164  0.00  0.00    +0.027 C 
ATOM     15  H   UNL     1       0.002  -0.004   0.002  0.00  0.00    +0.155 HD
ATOM     16  H   UNL     1       0.870   3.668  -2.456  0.00  0.00    +0.155 HD
ENDROOT
BRANCH   1  17
ATOM     17  S   UNL     1       4.724   0.973   1.888  0.00  0.00    +0.074 S 
ATOM     18  O   UNL     1       4.389  -0.396   2.073  0.00  0.00    -0.150 OA
ATOM     19  O   UNL     1       5.970   1.385   1.341  0.00  0.00    -0.150 OA
BRANCH  17  30
ATOM     20  C   UNL     1      -1.719   0.640   7.762  0.00  0.00    +0.044 C 
ATOM     21  C   UNL     1      -0.642   0.658   6.708  0.00  0.00    -0.049 A 
ATOM     22  C   UNL     1      -0.802  -0.057   5.530  0.00  0.00    +0.005 A 
ATOM     23  C   UNL     1       0.163  -0.058   4.556  0.00  0.00    +0.029 A 
ATOM     24  C   UNL     1       1.359   0.677   4.724  0.00  0.00    +0.080 A 
ATOM     25  C   UNL     1       1.488   1.393   5.935  0.00  0.00    +0.041 A 
ATOM     26  C   UNL     1       0.517   1.387   6.905  0.00  0.00    +0.020 A 
ATOM     27  S   UNL     1       3.085   2.151   5.760  0.00  0.00    -0.051 S 
ATOM     28  C   UNL     1       3.466   1.499   4.140  0.00  0.00    +0.179 A 
ATOM     29  N   UNL     1       2.401   0.781   3.869  0.00  0.00    -0.224 NA
ATOM     30  N   UNL     1       4.596   1.696   3.372  0.00  0.00    -0.194 N 
ATOM     31  H   UNL     1       5.314   2.259   3.701  0.00  0.00    +0.176 HD
ENDBRANCH  17  30
ENDBRANCH   1  17
TORSDOF 2
