REMARK  Name = ZINC18193973
REMARK  6 active torsions:
REMARK  status: ('A' for Active; 'I' for Inactive)
REMARK    1  A    between atoms: C_1  and  N_2
REMARK    2  A    between atoms: C_3  and  S_16
REMARK    3  A    between atoms: N_4  and  C_5
REMARK    4  A    between atoms: C_9  and  C_11
REMARK    5  A    between atoms: S_16  and  C_17
REMARK    6  A    between atoms: N_22  and  C_25
REMARK                            x       y       z     vdW  Elec       q    Type
REMARK                         _______ _______ _______ _____ _____    ______ ____
ROOT
ATOM      1  C   UNL     1      -1.749  -2.254   1.851  0.00  0.00    +0.127 C 
ATOM      2  N   UNL     1      -0.949  -2.000   0.651  0.00  0.00    -0.327 N 
ATOM      3  C   UNL     1      -0.865  -0.728   0.139  0.00  0.00    +0.155 C 
ATOM      4  N   UNL     1      -0.251  -0.519  -1.004  0.00  0.00    -0.226 NA
ATOM      5  H   UNL     1      -0.480  -2.729   0.217  0.00  0.00    +0.148 HD
ENDROOT
BRANCH   4   6
ATOM      6  C   UNL     1      -0.320   0.710  -1.604  0.00  0.00    +0.067 A 
ATOM      7  C   UNL     1      -1.522   1.154  -2.159  0.00  0.00    +0.029 A 
ATOM      8  C   UNL     1      -1.584   2.393  -2.761  0.00  0.00    +0.022 A 
ATOM      9  C   UNL     1      -0.458   3.196  -2.817  0.00  0.00    +0.053 A 
ATOM     10  C   UNL     1       0.737   2.762  -2.269  0.00  0.00    +0.075 A 
ATOM     11  C   UNL     1       0.811   1.528  -1.658  0.00  0.00    +0.041 A 
ATOM     12 CL   UNL     1      -0.544   4.755  -3.578  0.00  0.00    -0.083 Cl
BRANCH  10  13
ATOM     13  C   UNL     1       1.959   3.643  -2.336  0.00  0.00    +0.419 C 
ATOM     14  F   UNL     1       3.035   2.994  -1.721  0.00  0.00    -0.166 F 
ATOM     15  F   UNL     1       2.274   3.903  -3.674  0.00  0.00    -0.166 F 
ATOM     16  F   UNL     1       1.701   4.848  -1.674  0.00  0.00    -0.166 F 
ENDBRANCH  10  13
ENDBRANCH   4   6
BRANCH   3  17
ATOM     17  S   UNL     1      -1.578   0.624   1.015  0.00  0.00    -0.077 S 
BRANCH  17  18
ATOM     18  C   UNL     1      -3.059  -0.086   1.786  0.00  0.00    +0.149 C 
ATOM     19  C   UNL     1      -3.942   1.025   2.390  0.00  0.00    +0.120 C 
ATOM     20  C   UNL     1      -5.241   0.901   1.623  0.00  0.00    +0.228 C 
ATOM     21  O   UNL     1      -6.221   1.596   1.785  0.00  0.00    -0.275 OA
ATOM     22  N   UNL     1      -5.135  -0.097   0.737  0.00  0.00    -0.209 N 
ATOM     23  C   UNL     1      -3.949  -0.724   0.743  0.00  0.00    +0.240 C 
ATOM     24  O   UNL     1      -3.638  -1.653   0.028  0.00  0.00    -0.274 OA
BRANCH  22  25
ATOM     25  C   UNL     1      -6.180  -0.459  -0.126  0.00  0.00    +0.047 A 
ATOM     26  C   UNL     1      -7.398  -0.874   0.394  0.00  0.00    +0.044 A 
ATOM     27  C   UNL     1      -8.426  -1.230  -0.459  0.00  0.00    +0.044 A 
ATOM     28  C   UNL     1      -8.241  -1.173  -1.829  0.00  0.00    +0.040 A 
ATOM     29  C   UNL     1      -7.028  -0.759  -2.349  0.00  0.00    +0.044 A 
ATOM     30  C   UNL     1      -5.998  -0.397  -1.501  0.00  0.00    +0.044 A 
ATOM     31 CL   UNL     1      -6.800  -0.689  -4.069  0.00  0.00    -0.083 Cl
ATOM     32 CL   UNL     1      -9.950  -1.751   0.190  0.00  0.00    -0.083 Cl
ENDBRANCH  22  25
ENDBRANCH  17  18
ENDBRANCH   3  17
TORSDOF 5
