REMARK  Name = ZINC01901813
REMARK  10 active torsions:
REMARK  status: ('A' for Active; 'I' for Inactive)
REMARK    1  A    between atoms: C_1  and  C_2
REMARK    2  A    between atoms: C_2  and  O_3
REMARK    3  A    between atoms: O_3  and  C_4
REMARK    4  A    between atoms: C_4  and  C_6
REMARK    5  A    between atoms: C_6  and  N_7
REMARK    6  A    between atoms: N_7  and  S_8
REMARK    7  A    between atoms: S_8  and  C_11
REMARK    8  A    between atoms: C_13  and  C_18
REMARK    9  A    between atoms: C_16  and  C_17
REMARK   10  A    between atoms: N_26  and  C_27
REMARK                            x       y       z     vdW  Elec       q    Type
REMARK                         _______ _______ _______ _____ _____    ______ ____
ROOT
ATOM      1  C   UNL     1      -1.650   2.854  -5.308  0.00  0.00    +0.099 A 
ATOM      2  C   UNL     1      -1.146   3.162  -6.656  0.00  0.00    +0.013 A 
ATOM      3  C   UNL     1       0.164   3.580  -6.878  0.00  0.00    +0.011 A 
ATOM      4  C   UNL     1       0.580   3.858  -8.163  0.00  0.00    +0.001 A 
ATOM      5  C   UNL     1      -0.290   3.727  -9.237  0.00  0.00    +0.001 A 
ATOM      6  C   UNL     1      -1.591   3.313  -9.040  0.00  0.00    +0.012 A 
ATOM      7  C   UNL     1      -2.028   3.027  -7.752  0.00  0.00    +0.028 A 
ATOM      8  C   UNL     1      -3.402   2.573  -7.462  0.00  0.00    +0.155 A 
ATOM      9  N   UNL     1      -4.409   2.821  -8.277  0.00  0.00    -0.228 NA
ATOM     10  N   UNL     1      -3.567   1.871  -6.281  0.00  0.00    -0.260 N 
ATOM     11  H   UNL     1      -4.197   1.135  -6.226  0.00  0.00    +0.191 HD
ATOM     12  N   UNL     1      -2.802   2.243  -5.165  0.00  0.00    -0.172 NA
ENDROOT
BRANCH   1  15
ATOM     13  C   UNL     1      -0.136   2.774  -1.870  0.00  0.00    +0.109 A 
ATOM     14  C   UNL     1      -0.878   2.421  -2.978  0.00  0.00    +0.039 A 
ATOM     15  C   UNL     1      -0.855   3.227  -4.115  0.00  0.00    +0.005 A 
ATOM     16  C   UNL     1      -0.081   4.387  -4.125  0.00  0.00    +0.010 A 
ATOM     17  C   UNL     1       0.657   4.730  -3.011  0.00  0.00    +0.006 A 
ATOM     18  C   UNL     1       0.626   3.929  -1.884  0.00  0.00    -0.024 A 
ATOM     19  C   UNL     1       1.430   4.312  -0.668  0.00  0.00    +0.046 C 
BRANCH  13  20
ATOM     20  S   UNL     1      -0.164   1.757  -0.432  0.00  0.00    +0.059 S 
ATOM     21  O   UNL     1       1.191   1.548  -0.056  0.00  0.00    -0.153 OA
ATOM     22  O   UNL     1      -1.051   0.683  -0.711  0.00  0.00    -0.153 OA
BRANCH  20  23
ATOM     23  N   UNL     1      -0.860   2.643   0.781  0.00  0.00    -0.179 NA
ATOM     24  H   UNL     1      -0.338   2.897   1.558  0.00  0.00    +0.149 HD
BRANCH  23  25
ATOM     25  C   UNL     1      -2.264   3.048   0.679  0.00  0.00    +0.226 C 
BRANCH  25  26
ATOM     26  C   UNL     1      -2.752   3.517   2.026  0.00  0.00    +0.323 C 
ATOM     27  O   UNL     1      -2.003   3.513   2.974  0.00  0.00    -0.249 OA
BRANCH  26  28
ATOM     28  O   UNL     1      -4.017   3.939   2.172  0.00  0.00    -0.464 OA
BRANCH  28  30
ATOM     29  C   UNL     1      -5.882   4.817   3.468  0.00  0.00    +0.048 C 
ATOM     30  C   UNL     1      -4.418   4.376   3.497  0.00  0.00    +0.229 C 
ENDBRANCH  28  30
ENDBRANCH  26  28
ENDBRANCH  25  26
ENDBRANCH  23  25
ENDBRANCH  20  23
ENDBRANCH  13  20
ENDBRANCH   1  15
BRANCH   9  31
ATOM     31  C   UNL     1      -5.681   2.477  -7.916  0.00  0.00    +0.067 A 
ATOM     32  C   UNL     1      -6.165   1.194  -8.187  0.00  0.00    +0.028 A 
ATOM     33  C   UNL     1      -7.448   0.852  -7.815  0.00  0.00    +0.003 A 
ATOM     34  C   UNL     1      -8.260   1.779  -7.185  0.00  0.00    +0.015 A 
ATOM     35  C   UNL     1      -7.789   3.054  -6.918  0.00  0.00    +0.020 A 
ATOM     36  C   UNL     1      -6.505   3.408  -7.279  0.00  0.00    +0.043 A 
ATOM     37 BR   UNL     1      -8.908   4.311  -6.056  0.00  0.00    -0.050 Br
ENDBRANCH   9  31
TORSDOF 8
