REMARK  Name = ZINC26614994
REMARK  13 active torsions:
REMARK  status: ('A' for Active; 'I' for Inactive)
REMARK    1  A    between atoms: C_1  and  C_2
REMARK    2  A    between atoms: C_2  and  N_3
REMARK    3  A    between atoms: N_3  and  C_4
REMARK    4  A    between atoms: N_3  and  C_6
REMARK    5  A    between atoms: C_4  and  C_5
REMARK    6  A    between atoms: C_6  and  C_8
REMARK    7  A    between atoms: C_6  and  C_32
REMARK    8  A    between atoms: C_8  and  N_9
REMARK    9  A    between atoms: C_10  and  C_12
REMARK   10  A    between atoms: C_12  and  S_13
REMARK   11  A    between atoms: S_13  and  C_14
REMARK   12  A    between atoms: C_17  and  C_22
REMARK   13  A    between atoms: N_18  and  C_19
REMARK                            x       y       z     vdW  Elec       q    Type
REMARK                         _______ _______ _______ _____ _____    ______ ____
ROOT
ATOM      1  S   UNL     1      -8.364   6.365  -0.525  0.00  0.00    -0.077 S 
ENDROOT
BRANCH   1   2
ATOM      2  C   UNL     1      -7.304   5.104  -1.150  0.00  0.00    +0.193 A 
ATOM      3  N   UNL     1      -6.036   5.236  -1.461  0.00  0.00    -0.122 NA
ATOM      4  N   UNL     1      -5.567   4.118  -1.888  0.00  0.00    -0.128 NA
ATOM      5  C   UNL     1      -6.508   3.202  -1.875  0.00  0.00    +0.167 A 
ATOM      6  N   UNL     1      -7.652   3.806  -1.408  0.00  0.00    -0.299 N 
BRANCH   5   7
ATOM      7  C   UNL     1      -6.366   1.792  -2.290  0.00  0.00    +0.044 A 
ATOM      8  C   UNL     1      -7.296   0.811  -2.162  0.00  0.00    +0.095 A 
ATOM      9  N   UNL     1      -6.801  -0.361  -2.656  0.00  0.00    -0.360 N 
ATOM     10  H   UNL     1      -7.416  -1.273  -2.629  0.00  0.00    +0.165 HD
ATOM     11  C   UNL     1      -5.523  -0.173  -3.136  0.00  0.00    +0.047 A 
ATOM     12  C   UNL     1      -5.191   1.177  -2.931  0.00  0.00    +0.010 A 
ATOM     13  C   UNL     1      -3.943   1.656  -3.325  0.00  0.00    +0.011 A 
ATOM     14  C   UNL     1      -3.039   0.801  -3.914  0.00  0.00    +0.001 A 
ATOM     15  C   UNL     1      -3.366  -0.532  -4.117  0.00  0.00    +0.002 A 
ATOM     16  C   UNL     1      -4.596  -1.020  -3.733  0.00  0.00    +0.026 A 
ENDBRANCH   5   7
BRANCH   6  17
ATOM     17  C   UNL     1      -8.967   3.188  -1.222  0.00  0.00    +0.091 C 
ATOM     18  C   UNL     1     -10.167   4.120  -1.043  0.00  0.00    +0.027 C 
ATOM     19  C   UNL     1      -9.627   3.330   0.151  0.00  0.00    +0.027 C 
ENDBRANCH   6  17
ENDBRANCH   1   2
BRANCH   1  20
ATOM     20  C   UNL     1      -7.203   7.753  -0.471  0.00  0.00    +0.173 C 
BRANCH  20  22
ATOM     21  N   UNL     1      -7.237  10.140   0.175  0.00  0.00    -0.316 N 
ATOM     22  C   UNL     1      -7.909   8.979   0.048  0.00  0.00    +0.223 C 
ATOM     23  O   UNL     1      -9.081   8.920   0.352  0.00  0.00    -0.275 OA
ATOM     24  H   UNL     1      -6.173  10.194  -0.101  0.00  0.00    +0.149 HD
BRANCH  21  25
ATOM     25  C   UNL     1      -7.923  11.332   0.680  0.00  0.00    +0.096 C 
BRANCH  25  26
ATOM     26  C   UNL     1      -6.942  12.505   0.725  0.00  0.00    +0.016 C 
BRANCH  26  27
ATOM     27  C   UNL     1      -7.682  13.766   1.091  0.00  0.00    +0.093 A 
ATOM     28  C   UNL     1      -7.571  14.434   2.253  0.00  0.00    +0.043 A 
ATOM     29  C   UNL     1      -8.437  15.548   2.169  0.00  0.00    +0.041 A 
ATOM     30  C   UNL     1      -9.025  15.494   0.961  0.00  0.00    +0.195 A 
ATOM     31  O   UNL     1      -8.560  14.416   0.310  0.00  0.00    -0.469 OA
ENDBRANCH  26  27
BRANCH  26  32
ATOM     32  N   UNL     1      -6.315  12.670  -0.593  0.00  0.00    +0.387 N 
ATOM     33  H   UNL     1      -5.731  11.763  -0.806  0.00  0.00    -0.081 HD
BRANCH  32  35
ATOM     34  C   UNL     1      -7.682  11.428  -2.201  0.00  0.00    -0.017 C 
ATOM     35  C   UNL     1      -7.331  12.810  -1.645  0.00  0.00    -0.081 C 
ENDBRANCH  32  35
BRANCH  32  36
ATOM     36  C   UNL     1      -5.392  13.813  -0.598  0.00  0.00    -0.081 C 
ATOM     37  C   UNL     1      -4.493  13.738  -1.834  0.00  0.00    -0.017 C 
ENDBRANCH  32  36
ENDBRANCH  26  32
ENDBRANCH  25  26
ENDBRANCH  21  25
ENDBRANCH  20  22
ENDBRANCH   1  20
TORSDOF 11
