REMARK  Name = ZINC29765595
REMARK  2 active torsions:
REMARK  status: ('A' for Active; 'I' for Inactive)
REMARK    1  A    between atoms: C_8  and  C_10
REMARK    2  A    between atoms: C_16  and  C_18
REMARK                            x       y       z     vdW  Elec       q    Type
REMARK                         _______ _______ _______ _____ _____    ______ ____
ROOT
ATOM      1  C   UNL     1      -4.599   2.008  -3.849  0.00  0.00    +0.115 A 
ATOM      2  C   UNL     1      -3.850   2.871  -4.604  0.00  0.00    +0.080 A 
ATOM      3  S   UNL     1      -2.309   2.855  -3.697  0.00  0.00    -0.060 S 
ATOM      4  C   UNL     1      -2.808   1.706  -2.423  0.00  0.00    +0.165 A 
ATOM      5  N   UNL     1      -4.053   1.446  -2.772  0.00  0.00    -0.221 NA
ATOM      6  N   UNL     1      -2.079   1.220  -1.345  0.00  0.00    -0.262 N 
ATOM      7  C   UNL     1      -0.803   1.613  -1.161  0.00  0.00    +0.260 C 
ATOM      8  O   UNL     1      -0.292   2.393  -1.937  0.00  0.00    -0.271 OA
ATOM      9  H   UNL     1      -2.543   0.513  -0.641  0.00  0.00    +0.157 HD
ENDROOT
BRANCH   1  17
ATOM     10  C   UNL     1     -10.335   0.461  -4.983  0.00  0.00    +0.001 A 
ATOM     11  C   UNL     1     -10.154   1.320  -6.056  0.00  0.00    +0.004 A 
ATOM     12  C   UNL     1      -8.948   1.961  -6.250  0.00  0.00    +0.047 A 
ATOM     13  C   UNL     1      -7.901   1.747  -5.363  0.00  0.00    +0.136 A 
ATOM     14  C   UNL     1      -8.090   0.874  -4.277  0.00  0.00    +0.021 A 
ATOM     15  C   UNL     1      -9.318   0.234  -4.098  0.00  0.00    +0.011 A 
ATOM     16  C   UNL     1      -6.819   0.868  -3.549  0.00  0.00    +0.060 A 
ATOM     17  C   UNL     1      -5.995   1.704  -4.225  0.00  0.00    +0.155 A 
ATOM     18  O   UNL     1      -6.641   2.222  -5.288  0.00  0.00    -0.453 OA
ENDBRANCH   1  17
BRANCH   7  19
ATOM     19  C   UNL     1      -0.013   1.086   0.008  0.00  0.00    +0.263 C 
ATOM     20  C   UNL     1      -0.581   1.619   1.344  0.00  0.00    +0.093 C 
ATOM     21  C   UNL     1       0.679   1.814   2.165  0.00  0.00    -0.002 A 
ATOM     22  C   UNL     1       0.885   1.991   3.515  0.00  0.00    +0.007 A 
ATOM     23  C   UNL     1       2.171   2.139   4.005  0.00  0.00    +0.000 A 
ATOM     24  C   UNL     1       3.244   2.108   3.134  0.00  0.00    +0.004 A 
ATOM     25  C   UNL     1       3.040   1.933   1.781  0.00  0.00    +0.046 A 
ATOM     26  C   UNL     1       1.749   1.787   1.280  0.00  0.00    +0.125 A 
ATOM     27  O   UNL     1       1.325   1.613  -0.002  0.00  0.00    -0.479 OA
ENDBRANCH   7  19
TORSDOF 2
