REMARK  Name = ZINC39324820
REMARK  13 active torsions:
REMARK  status: ('A' for Active; 'I' for Inactive)
REMARK    1  A    between atoms: C_1  and  O_2
REMARK    2  A    between atoms: O_2  and  C_3
REMARK    3  A    between atoms: C_6  and  C_9
REMARK    4  A    between atoms: C_9  and  N_10
REMARK    5  A    between atoms: N_10  and  C_11
REMARK    6  A    between atoms: N_10  and  S_26
REMARK    7  A    between atoms: C_11  and  C_12
REMARK    8  A    between atoms: C_17  and  O_24
REMARK    9  A    between atoms: O_24  and  C_25
REMARK   10  A    between atoms: S_26  and  C_29
REMARK   11  A    between atoms: C_32  and  C_35
REMARK   12  A    between atoms: C_35  and  O_37
REMARK   13  A    between atoms: O_37  and  C_38
REMARK                            x       y       z     vdW  Elec       q    Type
REMARK                         _______ _______ _______ _____ _____    ______ ____
ROOT
ATOM      1  N   UNL     1      -5.558  -2.696  -1.703  0.00  0.00    -0.171 NA
ENDROOT
BRANCH   1   2
ATOM      2  S   UNL     1      -6.590  -1.451  -2.056  0.00  0.00    +0.061 S 
ATOM      3  O   UNL     1      -7.434  -1.907  -3.104  0.00  0.00    -0.153 OA
ATOM      4  O   UNL     1      -7.102  -0.983  -0.815  0.00  0.00    -0.153 OA
BRANCH   2   5
ATOM      5  C   UNL     1      -5.618  -0.142  -2.725  0.00  0.00    +0.106 A 
ATOM      6  C   UNL     1      -5.166   0.871  -1.899  0.00  0.00    +0.029 A 
ATOM      7  C   UNL     1      -4.404   1.899  -2.417  0.00  0.00    +0.017 A 
ATOM      8  C   UNL     1      -4.090   1.914  -3.777  0.00  0.00    +0.059 A 
ATOM      9  C   UNL     1      -4.551   0.888  -4.605  0.00  0.00    +0.017 A 
ATOM     10  C   UNL     1      -5.306  -0.136  -4.073  0.00  0.00    +0.029 A 
BRANCH   8  11
ATOM     11  C   UNL     1      -3.276   3.011  -4.338  0.00  0.00    +0.339 C 
ATOM     12  O   UNL     1      -2.877   3.903  -3.616  0.00  0.00    -0.245 OA
BRANCH  11  13
ATOM     13  O   UNL     1      -2.975   3.023  -5.651  0.00  0.00    -0.464 OA
ATOM     14  C   UNL     1      -2.184   4.114  -6.125  0.00  0.00    +0.280 C 
ENDBRANCH  11  13
ENDBRANCH   8  11
ENDBRANCH   2   5
ENDBRANCH   1   2
BRANCH   1  15
ATOM     15  C   UNL     1      -4.951  -2.790  -0.373  0.00  0.00    +0.144 C 
BRANCH  15  19
ATOM     16  C   UNL     1      -1.139  -0.860  -0.407  0.00  0.00    +0.120 A 
ATOM     17  C   UNL     1      -2.265  -0.166   0.012  0.00  0.00    +0.046 A 
ATOM     18  C   UNL     1      -3.496  -0.792   0.022  0.00  0.00    +0.008 A 
ATOM     19  C   UNL     1      -3.607  -2.109  -0.385  0.00  0.00    -0.031 A 
ATOM     20  C   UNL     1      -2.486  -2.802  -0.803  0.00  0.00    +0.008 A 
ATOM     21  C   UNL     1      -1.253  -2.179  -0.821  0.00  0.00    +0.046 A 
BRANCH  16  23
ATOM     22  C   UNL     1       0.117   1.114   0.021  0.00  0.00    +0.277 C 
ATOM     23  O   UNL     1       0.074  -0.245  -0.418  0.00  0.00    -0.495 OA
ENDBRANCH  16  23
ENDBRANCH  15  19
ENDBRANCH   1  15
BRANCH   1  24
ATOM     24  C   UNL     1      -5.252  -3.705  -2.720  0.00  0.00    +0.126 C 
BRANCH  24  25
ATOM     25  C   UNL     1      -6.361  -4.759  -2.744  0.00  0.00    +0.114 C 
ATOM     26  C   UNL     1      -6.141  -5.637  -3.960  0.00  0.00    -0.003 C 
ATOM     27  C   UNL     1      -5.983  -6.974  -3.745  0.00  0.00    -0.004 A 
ATOM     28  C   UNL     1      -5.768  -7.893  -4.863  0.00  0.00    +0.055 A 
ATOM     29  C   UNL     1      -5.615  -9.221  -4.601  0.00  0.00    +0.121 A 
ATOM     30  C   UNL     1      -5.662  -9.713  -3.291  0.00  0.00    +0.047 A 
ATOM     31  C   UNL     1      -5.859  -8.910  -2.215  0.00  0.00    +0.027 A 
ATOM     32  C   UNL     1      -6.027  -7.522  -2.378  0.00  0.00    +0.041 A 
ATOM     33  N   UNL     1      -6.220  -6.745  -1.312  0.00  0.00    -0.284 N 
ATOM     34  C   UNL     1      -6.386  -5.437  -1.393  0.00  0.00    +0.225 C 
ATOM     35  O   UNL     1      -6.557  -4.780  -0.383  0.00  0.00    -0.275 OA
ATOM     36  H   UNL     1      -6.239  -7.160  -0.435  0.00  0.00    +0.155 HD
BRANCH  29  37
ATOM     37  O   UNL     1      -5.414 -10.085  -5.631  0.00  0.00    -0.495 OA
ATOM     38  C   UNL     1      -5.261 -11.466  -5.298  0.00  0.00    +0.277 C 
ENDBRANCH  29  37
ENDBRANCH  24  25
ENDBRANCH   1  24
TORSDOF 10
