REMARK  Name = ZINC67103765
REMARK  7 active torsions:
REMARK  status: ('A' for Active; 'I' for Inactive)
REMARK    1  A    between atoms: C_1  and  N_2
REMARK    2  A    between atoms: N_2  and  C_3
REMARK    3  A    between atoms: C_3  and  C_4
REMARK    4  A    between atoms: C_9  and  N_10
REMARK    5  A    between atoms: N_18  and  N_19
REMARK    6  A    between atoms: C_20  and  C_22
REMARK    7  A    between atoms: C_22  and  C_23
REMARK                            x       y       z     vdW  Elec       q    Type
REMARK                         _______ _______ _______ _____ _____    ______ ____
ROOT
ATOM      1  C   UNL     1      -0.434   1.462   0.006  0.00  0.00    +0.134 C 
ATOM      2  N   UNL     1      -0.222   0.013   0.001  0.00  0.00    -0.283 N 
ATOM      3  C   UNL     1      -0.170  -0.657  -1.168  0.00  0.00    +0.319 C 
ATOM      4  O   UNL     1      -0.171  -1.873  -1.172  0.00  0.00    -0.251 OA
ATOM      5  N   UNL     1      -0.117   0.021  -2.331  0.00  0.00    -0.218 N 
ATOM      6  H   UNL     1      -0.207  -0.452  -3.173  0.00  0.00    +0.174 HD
ENDROOT
BRANCH   5   7
ATOM      7  N   UNL     1       0.068   1.410  -2.324  0.00  0.00    -0.233 N 
ATOM      8  C   UNL     1      -0.051   2.111  -3.469  0.00  0.00    +0.229 C 
ATOM      9  O   UNL     1      -0.320   1.540  -4.505  0.00  0.00    -0.274 OA
ATOM     10  H   UNL     1       0.283   1.867  -1.496  0.00  0.00    +0.173 HD
BRANCH   8  11
ATOM     11  C   UNL     1       0.148   3.605  -3.462  0.00  0.00    +0.101 C 
BRANCH  11  12
ATOM     12  C   UNL     1      -0.043   4.152  -4.878  0.00  0.00    -0.002 C 
ATOM     13  C   UNL     1       1.056   3.601  -5.790  0.00  0.00    +0.004 C 
ATOM     14  C   UNL     1       0.865   4.148  -7.206  0.00  0.00    +0.000 C 
ATOM     15  C   UNL     1       0.944   5.676  -7.178  0.00  0.00    +0.000 C 
ATOM     16  C   UNL     1      -0.154   6.226  -6.266  0.00  0.00    +0.000 C 
ATOM     17  C   UNL     1       0.036   5.680  -4.850  0.00  0.00    +0.004 C 
ENDBRANCH  11  12
ENDBRANCH   8  11
ENDBRANCH   5   7
BRANCH   2  18
ATOM     18  C   UNL     1      -0.067  -0.710   1.266  0.00  0.00    +0.146 C 
BRANCH  18  19
ATOM     19  C   UNL     1      -1.401  -1.263   1.696  0.00  0.00    -0.009 A 
ATOM     20  C   UNL     1      -2.540  -0.957   0.977  0.00  0.00    +0.007 A 
ATOM     21  C   UNL     1      -3.765  -1.464   1.371  0.00  0.00    +0.000 A 
ATOM     22  C   UNL     1      -3.854  -2.278   2.486  0.00  0.00    +0.002 A 
ATOM     23  C   UNL     1      -2.719  -2.588   3.209  0.00  0.00    +0.023 A 
ATOM     24  C   UNL     1      -1.486  -2.085   2.812  0.00  0.00    +0.035 A 
BRANCH  24  25
ATOM     25  N   UNL     1      -0.335  -2.400   3.538  0.00  0.00    -0.325 N 
ATOM     26  C   UNL     1       0.044  -1.626   4.731  0.00  0.00    +0.133 C 
ATOM     27  C   UNL     1       0.316  -2.607   5.878  0.00  0.00    +0.178 C 
ATOM     28  O   UNL     1       1.250  -3.596   5.439  0.00  0.00    -0.377 OA
ATOM     29  C   UNL     1       0.782  -4.405   4.358  0.00  0.00    +0.178 C 
ATOM     30  C   UNL     1       0.531  -3.520   3.137  0.00  0.00    +0.133 C 
ENDBRANCH  24  25
ENDBRANCH  18  19
ENDBRANCH   2  18
TORSDOF 6
