REMARK  Name = ZINC03200313
REMARK  7 active torsions:
REMARK  status: ('A' for Active; 'I' for Inactive)
REMARK    1  A    between atoms: C_2  and  C_3
REMARK    2  A    between atoms: C_2  and  N_11
REMARK    3  A    between atoms: N_11  and  N_12
REMARK    4  A    between atoms: C_13  and  C_15
REMARK    5  A    between atoms: C_19  and  S_21
REMARK    6  A    between atoms: S_21  and  N_24
REMARK    7  A    between atoms: N_24  and  C_25
REMARK                            x       y       z     vdW  Elec       q    Type
REMARK                         _______ _______ _______ _____ _____    ______ ____
ROOT
ATOM      1  C   UNL     1       3.750   1.331   4.563  0.00  0.00    +0.040 A 
ATOM      2  C   UNL     1       3.080   2.395   5.169  0.00  0.00    +0.013 A 
ATOM      3  C   UNL     1       2.674   3.472   4.410  0.00  0.00    +0.003 A 
ATOM      4  C   UNL     1       2.933   3.501   3.050  0.00  0.00    +0.029 A 
ATOM      5  C   UNL     1       3.591   2.447   2.443  0.00  0.00    +0.109 A 
ATOM      6  C   UNL     1       4.003   1.364   3.191  0.00  0.00    +0.042 A 
ENDROOT
BRANCH   1   8
ATOM      7  N   UNL     1       3.942   0.144   6.696  0.00  0.00    -0.232 N 
ATOM      8  C   UNL     1       4.188   0.173   5.371  0.00  0.00    +0.260 C 
ATOM      9  O   UNL     1       4.770  -0.753   4.841  0.00  0.00    -0.269 OA
ATOM     10  H   UNL     1       3.478   0.882   7.119  0.00  0.00    +0.173 HD
BRANCH   7  11
ATOM     11  N   UNL     1       4.357  -0.954   7.462  0.00  0.00    -0.264 N 
ATOM     12  H   UNL     1       4.822  -1.692   7.038  0.00  0.00    +0.170 HD
BRANCH  11  14
ATOM     13  C   UNL     1       3.464   0.032   9.415  0.00  0.00    +0.035 C 
ATOM     14  C   UNL     1       4.103  -0.984   8.833  0.00  0.00    +0.046 C 
BRANCH  14  15
ATOM     15  C   UNL     1       4.542  -2.144   9.643  0.00  0.00    +0.016 A 
ATOM     16  C   UNL     1       3.611  -2.877  10.378  0.00  0.00    +0.031 A 
ATOM     17  C   UNL     1       4.026  -3.960  11.127  0.00  0.00    +0.042 A 
ATOM     18  C   UNL     1       5.365  -4.313  11.157  0.00  0.00    +0.021 A 
ATOM     19  C   UNL     1       6.293  -3.587  10.434  0.00  0.00    +0.022 A 
ATOM     20  C   UNL     1       5.890  -2.504   9.677  0.00  0.00    +0.050 A 
ATOM     21 CL   UNL     1       7.057  -1.593   8.770  0.00  0.00    -0.083 Cl
ATOM     22 CL   UNL     1       2.867  -4.879  12.037  0.00  0.00    -0.084 Cl
ENDBRANCH  14  15
ENDBRANCH  11  14
ENDBRANCH   7  11
ENDBRANCH   1   8
BRANCH   5  23
ATOM     23  S   UNL     1       3.910   2.491   0.710  0.00  0.00    +0.072 S 
ATOM     24  O   UNL     1       5.024   1.640   0.481  0.00  0.00    -0.150 OA
ATOM     25  O   UNL     1       3.906   3.861   0.332  0.00  0.00    -0.150 OA
BRANCH  23  26
ATOM     26  N   UNL     1       2.614   1.788  -0.044  0.00  0.00    -0.215 N 
ATOM     27  H   UNL     1       2.742   1.000  -0.594  0.00  0.00    +0.174 HD
BRANCH  26  28
ATOM     28  C   UNL     1       1.336   2.332   0.111  0.00  0.00    +0.066 A 
ATOM     29  C   UNL     1       1.171   3.708   0.205  0.00  0.00    +0.026 A 
ATOM     30  C   UNL     1      -0.094   4.242   0.357  0.00  0.00    +0.002 A 
ATOM     31  C   UNL     1      -1.196   3.408   0.417  0.00  0.00    +0.002 A 
ATOM     32  C   UNL     1      -1.037   2.038   0.318  0.00  0.00    +0.022 A 
ATOM     33  C   UNL     1       0.226   1.497   0.171  0.00  0.00    +0.063 A 
ATOM     34 CL   UNL     1       0.426  -0.224   0.054  0.00  0.00    -0.082 Cl
ENDBRANCH  26  28
ENDBRANCH  23  26
ENDBRANCH   5  23
TORSDOF 7
