REMARK  Name = ZINC20683969
REMARK  15 active torsions:
REMARK  status: ('A' for Active; 'I' for Inactive)
REMARK    1  A    between atoms: C_1  and  C_2
REMARK    2  A    between atoms: C_2  and  N_3
REMARK    3  A    between atoms: N_3  and  C_4
REMARK    4  A    between atoms: N_3  and  C_6
REMARK    5  A    between atoms: C_4  and  C_5
REMARK    6  A    between atoms: C_6  and  C_7
REMARK    7  A    between atoms: C_7  and  N_8
REMARK    8  A    between atoms: C_9  and  C_11
REMARK    9  A    between atoms: C_24  and  C_27
REMARK   10  A    between atoms: C_29  and  O_37
REMARK   11  A    between atoms: C_30  and  O_35
REMARK   12  A    between atoms: C_31  and  O_33
REMARK   13  A    between atoms: O_33  and  C_34
REMARK   14  A    between atoms: O_35  and  C_36
REMARK   15  A    between atoms: O_37  and  C_38
REMARK                            x       y       z     vdW  Elec       q    Type
REMARK                         _______ _______ _______ _____ _____    ______ ____
ROOT
ATOM      1  C   UNL     1      -1.455   3.556   1.798  0.00  0.00    +0.037 A 
ATOM      2  C   UNL     1      -1.358   2.165   1.907  0.00  0.00    +0.015 A 
ATOM      3  C   UNL     1      -0.165   1.586   2.271  0.00  0.00    +0.024 A 
ATOM      4  C   UNL     1       0.958   2.373   2.518  0.00  0.00    +0.031 A 
ATOM      5  C   UNL     1       0.862   3.767   2.394  0.00  0.00    -0.019 A 
ATOM      6  C   UNL     1      -0.331   4.349   2.044  0.00  0.00    +0.019 A 
ATOM      7  C   UNL     1       2.086   4.560   2.646  0.00  0.00    +0.049 C 
ATOM      8  C   UNL     1       2.025   5.970   3.108  0.00  0.00    -0.023 C 
ATOM      9  C   UNL     1       3.085   6.213   3.869  0.00  0.00    -0.030 C 
ATOM     10  C   UNL     1       3.934   4.948   4.003  0.00  0.00    +0.033 C 
ATOM     11  C   UNL     1       2.887   3.849   3.778  0.00  0.00    +0.029 C 
ATOM     12  C   UNL     1       3.370   2.543   3.171  0.00  0.00    +0.105 C 
ATOM     13  N   UNL     1       2.149   1.756   2.898  0.00  0.00    -0.336 N 
ATOM     14  H   UNL     1       2.168   0.660   2.993  0.00  0.00    +0.147 HD
ENDROOT
BRANCH  12  15
ATOM     15  C   UNL     1       4.254   1.811   4.148  0.00  0.00    -0.020 A 
ATOM     16  C   UNL     1       3.692   1.146   5.222  0.00  0.00    +0.055 A 
ATOM     17  C   UNL     1       4.501   0.467   6.119  0.00  0.00    +0.165 A 
ATOM     18  C   UNL     1       5.880   0.464   5.945  0.00  0.00    +0.204 A 
ATOM     19  C   UNL     1       6.441   1.139   4.867  0.00  0.00    +0.165 A 
ATOM     20  C   UNL     1       5.625   1.811   3.971  0.00  0.00    +0.055 A 
BRANCH  19  21
ATOM     21  O   UNL     1       7.790   1.139   4.692  0.00  0.00    -0.491 OA
ATOM     22  C   UNL     1       8.297   1.854   3.563  0.00  0.00    +0.277 C 
ENDBRANCH  19  21
BRANCH  18  23
ATOM     23  O   UNL     1       6.678  -0.198   6.826  0.00  0.00    -0.488 OA
ATOM     24  C   UNL     1       7.151   0.541   7.954  0.00  0.00    +0.277 C 
ENDBRANCH  18  23
BRANCH  17  25
ATOM     25  O   UNL     1       3.947  -0.192   7.172  0.00  0.00    -0.491 OA
ATOM     26  C   UNL     1       2.524  -0.147   7.289  0.00  0.00    +0.277 C 
ENDBRANCH  17  25
ENDBRANCH  12  15
BRANCH   1  28
ATOM     27  N   UNL     1      -3.817   3.413   1.181  0.00  0.00    -0.313 N 
ATOM     28  C   UNL     1      -2.736   4.182   1.419  0.00  0.00    +0.244 C 
ATOM     29  O   UNL     1      -2.816   5.391   1.320  0.00  0.00    -0.270 OA
ATOM     30  H   UNL     1      -3.745   2.319   1.271  0.00  0.00    +0.149 HD
BRANCH  27  31
ATOM     31  C   UNL     1      -5.089   4.035   0.805  0.00  0.00    +0.086 C 
BRANCH  31  32
ATOM     32  C   UNL     1      -6.146   2.948   0.595  0.00  0.00    -0.060 C 
BRANCH  32  33
ATOM     33  N   UNL     1      -7.421   3.571   0.218  0.00  0.00    +0.380 N 
ATOM     34  H   UNL     1      -7.651   4.348   0.962  0.00  0.00    -0.082 HD
BRANCH  33  36
ATOM     35  C   UNL     1      -6.977   3.173  -2.158  0.00  0.00    -0.017 C 
ATOM     36  C   UNL     1      -7.322   4.220  -1.096  0.00  0.00    -0.082 C 
ENDBRANCH  33  36
BRANCH  33  37
ATOM     37  C   UNL     1      -8.514   2.589   0.238  0.00  0.00    -0.082 C 
ATOM     38  C   UNL     1      -9.857   3.321   0.231  0.00  0.00    -0.017 C 
ENDBRANCH  33  37
ENDBRANCH  32  33
ENDBRANCH  31  32
ENDBRANCH  27  31
ENDBRANCH   1  28
TORSDOF 10
