REMARK  Name = ZINC09730028
REMARK  7 active torsions:
REMARK  status: ('A' for Active; 'I' for Inactive)
REMARK    1  A    between atoms: C_1  and  C_2
REMARK    2  A    between atoms: C_2  and  C_4
REMARK    3  A    between atoms: C_2  and  S_23
REMARK    4  A    between atoms: N_6  and  C_7
REMARK    5  A    between atoms: C_10  and  C_13
REMARK    6  A    between atoms: C_13  and  C_14
REMARK    7  A    between atoms: S_23  and  C_24
REMARK                            x       y       z     vdW  Elec       q    Type
REMARK                         _______ _______ _______ _____ _____    ______ ____
ROOT
ATOM      1  C   UNL     1       1.885   8.642   4.063  0.00  0.00    +0.033 A 
ATOM      2  C   UNL     1       2.959   8.005   3.456  0.00  0.00    +0.023 A 
ATOM      3  C   UNL     1       2.849   7.558   2.154  0.00  0.00    +0.006 A 
ATOM      4  C   UNL     1       1.670   7.744   1.455  0.00  0.00    -0.041 A 
ATOM      5  C   UNL     1       0.600   8.382   2.055  0.00  0.00    +0.006 A 
ATOM      6  C   UNL     1       0.703   8.828   3.358  0.00  0.00    +0.023 A 
ENDROOT
BRANCH   1   9
ATOM      7  C   UNL     1       3.176   9.546   5.845  0.00  0.00    +0.230 C 
ATOM      8  O   UNL     1       4.123   9.647   5.093  0.00  0.00    -0.274 OA
ATOM      9  N   UNL     1       1.993   9.096   5.382  0.00  0.00    -0.285 N 
ATOM     10  H   UNL     1       1.217   9.087   5.963  0.00  0.00    +0.155 HD
BRANCH   7  12
ATOM     11  C   UNL     1       2.748  11.322   7.521  0.00  0.00    +0.029 C 
ATOM     12  C   UNL     1       3.324   9.923   7.296  0.00  0.00    +0.136 C 
BRANCH  12  13
ATOM     13  S   UNL     1       5.080   9.912   7.749  0.00  0.00    -0.084 S 
BRANCH  13  14
ATOM     14  C   UNL     1       5.076  10.221   9.483  0.00  0.00    +0.161 A 
ATOM     15  N   UNL     1       4.055  10.425  10.294  0.00  0.00    -0.133 NA
ATOM     16  N   UNL     1       4.278  10.646  11.633  0.00  0.00    -0.125 NA
ATOM     17  C   UNL     1       5.511  10.665  12.099  0.00  0.00    +0.180 A 
ATOM     18  S   UNL     1       6.453  10.351  10.614  0.00  0.00    -0.025 S 
ATOM     19  N   UNL     1       5.959  10.873  13.398  0.00  0.00    -0.336 N 
ATOM     20  H   UNL     1       6.909  10.859  13.592  0.00  0.00    +0.144 HD
ATOM     21  H   UNL     1       5.321  11.033  14.111  0.00  0.00    +0.144 HD
ENDBRANCH  13  14
ENDBRANCH  12  13
ENDBRANCH   7  12
ENDBRANCH   1   9
BRANCH   4  22
ATOM     22  C   UNL     1       1.553   7.254   0.034  0.00  0.00    +0.098 C 
BRANCH  22  23
ATOM     23  C   UNL     1       1.037   5.838   0.032  0.00  0.00    +0.084 A 
ATOM     24  N   UNL     1      -0.199   5.428  -0.011  0.00  0.00    -0.244 NA
ATOM     25  C   UNL     1      -0.529   4.120  -0.008  0.00  0.00    +0.078 A 
ATOM     26  C   UNL     1      -1.810   3.524  -0.051  0.00  0.00    +0.029 A 
ATOM     27  C   UNL     1      -1.946   2.171  -0.045  0.00  0.00    +0.002 A 
ATOM     28  C   UNL     1      -0.845   1.328   0.013  0.00  0.00    +0.001 A 
ATOM     29  C   UNL     1       0.425   1.871   0.055  0.00  0.00    +0.017 A 
ATOM     30  C   UNL     1       0.574   3.237   0.044  0.00  0.00    +0.039 A 
ATOM     31  S   UNL     1       1.947   4.361   0.084  0.00  0.00    -0.072 S 
ENDBRANCH  22  23
ENDBRANCH   4  22
TORSDOF 6
