REMARK  Name = ZINC12764058
REMARK  9 active torsions:
REMARK  status: ('A' for Active; 'I' for Inactive)
REMARK    1  A    between atoms: C_1  and  C_2
REMARK    2  A    between atoms: C_2  and  C_3
REMARK    3  A    between atoms: C_2  and  C_4
REMARK    4  A    between atoms: C_7  and  C_10
REMARK    5  A    between atoms: C_10  and  C_28
REMARK    6  A    between atoms: N_13  and  C_17
REMARK    7  A    between atoms: C_17  and  C_18
REMARK    8  A    between atoms: C_18  and  C_20
REMARK    9  A    between atoms: C_18  and  O_27
REMARK                            x       y       z     vdW  Elec       q    Type
REMARK                         _______ _______ _______ _____ _____    ______ ____
ROOT
ATOM      1  C   UNL     1       2.451   3.937  -0.001  0.00  0.00    +0.135 C 
ATOM      2  C   UNL     1       2.287   5.262   0.717  0.00  0.00    +0.251 C 
ATOM      3  O   UNL     1       1.541   6.169   0.418  0.00  0.00    -0.272 OA
ATOM      4  N   UNL     1       3.143   5.221   1.757  0.00  0.00    -0.221 N 
ATOM      5  C   UNL     1       3.818   4.066   1.796  0.00  0.00    +0.310 C 
ATOM      6  O   UNL     1       4.646   3.796   2.643  0.00  0.00    -0.252 OA
ATOM      7  N   UNL     1       3.476   3.237   0.792  0.00  0.00    -0.281 N 
ATOM      8  C   UNL     1       2.934   4.158  -1.436  0.00  0.00    +0.047 C 
ATOM      9  H   UNL     1       3.835   2.352   0.625  0.00  0.00    +0.152 HD
ENDROOT
BRANCH   1  13
ATOM     10  C   UNL     1      -1.219   1.751   0.017  0.00  0.00    -0.045 A 
ATOM     11  C   UNL     1      -0.013   1.076   0.008  0.00  0.00    +0.004 A 
ATOM     12  C   UNL     1       1.175   1.783   0.000  0.00  0.00    +0.006 A 
ATOM     13  C   UNL     1       1.156   3.165   0.008  0.00  0.00    -0.015 A 
ATOM     14  C   UNL     1      -0.050   3.840   0.022  0.00  0.00    +0.006 A 
ATOM     15  C   UNL     1      -1.238   3.133   0.030  0.00  0.00    +0.004 A 
BRANCH  10  17
ATOM     16  C   UNL     1      -3.315   1.331   1.274  0.00  0.00    +0.012 C 
ATOM     17  C   UNL     1      -2.514   0.980   0.019  0.00  0.00    +0.013 C 
ATOM     18  C   UNL     1      -3.327   1.345  -1.224  0.00  0.00    +0.012 C 
ENDBRANCH  10  17
ENDBRANCH   1  13
BRANCH   4  19
ATOM     19  C   UNL     1       3.313   6.306   2.726  0.00  0.00    +0.154 C 
BRANCH  19  20
ATOM     20  C   UNL     1       2.340   6.108   3.890  0.00  0.00    +0.162 C 
BRANCH  20  21
ATOM     21  C   UNL     1       2.428   7.287   4.825  0.00  0.00    -0.018 A 
ATOM     22  C   UNL     1       3.454   7.362   5.748  0.00  0.00    +0.007 A 
ATOM     23  C   UNL     1       3.538   8.445   6.601  0.00  0.00    +0.020 A 
ATOM     24  C   UNL     1       2.589   9.450   6.540  0.00  0.00    +0.041 A 
ATOM     25  C   UNL     1       1.558   9.371   5.619  0.00  0.00    +0.020 A 
ATOM     26  C   UNL     1       1.479   8.290   4.763  0.00  0.00    +0.007 A 
ATOM     27 CL   UNL     1       2.689  10.807   7.617  0.00  0.00    -0.084 Cl
ENDBRANCH  20  21
BRANCH  20  28
ATOM     28  O   UNL     1       2.680   4.913   4.597  0.00  0.00    -0.386 OA
ATOM     29  H   UNL     1       3.573   4.917   4.969  0.00  0.00    +0.210 HD
ENDBRANCH  20  28
ENDBRANCH  19  20
ENDBRANCH   4  19
TORSDOF 6
