REMARK  Name = ZINC25182529
REMARK  9 active torsions:
REMARK  status: ('A' for Active; 'I' for Inactive)
REMARK    1  A    between atoms: C_4  and  C_7
REMARK    2  A    between atoms: C_12  and  N_13
REMARK    3  A    between atoms: C_14  and  C_16
REMARK    4  A    between atoms: C_16  and  N_17
REMARK    5  A    between atoms: N_17  and  C_18
REMARK    6  A    between atoms: N_17  and  C_31
REMARK    7  A    between atoms: C_18  and  C_19
REMARK    8  A    between atoms: C_22  and  C_25
REMARK    9  A    between atoms: N_27  and  C_28
REMARK                            x       y       z     vdW  Elec       q    Type
REMARK                         _______ _______ _______ _____ _____    ______ ____
ROOT
ATOM      1  N   UNL     1       2.173   1.013   0.196  0.00  0.00    +0.390 N 
ATOM      2  H   UNL     1       1.954   0.317  -0.627  0.00  0.00    -0.080 HD
ENDROOT
BRANCH   1   3
ATOM      3  C   UNL     1       2.064   0.268   1.457  0.00  0.00    -0.068 C 
ATOM      4  C   UNL     1       1.748  -1.227   1.370  0.00  0.00    -0.017 C 
ATOM      5  C   UNL     1       0.679  -0.246   1.857  0.00  0.00    -0.017 C 
ENDBRANCH   1   3
BRANCH   1   6
ATOM      6  C   UNL     1       1.189   2.102   0.141  0.00  0.00    +0.020 C 
BRANCH   6   8
ATOM      7  N   UNL     1       0.059   3.454  -1.595  0.00  0.00    -0.287 N 
ATOM      8  C   UNL     1       0.989   2.527  -1.290  0.00  0.00    +0.201 C 
ATOM      9  O   UNL     1       1.668   2.038  -2.168  0.00  0.00    -0.278 OA
ATOM     10  H   UNL     1      -0.514   3.942  -0.793  0.00  0.00    +0.155 HD
BRANCH   7  16
ATOM     11  C   UNL     1      -1.424   4.297  -3.316  0.00  0.00    +0.003 A 
ATOM     12  C   UNL     1      -1.647   4.639  -4.648  0.00  0.00    +0.010 A 
ATOM     13  C   UNL     1      -0.642   4.473  -5.579  0.00  0.00    +0.001 A 
ATOM     14  C   UNL     1       0.589   3.971  -5.195  0.00  0.00    +0.002 A 
ATOM     15  C   UNL     1       0.824   3.633  -3.877  0.00  0.00    +0.024 A 
ATOM     16  C   UNL     1      -0.176   3.795  -2.929  0.00  0.00    +0.041 A 
BRANCH  11  20
ATOM     17  C   UNL     1      -4.515   4.788  -0.439  0.00  0.00    +0.000 A 
ATOM     18  C   UNL     1      -4.192   5.832  -1.287  0.00  0.00    +0.001 A 
ATOM     19  C   UNL     1      -3.189   5.678  -2.223  0.00  0.00    +0.008 A 
ATOM     20  C   UNL     1      -2.502   4.468  -2.312  0.00  0.00    -0.016 A 
ATOM     21  C   UNL     1      -2.836   3.419  -1.458  0.00  0.00    +0.008 A 
ATOM     22  C   UNL     1      -3.837   3.586  -0.523  0.00  0.00    +0.001 A 
ENDBRANCH  11  20
ENDBRANCH   7  16
ENDBRANCH   6   8
ENDBRANCH   1   6
BRANCH   1  23
ATOM     23  C   UNL     1       3.537   1.525   0.004  0.00  0.00    -0.042 C 
BRANCH  23  24
ATOM     24  C   UNL     1       4.486   0.370  -0.179  0.00  0.00    -0.064 A 
ATOM     25  C   UNL     1       5.107  -0.193   0.922  0.00  0.00    +0.002 A 
ATOM     26  C   UNL     1       5.973  -1.255   0.762  0.00  0.00    +0.013 A 
ATOM     27  C   UNL     1       6.231  -1.754  -0.516  0.00  0.00    +0.037 A 
ATOM     28  C   UNL     1       5.607  -1.178  -1.623  0.00  0.00    +0.013 A 
ATOM     29  C   UNL     1       4.739  -0.120  -1.449  0.00  0.00    +0.002 A 
BRANCH  27  30
ATOM     30  C   UNL     1       7.162  -2.888  -0.696  0.00  0.00    +0.244 C 
ATOM     31  O   UNL     1       7.385  -3.321  -1.809  0.00  0.00    -0.270 OA
ATOM     32  N   UNL     1       7.764  -3.442   0.376  0.00  0.00    -0.308 N 
ATOM     33  H   UNL     1       7.562  -3.051   1.384  0.00  0.00    +0.149 HD
BRANCH  32  34
ATOM     34  C   UNL     1       8.687  -4.566   0.198  0.00  0.00    +0.073 C 
ATOM     35  C   UNL     1       8.567  -5.740   1.173  0.00  0.00    +0.024 C 
ATOM     36  C   UNL     1       9.755  -4.780   1.272  0.00  0.00    +0.024 C 
ENDBRANCH  32  34
ENDBRANCH  27  30
ENDBRANCH  23  24
ENDBRANCH   1  23
TORSDOF 9
