REMARK  Name = ZINC21260327
REMARK  10 active torsions:
REMARK  status: ('A' for Active; 'I' for Inactive)
REMARK    1  A    between atoms: C_1  and  C_2
REMARK    2  A    between atoms: C_2  and  C_3
REMARK    3  A    between atoms: C_6  and  C_9
REMARK    4  A    between atoms: C_14  and  C_24
REMARK    5  A    between atoms: C_27  and  O_34
REMARK    6  A    between atoms: C_28  and  O_32
REMARK    7  A    between atoms: C_29  and  O_30
REMARK    8  A    between atoms: O_30  and  C_31
REMARK    9  A    between atoms: O_32  and  C_33
REMARK   10  A    between atoms: O_34  and  C_35
REMARK                            x       y       z     vdW  Elec       q    Type
REMARK                         _______ _______ _______ _____ _____    ______ ____
ROOT
ATOM      1  C   UNL     1       1.415   2.055  -0.001  0.00  0.00    +0.032 C 
ATOM      2  C   UNL     1      -0.015   1.517   0.009  0.00  0.00    +0.059 C 
ATOM      3  C   UNL     1       0.004  -0.003   0.001  0.00  0.00    +0.017 C 
ATOM      4  C   UNL     1       0.983  -0.667  -0.635  0.00  0.00    +0.037 C 
ATOM      5  C   UNL     1       1.111  -2.168  -0.742  0.00  0.00    +0.140 C 
ATOM      6  N   UNL     1       0.224  -2.909   0.130  0.00  0.00    -0.331 N 
ATOM      7  C   UNL     1      -1.159  -2.848  -0.031  0.00  0.00    +0.049 A 
ATOM      8  C   UNL     1      -1.895  -3.962  -0.401  0.00  0.00    +0.025 A 
ATOM      9  C   UNL     1      -3.260  -3.842  -0.592  0.00  0.00    +0.002 A 
ATOM     10  C   UNL     1      -3.887  -2.622  -0.421  0.00  0.00    +0.002 A 
ATOM     11  C   UNL     1      -3.157  -1.510  -0.034  0.00  0.00    +0.025 A 
ATOM     12  C   UNL     1      -1.796  -1.634   0.179  0.00  0.00    +0.052 A 
ATOM     13  N   UNL     1      -1.023  -0.586   0.669  0.00  0.00    -0.316 N 
ATOM     14  C   UNL     1       2.020   0.043  -1.285  0.00  0.00    +0.163 C 
ATOM     15  O   UNL     1       2.879  -0.584  -1.873  0.00  0.00    -0.292 OA
ATOM     16  C   UNL     1       2.098   1.540  -1.274  0.00  0.00    +0.088 C 
ATOM     17  H   UNL     1       0.639  -3.533   0.935  0.00  0.00    +0.147 HD
ATOM     18  H   UNL     1      -1.296  -0.233   1.675  0.00  0.00    +0.152 HD
ENDROOT
BRANCH   1  22
ATOM     19  C   UNL     1       1.355   6.326  -0.019  0.00  0.00    -0.048 A 
ATOM     20  C   UNL     1       1.968   5.648   1.018  0.00  0.00    +0.004 A 
ATOM     21  C   UNL     1       1.988   4.266   1.023  0.00  0.00    +0.004 A 
ATOM     22  C   UNL     1       1.393   3.562  -0.007  0.00  0.00    -0.043 A 
ATOM     23  C   UNL     1       0.784   4.240  -1.046  0.00  0.00    +0.004 A 
ATOM     24  C   UNL     1       0.760   5.622  -1.049  0.00  0.00    +0.004 A 
BRANCH  19  26
ATOM     25  C   UNL     1       2.572   8.358  -0.754  0.00  0.00    +0.009 C 
ATOM     26  C   UNL     1       1.333   7.833  -0.025  0.00  0.00    +0.032 C 
ENDBRANCH  19  26
ENDBRANCH   1  22
BRANCH   5  27
ATOM     27  C   UNL     1       0.829  -2.572  -2.166  0.00  0.00    +0.023 A 
ATOM     28  C   UNL     1       0.129  -1.719  -2.999  0.00  0.00    +0.013 A 
ATOM     29  C   UNL     1      -0.132  -2.085  -4.306  0.00  0.00    +0.050 A 
ATOM     30  C   UNL     1       0.307  -3.310  -4.787  0.00  0.00    +0.165 A 
ATOM     31  C   UNL     1       1.011  -4.169  -3.952  0.00  0.00    +0.204 A 
ATOM     32  C   UNL     1       1.276  -3.796  -2.640  0.00  0.00    +0.170 A 
BRANCH  32  33
ATOM     33  O   UNL     1       1.969  -4.631  -1.821  0.00  0.00    -0.491 OA
ATOM     34  C   UNL     1       1.208  -5.572  -1.060  0.00  0.00    +0.277 C 
ENDBRANCH  32  33
BRANCH  31  35
ATOM     35  O   UNL     1       1.444  -5.372  -4.420  0.00  0.00    -0.488 OA
ATOM     36  C   UNL     1       2.744  -5.408  -5.012  0.00  0.00    +0.277 C 
ENDBRANCH  31  35
BRANCH  30  37
ATOM     37  O   UNL     1       0.049  -3.669  -6.073  0.00  0.00    -0.491 OA
ATOM     38  C   UNL     1      -0.680  -2.736  -6.873  0.00  0.00    +0.277 C 
ENDBRANCH  30  37
ENDBRANCH   5  27
TORSDOF 6
