REMARK  Name = ZINC40061360
REMARK  5 active torsions:
REMARK  status: ('A' for Active; 'I' for Inactive)
REMARK    1  A    between atoms: C_1  and  C_2
REMARK    2  A    between atoms: C_9  and  C_11
REMARK    3  A    between atoms: C_11  and  O_12
REMARK    4  A    between atoms: O_12  and  C_13
REMARK    5  A    between atoms: C_13  and  C_15
REMARK                            x       y       z     vdW  Elec       q    Type
REMARK                         _______ _______ _______ _____ _____    ______ ____
ROOT
ATOM      1  C   UNL     1       4.573  -6.888  -1.195  0.00  0.00    +0.340 C 
ATOM      2  O   UNL     1       4.633  -6.992  -2.404  0.00  0.00    -0.245 OA
ENDROOT
BRANCH   1   3
ATOM      3  C   UNL     1       5.188  -7.916  -0.335  0.00  0.00    +0.060 A 
ATOM      4  C   UNL     1       5.113  -7.799   1.061  0.00  0.00    +0.017 A 
ATOM      5  C   UNL     1       5.677  -8.741   1.868  0.00  0.00    +0.027 A 
ATOM      6  C   UNL     1       6.337  -9.837   1.315  0.00  0.00    +0.047 A 
ATOM      7  C   UNL     1       6.418  -9.967  -0.087  0.00  0.00    +0.004 A 
ATOM      8  C   UNL     1       5.836  -9.006  -0.909  0.00  0.00    +0.025 A 
ATOM      9  C   UNL     1       7.161 -11.201  -0.329  0.00  0.00    -0.019 A 
ATOM     10  C   UNL     1       7.472 -11.724   0.872  0.00  0.00    +0.020 A 
ATOM     11  N   UNL     1       6.985 -10.918   1.863  0.00  0.00    -0.358 N 
ATOM     12  H   UNL     1       7.082 -11.085   2.814  0.00  0.00    +0.166 HD
ATOM     13  C   UNL     1       8.244 -13.011   1.050  0.00  0.00    +0.053 C 
ATOM     14  C   UNL     1       8.218 -13.782  -0.274  0.00  0.00    +0.006 C 
ATOM     15  C   UNL     1       8.637 -12.852  -1.416  0.00  0.00    +0.005 C 
ATOM     16  C   UNL     1       7.534 -11.813  -1.654  0.00  0.00    +0.037 C 
ENDBRANCH   1   3
BRANCH   1  17
ATOM     17  O   UNL     1       3.945  -5.833  -0.640  0.00  0.00    -0.452 OA
BRANCH  17  18
ATOM     18  C   UNL     1       3.372  -4.875  -1.533  0.00  0.00    +0.328 C 
BRANCH  18  26
ATOM     19  C   UNL     1      -0.019   1.526   0.010  0.00  0.00    +0.055 C 
ATOM     20  C   UNL     1       0.002  -0.004   0.002  0.00  0.00    +0.208 C 
ATOM     21  C   UNL     1       0.787  -0.541  -1.219  0.00  0.00    +0.122 C 
ATOM     22  C   UNL     1       1.507  -1.746  -0.643  0.00  0.00    +0.144 C 
ATOM     23  N   UNL     1       1.462  -1.668   0.642  0.00  0.00    -0.073 NA
ATOM     24  O   UNL     1       0.783  -0.516   1.101  0.00  0.00    -0.389 OA
ATOM     25  N   UNL     1       2.108  -2.755  -1.373  0.00  0.00    -0.268 N 
ATOM     26  C   UNL     1       2.717  -3.775  -0.737  0.00  0.00    +0.256 C 
ATOM     27  O   UNL     1       2.739  -3.808   0.475  0.00  0.00    -0.272 OA
ATOM     28  H   UNL     1       2.090  -2.729  -2.342  0.00  0.00    +0.156 HD
ENDBRANCH  18  26
ENDBRANCH  17  18
ENDBRANCH   1  17
TORSDOF 4
