REMARK  Name = ZINC00659831
REMARK  8 active torsions:
REMARK  status: ('A' for Active; 'I' for Inactive)
REMARK    1  A    between atoms: C_1  and  C_2
REMARK    2  A    between atoms: C_2  and  C_33
REMARK    3  A    between atoms: C_6  and  C_21
REMARK    4  A    between atoms: C_8  and  C_19
REMARK    5  A    between atoms: C_9  and  N_18
REMARK    6  A    between atoms: C_24  and  N_27
REMARK    7  A    between atoms: N_27  and  C_28
REMARK    8  A    between atoms: N_27  and  C_29
REMARK                            x       y       z     vdW  Elec       q    Type
REMARK                         _______ _______ _______ _____ _____    ______ ____
ROOT
ATOM      1  C   UNL     1       3.648  -3.685   2.238  0.00  0.00    +0.011 C 
ATOM      2  C   UNL     1       2.834  -3.967   0.974  0.00  0.00    -0.023 C 
ATOM      3  C   UNL     1       2.434  -2.645   0.315  0.00  0.00    +0.058 C 
ATOM      4  C   UNL     1       3.674  -1.881  -0.082  0.00  0.00    +0.026 C 
ATOM      5  C   UNL     1       4.803  -2.528  -0.440  0.00  0.00    +0.025 C 
ATOM      6  C   UNL     1       6.032  -1.764  -0.862  0.00  0.00    +0.097 C 
ATOM      7  C   UNL     1       5.965  -0.335  -0.409  0.00  0.00    +0.077 C 
ATOM      8  C   UNL     1       4.786   0.230  -0.048  0.00  0.00    +0.108 C 
ATOM      9  N   UNL     1       3.625  -0.511  -0.075  0.00  0.00    -0.245 N 
ATOM     10  C   UNL     1       2.390   0.138  -0.101  0.00  0.00    +0.131 A 
ATOM     11  C   UNL     1       1.807   0.461  -1.321  0.00  0.00    +0.045 A 
ATOM     12  C   UNL     1       0.582   1.104  -1.333  0.00  0.00    +0.020 A 
ATOM     13  C   UNL     1      -0.020   1.404  -0.118  0.00  0.00    +0.036 A 
ATOM     14  C   UNL     1       0.617   1.054   1.057  0.00  0.00    +0.128 A 
ATOM     15  N   UNL     1       1.785   0.441   1.036  0.00  0.00    -0.239 NA
ATOM     16 BR   UNL     1      -1.690   2.289  -0.072  0.00  0.00    -0.049 Br
ATOM     17  C   UNL     1       4.867  -3.933  -0.433  0.00  0.00    +0.162 C 
ATOM     18  O   UNL     1       5.897  -4.484  -0.769  0.00  0.00    -0.292 OA
ATOM     19  C   UNL     1       3.686  -4.766  -0.019  0.00  0.00    +0.086 C 
ATOM     20  C   UNL     1       1.579  -4.761   1.337  0.00  0.00    +0.011 C 
ENDROOT
BRANCH   6  21
ATOM     21  C   UNL     1       6.146  -1.801  -2.364  0.00  0.00    -0.035 A 
ATOM     22  C   UNL     1       5.131  -1.280  -3.146  0.00  0.00    +0.006 A 
ATOM     23  C   UNL     1       5.234  -1.307  -4.523  0.00  0.00    +0.023 A 
ATOM     24  C   UNL     1       6.354  -1.869  -5.123  0.00  0.00    +0.029 A 
ATOM     25  C   UNL     1       7.369  -2.397  -4.335  0.00  0.00    +0.023 A 
ATOM     26  C   UNL     1       7.262  -2.361  -2.958  0.00  0.00    +0.006 A 
BRANCH  24  27
ATOM     27  N   UNL     1       6.459  -1.903  -6.515  0.00  0.00    -0.336 N 
ATOM     28  C   UNL     1       7.641  -2.496  -7.146  0.00  0.00    +0.129 C 
ATOM     29  C   UNL     1       5.387  -1.346  -7.344  0.00  0.00    +0.129 C 
ENDBRANCH  24  27
ENDBRANCH   6  21
BRANCH   8  30
ATOM     30  N   UNL     1       4.751   1.545   0.350  0.00  0.00    -0.345 N 
ATOM     31  H   UNL     1       3.932   1.922   0.708  0.00  0.00    +0.144 HD
ATOM     32  H   UNL     1       5.546   2.096   0.274  0.00  0.00    +0.144 HD
ENDBRANCH   8  30
BRANCH   7  33
ATOM     33  C   UNL     1       7.164   0.446  -0.362  0.00  0.00    +0.099 C 
ATOM     34  N   UNL     1       8.115   1.066  -0.325  0.00  0.00    -0.191 NA
ENDBRANCH   7  33
TORSDOF 4
