REMARK  Name = ZINC06894567
REMARK  4 active torsions:
REMARK  status: ('A' for Active; 'I' for Inactive)
REMARK    1  A    between atoms: C_1  and  C_2
REMARK    2  A    between atoms: C_2  and  C_3
REMARK    3  A    between atoms: C_8  and  N_9
REMARK    4  A    between atoms: C_10  and  C_12
REMARK                            x       y       z     vdW  Elec       q    Type
REMARK                         _______ _______ _______ _____ _____    ______ ____
ROOT
ATOM      1  C   UNL     1      -2.793   0.505   2.103  0.00  0.00    +0.076 C 
ATOM      2  C   UNL     1      -1.252   0.432   2.108  0.00  0.00    -0.003 C 
ATOM      3  C   UNL     1      -0.778   1.593   1.225  0.00  0.00    -0.066 C 
ATOM      4  C   UNL     1      -0.005   1.061   0.010  0.00  0.00    -0.017 C 
ATOM      5  C   UNL     1      -0.794   1.563  -1.221  0.00  0.00    -0.020 C 
ATOM      6  C   UNL     1      -2.217   1.781  -0.653  0.00  0.00    -0.077 C 
ATOM      7  C   UNL     1      -3.103   1.913   1.584  0.00  0.00    +0.052 C 
ATOM      8  C   UNL     1      -4.409   1.945   0.839  0.00  0.00    -0.027 A 
ATOM      9  C   UNL     1      -4.877   1.290  -0.279  0.00  0.00    +0.004 A 
ATOM     10  C   UNL     1      -6.159   1.534  -0.738  0.00  0.00    +0.000 A 
ATOM     11  C   UNL     1      -6.968   2.438  -0.073  0.00  0.00    +0.002 A 
ATOM     12  C   UNL     1      -6.503   3.097   1.046  0.00  0.00    +0.023 A 
ATOM     13  C   UNL     1      -5.213   2.856   1.516  0.00  0.00    +0.036 A 
ATOM     14  N   UNL     1      -4.526   3.388   2.608  0.00  0.00    -0.286 N 
ATOM     15  C   UNL     1      -3.282   2.886   2.720  0.00  0.00    +0.212 C 
ATOM     16  O   UNL     1      -2.462   3.163   3.570  0.00  0.00    -0.277 OA
ATOM     17  H   UNL     1      -4.901   4.044   3.217  0.00  0.00    +0.155 HD
ATOM     18  N   UNL     1      -1.967   2.263   0.719  0.00  0.00    +0.394 N 
ATOM     19  H   UNL     1      -1.829   3.280   0.716  0.00  0.00    -0.079 HD
ENDROOT
BRANCH   1  21
ATOM     20  N   UNL     1      -4.618  -0.042   3.681  0.00  0.00    -0.285 N 
ATOM     21  C   UNL     1      -3.334   0.326   3.498  0.00  0.00    +0.220 C 
ATOM     22  O   UNL     1      -2.614   0.513   4.456  0.00  0.00    -0.275 OA
ATOM     23  H   UNL     1      -5.177  -0.248   2.916  0.00  0.00    +0.155 HD
BRANCH  20  29
ATOM     24  C   UNL     1      -6.508   0.029   5.183  0.00  0.00    -0.026 A 
ATOM     25  C   UNL     1      -7.024  -0.060   6.461  0.00  0.00    +0.005 A 
ATOM     26  C   UNL     1      -6.183  -0.292   7.534  0.00  0.00    +0.000 A 
ATOM     27  C   UNL     1      -4.823  -0.441   7.330  0.00  0.00    +0.002 A 
ATOM     28  C   UNL     1      -4.301  -0.358   6.055  0.00  0.00    +0.023 A 
ATOM     29  C   UNL     1      -5.144  -0.126   4.975  0.00  0.00    +0.037 A 
BRANCH  24  31
ATOM     30  C   UNL     1      -7.822  -1.044   3.375  0.00  0.00    +0.009 C 
ATOM     31  C   UNL     1      -7.424   0.287   4.015  0.00  0.00    +0.033 C 
ENDBRANCH  24  31
ENDBRANCH  20  29
ENDBRANCH   1  21
TORSDOF 3
