REMARK  Name = ZINC36692434
REMARK  7 active torsions:
REMARK  status: ('A' for Active; 'I' for Inactive)
REMARK    1  A    between atoms: C_1  and  C_2
REMARK    2  A    between atoms: C_7  and  N_8
REMARK    3  A    between atoms: C_9  and  C_11
REMARK    4  A    between atoms: C_11  and  N_12
REMARK    5  A    between atoms: C_17  and  C_24
REMARK    6  A    between atoms: C_20  and  C_22
REMARK    7  A    between atoms: C_20  and  C_23
REMARK                            x       y       z     vdW  Elec       q    Type
REMARK                         _______ _______ _______ _____ _____    ______ ____
ROOT
ATOM      1  N   UNL     1      -0.240  -0.903   5.988  0.00  0.00    -0.215 N 
ATOM      2  C   UNL     1      -1.392  -1.394   6.495  0.00  0.00    +0.247 C 
ATOM      3  O   UNL     1      -2.511  -1.003   6.246  0.00  0.00    -0.273 OA
ATOM      4  C   UNL     1      -0.978  -2.512   7.422  0.00  0.00    +0.113 C 
ATOM      5  C   UNL     1      -1.640  -2.363   8.783  0.00  0.00    +0.038 C 
ATOM      6  C   UNL     1      -3.124  -2.720   8.685  0.00  0.00    -0.011 C 
ATOM      7  C   UNL     1      -3.247  -4.182   8.261  0.00  0.00    +0.009 C 
ATOM      8  C   UNL     1      -2.621  -4.408   6.889  0.00  0.00    -0.032 C 
ATOM      9  C   UNL     1      -1.201  -3.876   6.800  0.00  0.00    +0.041 C 
ATOM     10  C   UNL     1      -2.578  -5.931   6.636  0.00  0.00    +0.011 C 
ATOM     11  C   UNL     1      -3.502  -3.787   5.801  0.00  0.00    +0.011 C 
ATOM     12  C   UNL     1      -3.781  -2.533  10.056  0.00  0.00    +0.007 C 
ATOM     13  N   UNL     1       0.479  -2.293   7.573  0.00  0.00    -0.285 N 
ATOM     14  C   UNL     1       0.822  -1.383   6.644  0.00  0.00    +0.310 C 
ATOM     15  O   UNL     1       1.966  -1.036   6.425  0.00  0.00    -0.252 OA
ATOM     16  H   UNL     1       1.055  -2.726   8.218  0.00  0.00    +0.151 HD
ENDROOT
BRANCH   1  17
ATOM     17  C   UNL     1      -0.167   0.054   4.882  0.00  0.00    +0.214 C 
BRANCH  17  19
ATOM     18  N   UNL     1       0.026  -0.014   2.417  0.00  0.00    -0.284 N 
ATOM     19  C   UNL     1      -0.056  -0.694   3.578  0.00  0.00    +0.235 C 
ATOM     20  O   UNL     1      -0.040  -1.906   3.574  0.00  0.00    -0.274 OA
ATOM     21  H   UNL     1       0.079   0.955   2.425  0.00  0.00    +0.155 HD
BRANCH  18  28
ATOM     22  C   UNL     1      -1.265   1.183   0.182  0.00  0.00    +0.046 C 
ATOM     23  C   UNL     1      -0.584  -0.158   0.085  0.00  0.00    -0.028 A 
ATOM     24  C   UNL     1      -0.570  -0.840  -1.116  0.00  0.00    +0.020 A 
ATOM     25  C   UNL     1       0.055  -2.071  -1.206  0.00  0.00    +0.018 A 
ATOM     26  C   UNL     1       0.666  -2.623  -0.094  0.00  0.00    +0.017 A 
ATOM     27  C   UNL     1       0.655  -1.945   1.109  0.00  0.00    +0.024 A 
ATOM     28  C   UNL     1       0.034  -0.706   1.201  0.00  0.00    +0.036 A 
ATOM     29 BR   UNL     1       0.072  -3.002  -2.852  0.00  0.00    -0.050 Br
ENDBRANCH  18  28
ENDBRANCH  17  19
ENDBRANCH   1  17
TORSDOF 3
