REMARK  Name = ZINC04977143
REMARK  9 active torsions:
REMARK  status: ('A' for Active; 'I' for Inactive)
REMARK    1  A    between atoms: C_1  and  C_2
REMARK    2  A    between atoms: C_2  and  N_3
REMARK    3  A    between atoms: C_4  and  C_23
REMARK    4  A    between atoms: C_7  and  S_8
REMARK    5  A    between atoms: S_8  and  C_9
REMARK    6  A    between atoms: C_9  and  C_10
REMARK    7  A    between atoms: N_12  and  C_13
REMARK    8  A    between atoms: C_16  and  N_20
REMARK    9  A    between atoms: C_18  and  C_19
REMARK                            x       y       z     vdW  Elec       q    Type
REMARK                         _______ _______ _______ _____ _____    ______ ____
ROOT
ATOM      1  C   UNL     1      -3.702   2.128  -0.184  0.00  0.00    +0.173 C 
ENDROOT
BRANCH   1   2
ATOM      2  C   UNL     1      -2.394   1.385  -0.081  0.00  0.00    +0.227 C 
ATOM      3  O   UNL     1      -2.383   0.173  -0.088  0.00  0.00    -0.275 OA
ATOM      4  N   UNL     1      -1.237   2.069   0.019  0.00  0.00    -0.285 N 
ATOM      5  H   UNL     1      -1.250   3.037   0.090  0.00  0.00    +0.155 HD
BRANCH   4   6
ATOM      6  C   UNL     1      -0.017   1.384   0.021  0.00  0.00    +0.036 A 
ATOM      7  C   UNL     1       0.078   0.134   0.619  0.00  0.00    +0.026 A 
ATOM      8  C   UNL     1       1.282  -0.542   0.613  0.00  0.00    +0.034 A 
ATOM      9  C   UNL     1       2.392   0.023   0.013  0.00  0.00    +0.127 A 
ATOM     10  C   UNL     1       2.300   1.267  -0.584  0.00  0.00    +0.038 A 
ATOM     11  C   UNL     1       1.099   1.949  -0.581  0.00  0.00    -0.027 A 
ATOM     12  C   UNL     1       1.000   3.305  -1.232  0.00  0.00    +0.046 C 
BRANCH   9  13
ATOM     13  N   UNL     1       3.681  -0.705   0.008  0.00  0.00    +0.056 N 
ATOM     14  O   UNL     1       3.763  -1.801   0.532  0.00  0.00    -0.126 OA
ATOM     15  O   UNL     1       4.659  -0.208  -0.520  0.00  0.00    -0.126 OA
ENDBRANCH   9  13
ENDBRANCH   4   6
ENDBRANCH   1   2
BRANCH   1  16
ATOM     16  S   UNL     1      -5.062   0.940  -0.304  0.00  0.00    -0.077 S 
BRANCH  16  21
ATOM     17  N   UNL     1      -7.744   1.706  -0.526  0.00  0.00    -0.306 N 
ATOM     18  C   UNL     1      -8.432   2.887  -0.570  0.00  0.00    +0.137 A 
ATOM     19  N   UNL     1      -7.556   3.849  -0.492  0.00  0.00    -0.133 NA
ATOM     20  N   UNL     1      -6.371   3.360  -0.397  0.00  0.00    -0.122 NA
ATOM     21  C   UNL     1      -6.428   2.048  -0.410  0.00  0.00    +0.192 A 
BRANCH  18  22
ATOM     22  C   UNL     1      -9.925   3.047  -0.692  0.00  0.00    +0.057 C 
ATOM     23  C   UNL     1     -10.252   3.826  -1.967  0.00  0.00    +0.011 C 
ATOM     24  C   UNL     1     -11.769   3.989  -2.091  0.00  0.00    +0.001 C 
ATOM     25  C   UNL     1     -12.301   4.752  -0.877  0.00  0.00    +0.000 C 
ATOM     26  C   UNL     1     -11.974   3.973   0.399  0.00  0.00    +0.001 C 
ATOM     27  C   UNL     1     -10.457   3.810   0.523  0.00  0.00    +0.011 C 
ENDBRANCH  18  22
BRANCH  17  29
ATOM     28  C   UNL     1      -8.623  -0.132   0.827  0.00  0.00    +0.027 C 
ATOM     29  C   UNL     1      -8.304   0.353  -0.588  0.00  0.00    +0.122 C 
ENDBRANCH  17  29
ENDBRANCH  16  21
ENDBRANCH   1  16
TORSDOF 7
