REMARK  Name = ZINC07367483
REMARK  6 active torsions:
REMARK  status: ('A' for Active; 'I' for Inactive)
REMARK    1  A    between atoms: C_4  and  C_7
REMARK    2  A    between atoms: C_7  and  C_9
REMARK    3  A    between atoms: C_9  and  C_20
REMARK    4  A    between atoms: C_10  and  C_11
REMARK    5  A    between atoms: C_15  and  N_17
REMARK    6  A    between atoms: N_22  and  C_23
REMARK                            x       y       z     vdW  Elec       q    Type
REMARK                         _______ _______ _______ _____ _____    ______ ____
ROOT
ATOM      1  C   UNL     1      -1.609   1.699  -0.370  0.00  0.00    +0.085 C 
ATOM      2  C   UNL     1      -2.475   0.678  -0.706  0.00  0.00    +0.025 C 
ENDROOT
BRANCH   2   3
ATOM      3  C   UNL     1      -1.991  -0.701  -0.772  0.00  0.00    -0.022 A 
ATOM      4  C   UNL     1      -0.671  -0.966  -1.167  0.00  0.00    +0.012 A 
ATOM      5  C   UNL     1      -0.223  -2.255  -1.222  0.00  0.00    +0.054 A 
ATOM      6  C   UNL     1      -1.076  -3.305  -0.897  0.00  0.00    +0.209 A 
ATOM      7  C   UNL     1      -2.388  -3.050  -0.510  0.00  0.00    +0.173 A 
ATOM      8  C   UNL     1      -2.846  -1.765  -0.446  0.00  0.00    +0.044 A 
ATOM      9  O   UNL     1      -0.627  -4.584  -0.958  0.00  0.00    -0.285 OA
BRANCH   7  10
ATOM     10  N   UNL     1      -3.289  -4.173  -0.166  0.00  0.00    +0.060 N 
ATOM     11  O   UNL     1      -4.438  -3.950   0.173  0.00  0.00    -0.126 OA
ATOM     12  O   UNL     1      -2.882  -5.319  -0.223  0.00  0.00    -0.126 OA
ENDBRANCH   7  10
ENDBRANCH   2   3
BRANCH   1  13
ATOM     13  C   UNL     1      -2.047   3.099  -0.471  0.00  0.00    +0.252 C 
ATOM     14  O   UNL     1      -3.155   3.360  -0.902  0.00  0.00    -0.270 OA
ATOM     15  N   UNL     1      -1.223   4.093  -0.086  0.00  0.00    -0.280 N 
ATOM     16  H   UNL     1      -0.318   3.890   0.199  0.00  0.00    +0.155 HD
BRANCH  15  17
ATOM     17  C   UNL     1      -1.672   5.418  -0.096  0.00  0.00    +0.052 A 
ATOM     18  C   UNL     1      -0.791   6.460  -0.375  0.00  0.00    +0.026 A 
ATOM     19  C   UNL     1      -1.283   7.755  -0.379  0.00  0.00    +0.021 A 
ATOM     20  C   UNL     1      -2.620   7.969  -0.098  0.00  0.00    +0.111 A 
ATOM     21  N   UNL     1      -3.427   6.961   0.167  0.00  0.00    -0.261 NA
ATOM     22  C   UNL     1      -3.001   5.714   0.176  0.00  0.00    +0.134 A 
ENDBRANCH  15  17
ENDBRANCH   1  13
BRANCH   1  23
ATOM     23  C   UNL     1      -0.248   1.386   0.088  0.00  0.00    +0.198 C 
ATOM     24  O   UNL     1      -0.081   0.803   1.142  0.00  0.00    -0.286 OA
BRANCH  23  28
ATOM     25  C   UNL     1       3.099   2.505  -2.277  0.00  0.00    +0.000 A 
ATOM     26  C   UNL     1       3.294   1.969  -1.016  0.00  0.00    +0.001 A 
ATOM     27  C   UNL     1       2.212   1.604  -0.243  0.00  0.00    +0.012 A 
ATOM     28  C   UNL     1       0.917   1.776  -0.735  0.00  0.00    +0.022 A 
ATOM     29  C   UNL     1       0.727   2.312  -2.010  0.00  0.00    +0.012 A 
ATOM     30  C   UNL     1       1.818   2.678  -2.771  0.00  0.00    +0.001 A 
ENDBRANCH  23  28
ENDBRANCH   1  23
TORSDOF 6
