REMARK  Name = ZINC16839279
REMARK  8 active torsions:
REMARK  status: ('A' for Active; 'I' for Inactive)
REMARK    1  A    between atoms: C_1  and  C_2
REMARK    2  A    between atoms: C_2  and  O_3
REMARK    3  A    between atoms: O_3  and  C_4
REMARK    4  A    between atoms: C_13  and  C_14
REMARK    5  A    between atoms: N_16  and  N_17
REMARK    6  A    between atoms: C_18  and  C_20
REMARK    7  A    between atoms: N_25  and  C_27
REMARK    8  A    between atoms: C_27  and  C_28
REMARK                            x       y       z     vdW  Elec       q    Type
REMARK                         _______ _______ _______ _____ _____    ______ ____
ROOT
ATOM      1  N   UNL     1      -3.173   7.106  -1.096  0.00  0.00    -0.230 N 
ATOM      2  C   UNL     1      -3.766   7.453  -2.255  0.00  0.00    +0.262 C 
ATOM      3  O   UNL     1      -3.252   7.151  -3.315  0.00  0.00    -0.269 OA
ATOM      4  H   UNL     1      -3.583   7.347  -0.250  0.00  0.00    +0.173 HD
ENDROOT
BRANCH   2   5
ATOM      5  C   UNL     1      -5.038   8.199  -2.239  0.00  0.00    +0.055 A 
ATOM      6  C   UNL     1      -5.641   8.553  -1.008  0.00  0.00    +0.020 A 
ATOM      7  C   UNL     1      -6.814   9.241  -1.022  0.00  0.00    +0.071 A 
ATOM      8  C   UNL     1      -7.401   9.585  -2.254  0.00  0.00    +0.252 A 
ATOM      9  O   UNL     1      -8.453  10.202  -2.272  0.00  0.00    -0.268 OA
ATOM     10  N   UNL     1      -6.811   9.238  -3.412  0.00  0.00    -0.310 N 
ATOM     11  C   UNL     1      -5.647   8.562  -3.423  0.00  0.00    +0.102 A 
BRANCH  10  12
ATOM     12  C   UNL     1      -7.441   9.607  -4.682  0.00  0.00    +0.160 C 
BRANCH  12  13
ATOM     13  C   UNL     1      -6.939  10.959  -5.118  0.00  0.00    -0.028 A 
ATOM     14  C   UNL     1      -7.606  12.104  -4.726  0.00  0.00    +0.005 A 
ATOM     15  C   UNL     1      -7.142  13.345  -5.122  0.00  0.00    +0.000 A 
ATOM     16  C   UNL     1      -6.017  13.439  -5.919  0.00  0.00    +0.000 A 
ATOM     17  C   UNL     1      -5.353  12.294  -6.316  0.00  0.00    +0.000 A 
ATOM     18  C   UNL     1      -5.814  11.054  -5.915  0.00  0.00    +0.005 A 
ENDBRANCH  12  13
ENDBRANCH  10  12
ENDBRANCH   2   5
BRANCH   1  21
ATOM     19  C   UNL     1      -1.372   6.050   0.048  0.00  0.00    +0.264 C 
ATOM     20  O   UNL     1      -1.886   6.352   1.108  0.00  0.00    -0.269 OA
ATOM     21  N   UNL     1      -1.965   6.397  -1.111  0.00  0.00    -0.230 N 
ATOM     22  H   UNL     1      -1.555   6.157  -1.957  0.00  0.00    +0.173 HD
BRANCH  19  32
ATOM     23  C   UNL     1       1.118   5.981   0.023  0.00  0.00    +0.133 A 
ATOM     24  C   UNL     1       2.318   5.268   0.008  0.00  0.00    +0.047 A 
ATOM     25  C   UNL     1       2.343   3.910   0.000  0.00  0.00    +0.012 A 
ATOM     26  C   UNL     1       1.148   3.167   0.008  0.00  0.00    -0.017 A 
ATOM     27  C   UNL     1       1.164   1.763   0.000  0.00  0.00    +0.008 A 
ATOM     28  C   UNL     1      -0.013   1.076   0.008  0.00  0.00    +0.001 A 
ATOM     29  C   UNL     1      -1.234   1.745   0.017  0.00  0.00    +0.001 A 
ATOM     30  C   UNL     1      -1.285   3.107   0.031  0.00  0.00    +0.009 A 
ATOM     31  C   UNL     1      -0.095   3.845   0.024  0.00  0.00    -0.002 A 
ATOM     32  C   UNL     1      -0.103   5.307   0.031  0.00  0.00    +0.087 A 
BRANCH  23  33
ATOM     33  O   UNL     1       1.140   7.336   0.030  0.00  0.00    -0.491 OA
BRANCH  33  35
ATOM     34  C   UNL     1       2.247   9.484   0.031  0.00  0.00    +0.048 C 
ATOM     35  C   UNL     1       2.423   7.965   0.021  0.00  0.00    +0.226 C 
ENDBRANCH  33  35
ENDBRANCH  23  33
ENDBRANCH  19  32
ENDBRANCH   1  21
TORSDOF 7
