REMARK  Name = ZINC64743539
REMARK  6 active torsions:
REMARK  status: ('A' for Active; 'I' for Inactive)
REMARK    1  A    between atoms: C_1  and  O_2
REMARK    2  A    between atoms: O_2  and  C_3
REMARK    3  A    between atoms: C_8  and  C_13
REMARK    4  A    between atoms: C_19  and  C_22
REMARK    5  A    between atoms: C_26  and  C_29
REMARK    6  A    between atoms: N_31  and  C_32
REMARK                            x       y       z     vdW  Elec       q    Type
REMARK                         _______ _______ _______ _____ _____    ______ ____
ROOT
ATOM      1  C   UNL     1       1.398  -4.779   4.644  0.00  0.00    +0.242 C 
ATOM      2  O   UNL     1       0.304  -5.202   4.336  0.00  0.00    -0.273 OA
ATOM      3  N   UNL     1       1.877  -4.992   5.886  0.00  0.00    -0.299 N 
ATOM      4  C   UNL     1       3.199  -4.481   6.275  0.00  0.00    +0.108 C 
ATOM      5  C   UNL     1       3.048  -3.649   7.553  0.00  0.00    +0.019 C 
ATOM      6  C   UNL     1       2.358  -4.492   8.628  0.00  0.00    +0.009 C 
ATOM      7  C   UNL     1       0.962  -4.893   8.145  0.00  0.00    +0.043 C 
ATOM      8  C   UNL     1       1.086  -5.734   6.877  0.00  0.00    +0.114 C 
ENDROOT
BRANCH   1  14
ATOM      9  C   UNL     1       0.626  -0.548   1.066  0.00  0.00    +0.122 A 
ATOM     10  C   UNL     1       1.203   0.238   2.081  0.00  0.00    +0.046 A 
ATOM     11  C   UNL     1       1.836  -0.319   3.136  0.00  0.00    +0.013 A 
ATOM     12  C   UNL     1       1.923  -1.783   3.224  0.00  0.00    -0.003 A 
ATOM     13  C   UNL     1       2.479  -2.611   4.135  0.00  0.00    +0.016 C 
ATOM     14  C   UNL     1       2.221  -4.016   3.639  0.00  0.00    +0.190 C 
ATOM     15  N   UNL     1       1.479  -3.870   2.382  0.00  0.00    -0.370 N 
ATOM     16  C   UNL     1       1.309  -2.589   2.144  0.00  0.00    +0.047 A 
ATOM     17  C   UNL     1       0.663  -1.905   1.084  0.00  0.00    +0.071 A 
ATOM     18  H   UNL     1       1.167  -4.596   1.820  0.00  0.00    +0.161 HD
BRANCH   9  20
ATOM     19  C   UNL     1      -0.013   1.502   0.052  0.00  0.00    +0.277 C 
ATOM     20  O   UNL     1       0.004   0.073   0.034  0.00  0.00    -0.495 OA
ENDBRANCH   9  20
ENDBRANCH   1  14
BRANCH   7  21
ATOM     21  C   UNL     1       0.260  -5.707   9.234  0.00  0.00    +0.192 C 
ATOM     22  N   UNL     1      -1.103  -6.107   8.814  0.00  0.00    -0.176 NA
ATOM     23  N   UNL     1      -2.054  -5.936   9.551  0.00  0.00    -0.167 NA
ATOM     24  C   UNL     1      -1.875  -5.322  10.887  0.00  0.00    +0.272 C 
ATOM     25  S   UNL     1      -0.160  -4.657  10.696  0.00  0.00    -0.095 S 
BRANCH  24  26
ATOM     26  C   UNL     1      -2.872  -4.217  11.121  0.00  0.00    +0.254 C 
ATOM     27  O   UNL     1      -2.504  -3.061  11.131  0.00  0.00    -0.272 OA
ATOM     28  N   UNL     1      -4.171  -4.513  11.320  0.00  0.00    -0.283 N 
ATOM     29  H   UNL     1      -4.477  -5.430  11.246  0.00  0.00    +0.155 HD
BRANCH  28  30
ATOM     30  C   UNL     1      -5.081  -3.495  11.634  0.00  0.00    +0.034 A 
ATOM     31  C   UNL     1      -6.131  -3.746  12.507  0.00  0.00    +0.026 A 
ATOM     32  C   UNL     1      -7.027  -2.741  12.816  0.00  0.00    +0.040 A 
ATOM     33  C   UNL     1      -6.879  -1.484  12.254  0.00  0.00    +0.124 A 
ATOM     34  C   UNL     1      -5.832  -1.232  11.383  0.00  0.00    +0.040 A 
ATOM     35  C   UNL     1      -4.931  -2.232  11.077  0.00  0.00    +0.026 A 
ATOM     36  F   UNL     1      -7.757  -0.503  12.556  0.00  0.00    -0.205 F 
ENDBRANCH  28  30
ENDBRANCH  24  26
ENDBRANCH   7  21
TORSDOF 5
