REMARK  Name = ZINC27870061
REMARK  10 active torsions:
REMARK  status: ('A' for Active; 'I' for Inactive)
REMARK    1  A    between atoms: C_1  and  C_2
REMARK    2  A    between atoms: C_2  and  C_3
REMARK    3  A    between atoms: C_3  and  C_28
REMARK    4  A    between atoms: N_6  and  N_10
REMARK    5  A    between atoms: C_11  and  C_13
REMARK    6  A    between atoms: C_13  and  S_14
REMARK    7  A    between atoms: S_14  and  C_15
REMARK    8  A    between atoms: C_16  and  C_26
REMARK    9  A    between atoms: C_17  and  C_22
REMARK   10  A    between atoms: C_19  and  C_21
REMARK                            x       y       z     vdW  Elec       q    Type
REMARK                         _______ _______ _______ _____ _____    ______ ____
ROOT
ATOM      1  N   UNL     1      -3.700   7.620   0.079  0.00  0.00    -0.223 N 
ATOM      2  C   UNL     1      -2.410   7.230   0.065  0.00  0.00    +0.240 C 
ATOM      3  O   UNL     1      -1.526   8.060   0.061  0.00  0.00    -0.273 OA
ATOM      4  H   UNL     1      -4.503   6.867   0.082  0.00  0.00    +0.174 HD
ENDROOT
BRANCH   1   8
ATOM      5  C   UNL     1      -4.675  11.079   0.721  0.00  0.00    +0.111 C 
ATOM      6  C   UNL     1      -4.468   9.648   1.174  0.00  0.00    +0.263 C 
ATOM      7  O   UNL     1      -4.664   9.195   2.281  0.00  0.00    -0.271 OA
ATOM      8  N   UNL     1      -4.020   8.984   0.090  0.00  0.00    -0.137 N 
ATOM      9  C   UNL     1      -3.923   9.787  -0.976  0.00  0.00    +0.326 C 
ATOM     10  O   UNL     1      -3.545   9.415  -2.069  0.00  0.00    -0.251 OA
ATOM     11  N   UNL     1      -4.290  11.052  -0.701  0.00  0.00    -0.284 N 
ATOM     12  C   UNL     1      -6.144  11.481   0.873  0.00  0.00    +0.041 C 
ATOM     13  H   UNL     1      -4.343  11.970  -1.303  0.00  0.00    +0.151 HD
BRANCH   5  15
ATOM     14  C   UNL     1      -3.932  13.453   0.951  0.00  0.00    +0.006 C 
ATOM     15  C   UNL     1      -3.774  12.036   1.504  0.00  0.00    +0.032 C 
ENDBRANCH   5  15
ENDBRANCH   1   8
BRANCH   2  16
ATOM     16  C   UNL     1      -2.067   5.763   0.053  0.00  0.00    +0.173 C 
BRANCH  16  17
ATOM     17  S   UNL     1      -0.268   5.564   0.035  0.00  0.00    -0.095 S 
BRANCH  17  18
ATOM     18  C   UNL     1      -0.154   3.806   0.024  0.00  0.00    +0.116 A 
ATOM     19  C   UNL     1       1.109   3.187   0.009  0.00  0.00    +0.095 A 
ATOM     20  C   UNL     1       1.174   1.789   0.001  0.00  0.00    +0.076 A 
ATOM     21  C   UNL     1      -0.013   1.076   0.008  0.00  0.00    +0.036 A 
ATOM     22  C   UNL     1      -1.217   1.756   0.017  0.00  0.00    +0.040 A 
ATOM     23  N   UNL     1      -1.258   3.074   0.031  0.00  0.00    -0.244 NA
ATOM     24  C   UNL     1      -2.506   0.976   0.019  0.00  0.00    +0.065 C 
BRANCH  20  25
ATOM     25  C   UNL     1       2.502   1.078  -0.016  0.00  0.00    +0.419 C 
ATOM     26  F   UNL     1       2.291  -0.305  -0.021  0.00  0.00    -0.166 F 
ATOM     27  F   UNL     1       3.214   1.445  -1.163  0.00  0.00    -0.166 F 
ATOM     28  F   UNL     1       3.235   1.433   1.122  0.00  0.00    -0.166 F 
ENDBRANCH  20  25
BRANCH  19  29
ATOM     29  C   UNL     1       2.306   3.972   0.002  0.00  0.00    +0.102 C 
ATOM     30  N   UNL     1       3.256   4.595  -0.004  0.00  0.00    -0.191 NA
ENDBRANCH  19  29
ENDBRANCH  17  18
ENDBRANCH  16  17
ENDBRANCH   2  16
TORSDOF 7
