REMARK  Name = ZINC12768370
REMARK  7 active torsions:
REMARK  status: ('A' for Active; 'I' for Inactive)
REMARK    1  A    between atoms: C_1  and  C_2
REMARK    2  A    between atoms: N_4  and  C_5
REMARK    3  A    between atoms: C_8  and  N_12
REMARK    4  A    between atoms: N_12  and  C_13
REMARK    5  A    between atoms: C_13  and  C_14
REMARK    6  A    between atoms: C_17  and  C_29
REMARK    7  A    between atoms: C_20  and  C_22
REMARK                            x       y       z     vdW  Elec       q    Type
REMARK                         _______ _______ _______ _____ _____    ______ ____
ROOT
ATOM      1  C   UNL     1      -2.577  -2.727   0.069  0.00  0.00    +0.252 C 
ATOM      2  O   UNL     1      -3.512  -1.955   0.083  0.00  0.00    -0.272 OA
ATOM      3  N   UNL     1      -2.800  -4.056   0.072  0.00  0.00    -0.181 N 
ATOM      4  C   UNL     1      -4.123  -4.702   0.091  0.00  0.00    +0.173 C 
ATOM      5  C   UNL     1      -3.791  -6.207   0.085  0.00  0.00    +0.090 C 
ATOM      6  C   UNL     1      -2.279  -6.246   0.063  0.00  0.00    +0.069 C 
ATOM      7  N   UNL     1      -1.818  -5.044   0.051  0.00  0.00    -0.181 NA
ENDROOT
BRANCH   6   8
ATOM      8  C   UNL     1      -1.460  -7.472   0.051  0.00  0.00    -0.002 A 
ATOM      9  C   UNL     1      -2.074  -8.727   0.066  0.00  0.00    +0.011 A 
ATOM     10  C   UNL     1      -1.302  -9.870   0.049  0.00  0.00    +0.020 A 
ATOM     11  C   UNL     1       0.079  -9.775   0.029  0.00  0.00    +0.041 A 
ATOM     12  C   UNL     1       0.695  -8.535   0.020  0.00  0.00    +0.020 A 
ATOM     13  C   UNL     1      -0.066  -7.384   0.031  0.00  0.00    +0.011 A 
ATOM     14 CL   UNL     1       1.044 -11.219   0.014  0.00  0.00    -0.084 Cl
ENDBRANCH   6   8
BRANCH   4  15
ATOM     15  C   UNL     1      -4.877  -4.329   1.341  0.00  0.00    +0.128 A 
ATOM     16  C   UNL     1      -6.196  -4.077   1.419  0.00  0.00    +0.046 A 
ATOM     17  C   UNL     1      -6.475  -3.771   2.771  0.00  0.00    +0.041 A 
ATOM     18  C   UNL     1      -5.310  -3.855   3.438  0.00  0.00    +0.195 A 
ATOM     19  O   UNL     1      -4.347  -4.199   2.568  0.00  0.00    -0.466 OA
ENDBRANCH   4  15
BRANCH   1  20
ATOM     20  C   UNL     1      -1.165  -2.201   0.048  0.00  0.00    +0.199 C 
BRANCH  20  21
ATOM     21  N   UNL     1      -1.190  -0.736   0.049  0.00  0.00    -0.335 N 
ATOM     22  H   UNL     1      -2.038  -0.265   0.062  0.00  0.00    +0.147 HD
BRANCH  21  26
ATOM     23  C   UNL     1       2.385   1.408  -0.003  0.00  0.00    +0.052 A 
ATOM     24  C   UNL     1       2.408   0.020  -0.004  0.00  0.00    +0.026 A 
ATOM     25  C   UNL     1       1.224  -0.690   0.014  0.00  0.00    +0.025 A 
ATOM     26  C   UNL     1       0.010  -0.016   0.032  0.00  0.00    +0.029 A 
ATOM     27  C   UNL     1      -0.014   1.372   0.033  0.00  0.00    +0.044 A 
ATOM     28  C   UNL     1       1.171   2.083   0.015  0.00  0.00    +0.064 A 
ATOM     29 CL   UNL     1       1.142   3.819   0.016  0.00  0.00    -0.082 Cl
BRANCH  23  33
ATOM     30  C   UNL     1       6.021   2.291  -0.436  0.00  0.00    +0.109 C 
ATOM     31  C   UNL     1       4.703   1.567  -0.529  0.00  0.00    +0.214 C 
ATOM     32  O   UNL     1       4.645   0.478  -1.060  0.00  0.00    -0.276 OA
ATOM     33  N   UNL     1       3.588   2.129  -0.021  0.00  0.00    -0.285 N 
ATOM     34  H   UNL     1       3.617   3.032   0.331  0.00  0.00    +0.155 HD
ENDBRANCH  23  33
ENDBRANCH  21  26
ENDBRANCH  20  21
ENDBRANCH   1  20
TORSDOF 6
