REMARK  Name = ZINC06465551
REMARK  7 active torsions:
REMARK  status: ('A' for Active; 'I' for Inactive)
REMARK    1  A    between atoms: C_1  and  C_2
REMARK    2  A    between atoms: C_15  and  C_17
REMARK    3  A    between atoms: C_17  and  C_19
REMARK    4  A    between atoms: C_17  and  S_20
REMARK    5  A    between atoms: S_20  and  C_21
REMARK    6  A    between atoms: C_24  and  N_27
REMARK    7  A    between atoms: C_28  and  C_30
REMARK                            x       y       z     vdW  Elec       q    Type
REMARK                         _______ _______ _______ _____ _____    ______ ____
ROOT
ATOM      1  C   UNL     1      -0.190   1.365   2.881  0.00  0.00    +0.008 C 
ATOM      2  C   UNL     1      -0.158  -0.106   2.460  0.00  0.00    -0.009 C 
ATOM      3  C   UNL     1       0.446  -0.225   1.057  0.00  0.00    +0.008 C 
ATOM      4  C   UNL     1       0.256  -1.647   0.530  0.00  0.00    +0.037 C 
ATOM      5  C   UNL     1       0.797  -2.634   1.561  0.00  0.00    -0.023 A 
ATOM      6  C   UNL     1       0.984  -2.251   2.846  0.00  0.00    -0.004 A 
ATOM      7  S   UNL     1       1.615  -3.690   3.671  0.00  0.00    -0.073 S 
ATOM      8  C   UNL     1       1.629  -4.797   2.297  0.00  0.00    +0.116 A 
ATOM      9  C   UNL     1       1.138  -4.006   1.234  0.00  0.00    +0.075 A 
ATOM     10  C   UNL     1       1.029  -4.637  -0.051  0.00  0.00    +0.260 A 
ATOM     11  O   UNL     1       0.617  -4.043  -1.032  0.00  0.00    -0.267 OA
ATOM     12  N   UNL     1       1.412  -5.935  -0.103  0.00  0.00    -0.309 N 
ATOM     13  H   UNL     1       1.355  -6.401  -0.952  0.00  0.00    +0.170 HD
ATOM     14  C   UNL     1       1.873  -6.613   0.976  0.00  0.00    +0.124 A 
ATOM     15  N   UNL     1       1.987  -6.071   2.168  0.00  0.00    -0.225 NA
ATOM     16  C   UNL     1       0.711  -0.904   3.442  0.00  0.00    +0.046 C 
ENDROOT
BRANCH  14  17
ATOM     17  C   UNL     1       2.271  -8.056   0.801  0.00  0.00    +0.114 C 
ATOM     18  C   UNL     1       1.095  -8.959   1.180  0.00  0.00    +0.027 C 
BRANCH  17  19
ATOM     19  S   UNL     1       3.687  -8.426   1.873  0.00  0.00    -0.114 S 
BRANCH  19  20
ATOM     20  C   UNL     1       5.009  -7.497   1.169  0.00  0.00    +0.009 A 
ATOM     21  C   UNL     1       4.817  -6.809  -0.022  0.00  0.00    +0.016 A 
ATOM     22  C   UNL     1       5.852  -6.082  -0.574  0.00  0.00    +0.024 A 
ATOM     23  C   UNL     1       7.086  -6.037   0.063  0.00  0.00    +0.033 A 
ATOM     24  C   UNL     1       7.278  -6.725   1.254  0.00  0.00    +0.024 A 
ATOM     25  C   UNL     1       6.241  -7.448   1.808  0.00  0.00    +0.016 A 
BRANCH  23  26
ATOM     26  N   UNL     1       8.137  -5.299  -0.497  0.00  0.00    -0.286 N 
ATOM     27  C   UNL     1       7.875  -4.173  -1.190  0.00  0.00    +0.214 C 
ATOM     28  O   UNL     1       6.741  -3.747  -1.249  0.00  0.00    -0.276 OA
ATOM     29  C   UNL     1       8.992  -3.442  -1.890  0.00  0.00    +0.109 C 
ATOM     30  H   UNL     1       9.053  -5.599  -0.387  0.00  0.00    +0.155 HD
ENDBRANCH  23  26
ENDBRANCH  19  20
ENDBRANCH  17  19
ENDBRANCH  14  17
TORSDOF 4
