REMARK  Name = ZINC13450487
REMARK  4 active torsions:
REMARK  status: ('A' for Active; 'I' for Inactive)
REMARK    1  A    between atoms: C_1  and  C_2
REMARK    2  A    between atoms: C_15  and  C_17
REMARK    3  A    between atoms: C_21  and  C_32
REMARK    4  A    between atoms: C_24  and  C_28
REMARK                            x       y       z     vdW  Elec       q    Type
REMARK                         _______ _______ _______ _____ _____    ______ ____
ROOT
ATOM      1  C   UNL     1      -2.467  -3.875   1.923  0.00  0.00    +0.110 C 
ATOM      2  C   UNL     1      -2.932  -4.977   1.284  0.00  0.00    +0.072 C 
ATOM      3  C   UNL     1      -4.381  -5.011   1.478  0.00  0.00    +0.114 C 
ATOM      4  N   UNL     1      -5.263  -5.868   1.047  0.00  0.00    -0.362 N 
ATOM      5  C   UNL     1      -6.681  -5.649   1.356  0.00  0.00    +0.149 C 
ATOM      6  C   UNL     1      -6.835  -4.956   2.711  0.00  0.00    +0.065 C 
ATOM      7  C   UNL     1      -6.072  -3.622   2.701  0.00  0.00    +0.202 C 
ATOM      8  N   UNL     1      -4.703  -3.908   2.261  0.00  0.00    -0.226 N 
ATOM      9  N   UNL     1      -3.528  -3.210   2.516  0.00  0.00    -0.258 N 
ATOM     10  H   UNL     1      -3.462  -2.388   3.026  0.00  0.00    +0.170 HD
ATOM     11  H   UNL     1      -4.986  -6.639   0.528  0.00  0.00    +0.162 HD
ENDROOT
BRANCH   1  23
ATOM     12  C   UNL     1      -0.021   1.458  -0.153  0.00  0.00    +0.008 C 
ATOM     13  C   UNL     1       0.012  -0.070  -0.104  0.00  0.00    -0.008 C 
ATOM     14  C   UNL     1      -1.420  -0.614  -0.098  0.00  0.00    +0.022 C 
ATOM     15  C   UNL     1      -1.392  -2.144  -0.064  0.00  0.00    +0.109 C 
ATOM     16  N   UNL     1      -0.567  -2.586   1.071  0.00  0.00    -0.293 N 
ATOM     17  C   UNL     1       0.796  -2.056   1.184  0.00  0.00    +0.080 C 
ATOM     18  C   UNL     1       0.729  -0.525   1.166  0.00  0.00    +0.012 C 
ATOM     19  C   UNL     1       2.147   0.039   1.218  0.00  0.00    +0.005 C 
ATOM     20  C   UNL     1       2.820  -0.418   2.515  0.00  0.00    +0.000 C 
ATOM     21  C   UNL     1       2.866  -1.946   2.567  0.00  0.00    +0.002 C 
ATOM     22  C   UNL     1       1.444  -2.514   2.490  0.00  0.00    +0.023 C 
ATOM     23  C   UNL     1      -1.050  -3.453   1.982  0.00  0.00    +0.262 C 
ATOM     24  O   UNL     1      -0.322  -3.889   2.852  0.00  0.00    -0.269 OA
ENDBRANCH   1  23
BRANCH   5  25
ATOM     25  C   UNL     1      -7.296  -4.786   0.285  0.00  0.00    +0.127 A 
ATOM     26  C   UNL     1      -8.524  -4.942  -0.242  0.00  0.00    +0.047 A 
ATOM     27  C   UNL     1      -8.688  -3.921  -1.206  0.00  0.00    +0.041 A 
ATOM     28  C   UNL     1      -7.551  -3.203  -1.211  0.00  0.00    +0.195 A 
ATOM     29  O   UNL     1      -6.714  -3.728  -0.302  0.00  0.00    -0.466 OA
ENDBRANCH   5  25
BRANCH   7  30
ATOM     30  C   UNL     1      -6.054  -3.021   4.108  0.00  0.00    +0.410 C 
ATOM     31  F   UNL     1      -5.421  -3.908   4.985  0.00  0.00    -0.169 F 
ATOM     32  F   UNL     1      -5.359  -1.808   4.088  0.00  0.00    -0.169 F 
ATOM     33  F   UNL     1      -7.367  -2.799   4.536  0.00  0.00    -0.169 F 
ENDBRANCH   7  30
TORSDOF 3
