REMARK  Name = ZINC13454185
REMARK  15 active torsions:
REMARK  status: ('A' for Active; 'I' for Inactive)
REMARK    1  A    between atoms: C_1  and  C_2
REMARK    2  A    between atoms: C_6  and  C_15
REMARK    3  A    between atoms: C_13  and  C_14
REMARK    4  A    between atoms: C_15  and  C_17
REMARK    5  A    between atoms: C_15  and  N_26
REMARK    6  A    between atoms: N_21  and  C_22
REMARK    7  A    between atoms: C_22  and  C_23
REMARK    8  A    between atoms: C_22  and  C_24
REMARK    9  A    between atoms: C_22  and  C_25
REMARK   10  A    between atoms: N_26  and  C_27
REMARK   11  A    between atoms: N_26  and  C_36
REMARK   12  A    between atoms: C_27  and  C_28
REMARK   13  A    between atoms: C_31  and  O_34
REMARK   14  A    between atoms: O_34  and  C_35
REMARK   15  A    between atoms: C_36  and  C_37
REMARK                            x       y       z     vdW  Elec       q    Type
REMARK                         _______ _______ _______ _____ _____    ______ ____
ROOT
ATOM      1  C   UNL     1       5.636  -1.437  -1.258  0.00  0.00    +0.163 C 
ENDROOT
BRANCH   1   7
ATOM      2  C   UNL     1      11.923  -1.660  -5.264  0.00  0.00    +0.044 C 
ATOM      3  C   UNL     1      10.419  -1.697  -5.176  0.00  0.00    -0.047 A 
ATOM      4  C   UNL     1       9.809  -1.591  -3.957  0.00  0.00    +0.013 A 
ATOM      5  C   UNL     1       8.414  -1.625  -3.875  0.00  0.00    -0.001 A 
ATOM      6  C   UNL     1       7.728  -1.507  -2.587  0.00  0.00    +0.021 A 
ATOM      7  C   UNL     1       6.373  -1.551  -2.568  0.00  0.00    +0.042 A 
ATOM      8  C   UNL     1       5.650  -1.698  -3.771  0.00  0.00    +0.254 A 
ATOM      9  O   UNL     1       4.432  -1.731  -3.732  0.00  0.00    -0.268 OA
ATOM     10  N   UNL     1       6.270  -1.802  -4.959  0.00  0.00    -0.322 N 
ATOM     11  H   UNL     1       5.680  -1.915  -5.880  0.00  0.00    +0.169 HD
ATOM     12  C   UNL     1       7.646  -1.770  -5.046  0.00  0.00    +0.049 A 
ATOM     13  C   UNL     1       8.288  -1.877  -6.275  0.00  0.00    +0.030 A 
ATOM     14  C   UNL     1       9.665  -1.839  -6.332  0.00  0.00    -0.046 A 
ATOM     15  C   UNL     1      10.359  -1.954  -7.665  0.00  0.00    +0.044 C 
ENDBRANCH   1   7
BRANCH   1  16
ATOM     16  C   UNL     1       4.919  -2.731  -0.971  0.00  0.00    +0.174 A 
ATOM     17  N   UNL     1       3.889  -3.216  -1.620  0.00  0.00    -0.111 NA
ATOM     18  N   UNL     1       3.567  -4.338  -1.074  0.00  0.00    -0.023 NA
ATOM     19  N   UNL     1       4.365  -4.581  -0.094  0.00  0.00    -0.043 NA
ATOM     20  N   UNL     1       5.216  -3.616  -0.002  0.00  0.00    -0.222 N 
BRANCH  20  21
ATOM     21  C   UNL     1       6.301  -3.504   0.977  0.00  0.00    +0.059 C 
ATOM     22  C   UNL     1       6.064  -2.279   1.862  0.00  0.00    +0.036 C 
ATOM     23  C   UNL     1       6.337  -4.763   1.846  0.00  0.00    +0.036 C 
ATOM     24  C   UNL     1       7.636  -3.353   0.244  0.00  0.00    +0.036 C 
ENDBRANCH  20  21
ENDBRANCH   1  16
BRANCH   1  25
ATOM     25  N   UNL     1       4.659  -0.344  -1.340  0.00  0.00    -0.282 NA
BRANCH  25  26
ATOM     26  C   UNL     1       3.982  -0.145  -0.052  0.00  0.00    +0.120 C 
BRANCH  26  27
ATOM     27  C   UNL     1       2.814   0.790  -0.236  0.00  0.00    -0.033 A 
ATOM     28  C   UNL     1       1.567   0.283  -0.551  0.00  0.00    +0.008 A 
ATOM     29  C   UNL     1       0.495   1.138  -0.720  0.00  0.00    +0.046 A 
ATOM     30  C   UNL     1       0.671   2.506  -0.574  0.00  0.00    +0.120 A 
ATOM     31  C   UNL     1       1.923   3.012  -0.259  0.00  0.00    +0.046 A 
ATOM     32  C   UNL     1       2.992   2.153  -0.090  0.00  0.00    +0.008 A 
BRANCH  30  33
ATOM     33  O   UNL     1      -0.381   3.349  -0.746  0.00  0.00    -0.495 OA
ATOM     34  C   UNL     1      -0.126   4.746  -0.580  0.00  0.00    +0.277 C 
ENDBRANCH  30  33
ENDBRANCH  26  27
ENDBRANCH  25  26
BRANCH  25  35
ATOM     35  C   UNL     1       5.296   0.899  -1.797  0.00  0.00    +0.117 C 
BRANCH  35  36
ATOM     36  C   UNL     1       6.444   1.260  -0.853  0.00  0.00    +0.132 C 
ATOM     37  C   UNL     1       7.234   2.455  -1.422  0.00  0.00    +0.035 C 
ATOM     38  C   UNL     1       7.138   3.534  -0.316  0.00  0.00    +0.031 C 
ATOM     39  C   UNL     1       6.800   2.686   0.936  0.00  0.00    +0.160 C 
ATOM     40  O   UNL     1       5.920   1.663   0.423  0.00  0.00    -0.375 OA
ENDBRANCH  35  36
ENDBRANCH  25  35
ENDBRANCH   1  25
TORSDOF 9
