REMARK  Name = ZINC07682432
REMARK  14 active torsions:
REMARK  status: ('A' for Active; 'I' for Inactive)
REMARK    1  A    between atoms: C_1  and  C_2
REMARK    2  A    between atoms: C_2  and  N_61
REMARK    3  A    between atoms: C_3  and  C_4
REMARK    4  A    between atoms: C_3  and  N_61
REMARK    5  A    between atoms: N_6  and  C_7
REMARK    6  A    between atoms: C_7  and  C_8
REMARK    7  A    between atoms: C_7  and  C_9
REMARK    8  A    between atoms: C_10  and  C_11
REMARK    9  A    between atoms: C_10  and  N_61
REMARK   10  A    between atoms: N_13  and  N_14
REMARK   11  A    between atoms: C_17  and  C_21
REMARK   12  A    between atoms: C_17  and  C_22
REMARK   13  A    between atoms: C_22  and  C_23
REMARK   14  A    between atoms: C_23  and  C_24
REMARK                            x       y       z     vdW  Elec       q    Type
REMARK                         _______ _______ _______ _____ _____    ______ ____
ROOT
ATOM      1  C   UNL     1       3.923   0.902  -1.007  0.00  0.00    +0.213 C 
ATOM      2  O   UNL     1       3.291   1.065  -2.029  0.00  0.00    -0.276 OA
ATOM      3  N   UNL     1       3.322   0.380   0.081  0.00  0.00    -0.225 N 
ATOM      4  H   UNL     1       3.828   0.250   0.898  0.00  0.00    +0.173 HD
ENDROOT
BRANCH   3   5
ATOM      5  N   UNL     1       1.968   0.026   0.031  0.00  0.00    -0.137 N 
ATOM      6  C   UNL     1       1.519  -1.242  -0.046  0.00  0.00    +0.263 C 
ATOM      7  O   UNL     1       2.186  -2.254  -0.085  0.00  0.00    -0.271 OA
ATOM      8  C   UNL     1       0.007  -1.141  -0.076  0.00  0.00    +0.112 C 
ATOM      9  N   UNL     1      -0.244   0.309  -0.006  0.00  0.00    -0.284 N 
ATOM     10  C   UNL     1       0.960   0.906   0.054  0.00  0.00    +0.326 C 
ATOM     11  O   UNL     1       1.115   2.110   0.120  0.00  0.00    -0.251 OA
ATOM     12  C   UNL     1      -0.608  -1.853   1.130  0.00  0.00    +0.041 C 
ATOM     13  H   UNL     1      -1.109   0.748  -0.006  0.00  0.00    +0.151 HD
BRANCH   8  14
ATOM     14  C   UNL     1      -0.546  -1.720  -1.380  0.00  0.00    +0.040 C 
BRANCH  14  15
ATOM     15  C   UNL     1      -2.038  -1.397  -1.490  0.00  0.00    +0.038 C 
BRANCH  15  16
ATOM     16  C   UNL     1      -2.582  -1.968  -2.774  0.00  0.00    -0.047 A 
ATOM     17  C   UNL     1      -2.574  -1.205  -3.927  0.00  0.00    +0.003 A 
ATOM     18  C   UNL     1      -3.069  -1.730  -5.106  0.00  0.00    +0.000 A 
ATOM     19  C   UNL     1      -3.581  -3.014  -5.130  0.00  0.00    +0.000 A 
ATOM     20  C   UNL     1      -3.594  -3.775  -3.975  0.00  0.00    +0.000 A 
ATOM     21  C   UNL     1      -3.094  -3.251  -2.798  0.00  0.00    +0.003 A 
ENDBRANCH  15  16
ENDBRANCH  14  15
ENDBRANCH   8  14
ENDBRANCH   3   5
BRANCH   1  22
ATOM     22  C   UNL     1       5.380   1.282  -0.954  0.00  0.00    +0.021 C 
BRANCH  22  23
ATOM     23  N   UNL     1       5.775   1.844  -2.263  0.00  0.00    +0.391 N 
ATOM     24  H   UNL     1       5.113   2.585  -2.521  0.00  0.00    -0.080 HD
BRANCH  23  26
ATOM     25  C   UNL     1       5.780   1.448  -4.676  0.00  0.00    -0.017 C 
ATOM     26  C   UNL     1       5.740   0.787  -3.296  0.00  0.00    -0.081 C 
ENDBRANCH  23  26
BRANCH  23  27
ATOM     27  C   UNL     1       7.132   2.422  -2.176  0.00  0.00    +0.019 C 
BRANCH  27  28
ATOM     28  C   UNL     1       7.044   3.760  -1.489  0.00  0.00    +0.197 C 
ATOM     29  O   UNL     1       5.961   4.220  -1.194  0.00  0.00    -0.278 OA
ATOM     30  N   UNL     1       8.168   4.445  -1.201  0.00  0.00    -0.315 N 
ATOM     31  H   UNL     1       9.034   4.077  -1.437  0.00  0.00    +0.149 HD
BRANCH  30  32
ATOM     32  C   UNL     1       8.083   5.746  -0.533  0.00  0.00    +0.067 C 
ATOM     33  C   UNL     1       7.998   5.537   0.980  0.00  0.00    +0.027 C 
ATOM     34  C   UNL     1       9.326   6.573  -0.865  0.00  0.00    +0.027 C 
ENDBRANCH  30  32
ENDBRANCH  27  28
ENDBRANCH  23  27
ENDBRANCH  22  23
ENDBRANCH   1  22
TORSDOF 10
