REMARK  Name = ZINC54621258
REMARK  8 active torsions:
REMARK  status: ('A' for Active; 'I' for Inactive)
REMARK    1  A    between atoms: C_1  and  C_2
REMARK    2  A    between atoms: C_8  and  C_13
REMARK    3  A    between atoms: C_9  and  O_12
REMARK    4  A    between atoms: C_13  and  C_15
REMARK    5  A    between atoms: C_13  and  N_20
REMARK    6  A    between atoms: N_20  and  C_21
REMARK    7  A    between atoms: C_24  and  S_27
REMARK    8  A    between atoms: S_27  and  N_30
REMARK                            x       y       z     vdW  Elec       q    Type
REMARK                         _______ _______ _______ _____ _____    ______ ____
ROOT
ATOM      1  C   UNL     1       0.086  -4.769   3.747  0.00  0.00    +0.171 C 
ENDROOT
BRANCH   1   9
ATOM      2  C   UNL     1       0.241   1.351  -0.232  0.00  0.00    +0.065 C 
ATOM      3  C   UNL     1       0.300  -0.154  -0.176  0.00  0.00    +0.039 A 
ATOM      4  C   UNL     1       0.456  -0.871  -1.361  0.00  0.00    +0.023 A 
ATOM      5  C   UNL     1       0.512  -2.236  -1.329  0.00  0.00    +0.012 A 
ATOM      6  C   UNL     1       0.407  -2.876  -0.080  0.00  0.00    +0.004 A 
ATOM      7  C   UNL     1       0.457  -4.275   0.032  0.00  0.00    +0.010 A 
ATOM      8  C   UNL     1       0.353  -4.859   1.257  0.00  0.00    +0.010 A 
ATOM      9  C   UNL     1       0.198  -4.088   2.407  0.00  0.00    +0.024 A 
ATOM     10  C   UNL     1       0.146  -2.725   2.338  0.00  0.00    +0.148 A 
ATOM     11  C   UNL     1       0.250  -2.085   1.085  0.00  0.00    +0.113 A 
ATOM     12  N   UNL     1       0.209  -0.754   0.986  0.00  0.00    -0.248 NA
BRANCH  10  13
ATOM     13  O   UNL     1      -0.006  -1.990   3.470  0.00  0.00    -0.504 OA
ATOM     14  H   UNL     1       0.828  -1.739   3.891  0.00  0.00    +0.292 HD
ENDBRANCH  10  13
ENDBRANCH   1   9
BRANCH   1  15
ATOM     15  C   UNL     1       1.453  -4.881   4.369  0.00  0.00    +0.129 A 
ATOM     16  C   UNL     1       1.952  -4.074   5.323  0.00  0.00    +0.047 A 
ATOM     17  C   UNL     1       3.256  -4.537   5.611  0.00  0.00    +0.041 A 
ATOM     18  C   UNL     1       3.477  -5.600   4.816  0.00  0.00    +0.195 A 
ATOM     19  O   UNL     1       2.379  -5.807   4.071  0.00  0.00    -0.466 OA
ENDBRANCH   1  15
BRANCH   1  20
ATOM     20  N   UNL     1      -0.481  -6.108   3.568  0.00  0.00    -0.330 N 
ATOM     21  H   UNL     1      -0.394  -6.562   2.715  0.00  0.00    +0.147 HD
BRANCH  20  22
ATOM     22  C   UNL     1      -1.146  -6.732   4.626  0.00  0.00    +0.028 A 
ATOM     23  C   UNL     1      -1.277  -6.081   5.846  0.00  0.00    +0.025 A 
ATOM     24  C   UNL     1      -1.936  -6.700   6.890  0.00  0.00    +0.030 A 
ATOM     25  C   UNL     1      -2.465  -7.967   6.722  0.00  0.00    +0.105 A 
ATOM     26  C   UNL     1      -2.337  -8.617   5.508  0.00  0.00    +0.030 A 
ATOM     27  C   UNL     1      -1.684  -8.002   4.458  0.00  0.00    +0.025 A 
BRANCH  25  28
ATOM     28  S   UNL     1      -3.304  -8.754   8.057  0.00  0.00    +0.056 S 
ATOM     29  O   UNL     1      -3.230 -10.152   7.815  0.00  0.00    -0.153 OA
ATOM     30  O   UNL     1      -2.813  -8.160   9.251  0.00  0.00    -0.153 OA
BRANCH  28  31
ATOM     31  N   UNL     1      -4.902  -8.337   7.943  0.00  0.00    -0.204 NA
ATOM     32  H   UNL     1      -5.586  -8.948   8.260  0.00  0.00    +0.144 HD
ATOM     33  H   UNL     1      -5.155  -7.483   7.560  0.00  0.00    +0.144 HD
ENDBRANCH  28  31
ENDBRANCH  25  28
ENDBRANCH  20  22
ENDBRANCH   1  20
TORSDOF 7
