REMARK  Name = ZINC35781291
REMARK  11 active torsions:
REMARK  status: ('A' for Active; 'I' for Inactive)
REMARK    1  A    between atoms: C_1  and  C_2
REMARK    2  A    between atoms: C_2  and  C_3
REMARK    3  A    between atoms: C_2  and  C_4
REMARK    4  A    between atoms: C_4  and  C_6
REMARK    5  A    between atoms: C_4  and  O_33
REMARK    6  A    between atoms: C_6  and  N_7
REMARK    7  A    between atoms: N_7  and  C_8
REMARK    8  A    between atoms: N_7  and  C_16
REMARK    9  A    between atoms: C_8  and  C_9
REMARK   10  A    between atoms: C_9  and  N_10
REMARK   11  A    between atoms: C_16  and  C_17
REMARK                            x       y       z     vdW  Elec       q    Type
REMARK                         _______ _______ _______ _____ _____    ______ ____
ROOT
ATOM      1  N   UNL     1      -2.812  -2.474  -0.140  0.00  0.00    +0.387 N 
ATOM      2  H   UNL     1      -3.291  -2.031   0.629  0.00  0.00    -0.081 HD
ENDROOT
BRANCH   1   3
ATOM      3  C   UNL     1      -1.383  -2.136  -0.085  0.00  0.00    -0.046 C 
BRANCH   3   4
ATOM      4  C   UNL     1      -0.631  -2.927  -1.158  0.00  0.00    +0.101 C 
BRANCH   4   6
ATOM      5  C   UNL     1       1.628  -3.537  -2.034  0.00  0.00    +0.010 C 
ATOM      6  C   UNL     1       0.876  -2.747  -0.962  0.00  0.00    +0.010 C 
ATOM      7  C   UNL     1       1.231  -1.263  -1.078  0.00  0.00    +0.010 C 
ENDBRANCH   4   6
BRANCH   4   8
ATOM      8  O   UNL     1      -1.004  -2.448  -2.452  0.00  0.00    -0.393 OA
ATOM      9  H   UNL     1      -0.807  -1.512  -2.596  0.00  0.00    +0.210 HD
ENDBRANCH   4   8
ENDBRANCH   3   4
ENDBRANCH   1   3
BRANCH   1  10
ATOM     10  C   UNL     1      -3.378  -1.998  -1.409  0.00  0.00    -0.063 C 
BRANCH  10  11
ATOM     11  C   UNL     1      -3.249  -0.476  -1.487  0.00  0.00    +0.066 C 
BRANCH  11  12
ATOM     12  N   UNL     1      -3.935   0.013  -2.691  0.00  0.00    -0.300 NA
ATOM     13  C   UNL     1      -3.256  -0.452  -3.909  0.00  0.00    +0.112 C 
ATOM     14  C   UNL     1      -4.036   0.029  -5.136  0.00  0.00    +0.175 C 
ATOM     15  O   UNL     1      -4.154   1.453  -5.092  0.00  0.00    -0.377 OA
ATOM     16  C   UNL     1      -4.811   1.940  -3.919  0.00  0.00    +0.175 C 
ATOM     17  C   UNL     1      -4.039   1.479  -2.680  0.00  0.00    +0.112 C 
ENDBRANCH  11  12
ENDBRANCH  10  11
ENDBRANCH   1  10
BRANCH   1  18
ATOM     18  C   UNL     1      -2.975  -3.930  -0.046  0.00  0.00    -0.003 C 
BRANCH  18  19
ATOM     19  C   UNL     1      -2.521  -4.400   1.312  0.00  0.00    +0.094 A 
ATOM     20  N   UNL     1      -2.580  -5.722   1.615  0.00  0.00    -0.312 N 
ATOM     21  H   UNL     1      -2.914  -6.347   0.952  0.00  0.00    +0.170 HD
ATOM     22  C   UNL     1      -2.186  -6.184   2.816  0.00  0.00    +0.260 A 
ATOM     23  O   UNL     1      -2.245  -7.375   3.072  0.00  0.00    -0.267 OA
ATOM     24  C   UNL     1      -1.694  -5.253   3.788  0.00  0.00    +0.075 A 
ATOM     25  C   UNL     1      -1.215  -5.529   5.145  0.00  0.00    -0.023 A 
ATOM     26  C   UNL     1      -0.805  -4.468   5.871  0.00  0.00    -0.004 A 
ATOM     27  S   UNL     1      -1.018  -3.067   4.803  0.00  0.00    -0.073 S 
ATOM     28  C   UNL     1      -1.669  -3.910   3.384  0.00  0.00    +0.116 A 
ATOM     29  N   UNL     1      -2.072  -3.528   2.175  0.00  0.00    -0.229 NA
ATOM     30  C   UNL     1      -0.292  -4.460   7.277  0.00  0.00    +0.043 C 
ATOM     31  C   UNL     1       0.789  -5.538   7.428  0.00  0.00    +0.005 C 
ATOM     32  C   UNL     1       0.113  -6.842   7.840  0.00  0.00    +0.001 C 
ATOM     33  C   UNL     1      -1.277  -6.932   7.212  0.00  0.00    +0.005 C 
ATOM     34  C   UNL     1      -1.177  -6.953   5.692  0.00  0.00    +0.037 C 
ENDBRANCH  18  19
ENDBRANCH   1  18
TORSDOF 9
