REMARK  Name = ZINC63067988
REMARK  7 active torsions:
REMARK  status: ('A' for Active; 'I' for Inactive)
REMARK    1  A    between atoms: C_1  and  C_2
REMARK    2  A    between atoms: C_2  and  O_3
REMARK    3  A    between atoms: O_3  and  C_4
REMARK    4  A    between atoms: C_6  and  C_11
REMARK    5  A    between atoms: C_9  and  O_10
REMARK    6  A    between atoms: C_28  and  C_30
REMARK    7  A    between atoms: C_28  and  C_31
REMARK                            x       y       z     vdW  Elec       q    Type
REMARK                         _______ _______ _______ _____ _____    ______ ____
ROOT
ATOM      1  C   UNL     1      -0.229  -4.969   0.477  0.00  0.00    +0.073 C 
ATOM      2  C   UNL     1       0.889  -5.833   1.065  0.00  0.00    +0.148 C 
ATOM      3  C   UNL     1       1.242  -6.879   0.035  0.00  0.00    +0.106 C 
ATOM      4  N   UNL     1       2.445  -7.017  -0.429  0.00  0.00    -0.151 NA
ATOM      5  C   UNL     1       3.461  -6.228  -0.049  0.00  0.00    +0.331 C 
ATOM      6  O   UNL     1       4.571  -6.429  -0.506  0.00  0.00    -0.250 OA
ATOM      7  N   UNL     1       3.282  -5.223   0.822  0.00  0.00    -0.238 N 
ATOM      8  C   UNL     1       2.082  -4.981   1.386  0.00  0.00    +0.231 C 
ATOM      9  O   UNL     1       1.960  -4.059   2.164  0.00  0.00    -0.275 OA
ATOM     10  N   UNL     1       0.217  -7.673  -0.400  0.00  0.00    -0.307 N 
ATOM     11  C   UNL     1      -1.024  -7.099  -0.570  0.00  0.00    +0.016 C 
ATOM     12  C   UNL     1      -1.278  -5.842  -0.171  0.00  0.00    +0.021 C 
ATOM     13  C   UNL     1      -2.559  -5.279  -0.350  0.00  0.00    +0.162 C 
ATOM     14  O   UNL     1      -2.772  -4.149   0.043  0.00  0.00    -0.292 OA
ATOM     15  C   UNL     1      -3.666  -6.047  -1.016  0.00  0.00    +0.086 C 
ATOM     16  C   UNL     1      -3.052  -7.053  -1.996  0.00  0.00    -0.023 C 
ATOM     17  C   UNL     1      -2.095  -7.943  -1.220  0.00  0.00    +0.058 C 
ATOM     18  C   UNL     1      -4.158  -7.907  -2.619  0.00  0.00    +0.011 C 
ATOM     19  C   UNL     1      -2.294  -6.307  -3.095  0.00  0.00    +0.011 C 
ATOM     20  H   UNL     1       4.035  -4.658   1.055  0.00  0.00    +0.159 HD
ATOM     21  H   UNL     1       0.360  -8.614  -0.584  0.00  0.00    +0.153 HD
ENDROOT
BRANCH   1  24
ATOM     22  C   UNL     1       0.777  -1.811  -1.336  0.00  0.00    +0.162 A 
ATOM     23  C   UNL     1       0.243  -2.669  -0.388  0.00  0.00    +0.053 A 
ATOM     24  C   UNL     1       0.352  -4.037  -0.555  0.00  0.00    -0.035 A 
ATOM     25  C   UNL     1       0.992  -4.552  -1.667  0.00  0.00    +0.008 A 
ATOM     26  C   UNL     1       1.526  -3.702  -2.616  0.00  0.00    +0.049 A 
ATOM     27  C   UNL     1       1.416  -2.330  -2.458  0.00  0.00    +0.158 A 
BRANCH  27  28
ATOM     28  O   UNL     1       1.936  -1.492  -3.394  0.00  0.00    -0.503 OA
ATOM     29  H   UNL     1       2.856  -1.241  -3.231  0.00  0.00    +0.292 HD
ENDBRANCH  27  28
BRANCH  22  30
ATOM     30  O   UNL     1       0.671  -0.465  -1.174  0.00  0.00    -0.489 OA
BRANCH  30  32
ATOM     31  C   UNL     1      -0.019   1.526   0.010  0.00  0.00    +0.048 C 
ATOM     32  C   UNL     1       0.002  -0.004   0.002  0.00  0.00    +0.226 C 
ENDBRANCH  30  32
ENDBRANCH  22  30
ENDBRANCH   1  24
TORSDOF 4
