REMARK  Name = ZINC36365301
REMARK  7 active torsions:
REMARK  status: ('A' for Active; 'I' for Inactive)
REMARK    1  A    between atoms: C_1  and  S_2
REMARK    2  A    between atoms: S_2  and  C_3
REMARK    3  A    between atoms: C_7  and  N_9
REMARK    4  A    between atoms: C_10  and  C_12
REMARK    5  A    between atoms: C_12  and  C_13
REMARK    6  A    between atoms: N_20  and  S_21
REMARK    7  A    between atoms: S_21  and  C_24
REMARK                            x       y       z     vdW  Elec       q    Type
REMARK                         _______ _______ _______ _____ _____    ______ ____
ROOT
ATOM      1  C   UNL     1       3.333  -5.064  -6.399  0.00  0.00    +0.174 C 
ATOM      2  C   UNL     1       3.316  -6.522  -6.768  0.00  0.00    +0.232 C 
ATOM      3  O   UNL     1       2.247  -7.093  -6.818  0.00  0.00    -0.274 OA
ATOM      4  N   UNL     1       4.421  -7.215  -7.044  0.00  0.00    -0.313 N 
ATOM      5  C   UNL     1       5.775  -6.690  -6.938  0.00  0.00    +0.121 C 
ATOM      6  C   UNL     1       5.771  -5.161  -7.006  0.00  0.00    +0.129 C 
ATOM      7  N   UNL     1       4.717  -4.662  -6.105  0.00  0.00    -0.163 NA
ATOM      8  H   UNL     1       4.316  -8.135  -7.336  0.00  0.00    +0.149 HD
ENDROOT
BRANCH   7   9
ATOM      9  S   UNL     1       5.076  -3.690  -4.813  0.00  0.00    +0.062 S 
ATOM     10  O   UNL     1       5.519  -2.450  -5.348  0.00  0.00    -0.153 OA
ATOM     11  O   UNL     1       3.977  -3.783  -3.917  0.00  0.00    -0.153 OA
BRANCH   9  12
ATOM     12  C   UNL     1       6.460  -4.407  -3.991  0.00  0.00    +0.106 A 
ATOM     13  C   UNL     1       6.266  -5.408  -3.058  0.00  0.00    +0.028 A 
ATOM     14  C   UNL     1       7.352  -5.970  -2.412  0.00  0.00    +0.002 A 
ATOM     15  C   UNL     1       8.630  -5.532  -2.700  0.00  0.00    +0.000 A 
ATOM     16  C   UNL     1       8.824  -4.531  -3.634  0.00  0.00    +0.002 A 
ATOM     17  C   UNL     1       7.739  -3.971  -4.283  0.00  0.00    +0.028 A 
ENDBRANCH   9  12
ENDBRANCH   7   9
BRANCH   1  18
ATOM     18  C   UNL     1       2.461  -4.838  -5.163  0.00  0.00    +0.126 C 
BRANCH  18  20
ATOM     19  N   UNL     1       1.486  -2.917  -3.946  0.00  0.00    -0.285 N 
ATOM     20  C   UNL     1       2.153  -3.369  -5.027  0.00  0.00    +0.219 C 
ATOM     21  O   UNL     1       2.505  -2.593  -5.890  0.00  0.00    -0.275 OA
ATOM     22  H   UNL     1       1.279  -3.522  -3.216  0.00  0.00    +0.155 HD
BRANCH  19  27
ATOM     23  C   UNL     1       0.489   0.476  -4.970  0.00  0.00    +0.009 A 
ATOM     24  C   UNL     1       0.312   1.080  -3.730  0.00  0.00    +0.015 A 
ATOM     25  C   UNL     1       0.525   0.358  -2.572  0.00  0.00    +0.003 A 
ATOM     26  C   UNL     1       0.914  -0.967  -2.642  0.00  0.00    +0.023 A 
ATOM     27  C   UNL     1       1.092  -1.576  -3.877  0.00  0.00    +0.034 A 
ATOM     28  C   UNL     1       0.874  -0.856  -5.043  0.00  0.00    +0.038 A 
BRANCH  23  30
ATOM     29  C   UNL     1      -0.258   3.045  -5.855  0.00  0.00    +0.090 C 
ATOM     30  S   UNL     1       0.217   1.398  -6.447  0.00  0.00    -0.129 S 
ENDBRANCH  23  30
ENDBRANCH  19  27
ENDBRANCH  18  20
ENDBRANCH   1  18
TORSDOF 6
