REMARK  Name = ZINC39639472
REMARK  8 active torsions:
REMARK  status: ('A' for Active; 'I' for Inactive)
REMARK    1  A    between atoms: C_1  and  C_2
REMARK    2  A    between atoms: C_2  and  C_3
REMARK    3  A    between atoms: C_3  and  C_4
REMARK    4  A    between atoms: C_4  and  C_6
REMARK    5  A    between atoms: C_4  and  C_7
REMARK    6  A    between atoms: C_11  and  C_20
REMARK    7  A    between atoms: N_22  and  C_23
REMARK    8  A    between atoms: C_23  and  C_24
REMARK                            x       y       z     vdW  Elec       q    Type
REMARK                         _______ _______ _______ _____ _____    ______ ____
ROOT
ATOM      1  C   UNL     1       1.315  -2.550  -2.248  0.00  0.00    +0.218 C 
ATOM      2  O   UNL     1       1.689  -1.681  -3.007  0.00  0.00    -0.275 OA
ATOM      3  N   UNL     1       1.443  -3.847  -2.594  0.00  0.00    -0.300 N 
ATOM      4  C   UNL     1       1.043  -5.039  -1.810  0.00  0.00    +0.121 C 
ATOM      5  C   UNL     1       0.462  -6.017  -2.857  0.00  0.00    +0.100 C 
ATOM      6  C   UNL     1       1.106  -5.595  -4.188  0.00  0.00    -0.004 C 
ATOM      7  C   UNL     1       2.010  -4.402  -3.846  0.00  0.00    +0.115 C 
ATOM      8  C   UNL     1       0.031  -5.166  -5.182  0.00  0.00    -0.010 C 
ATOM      9  C   UNL     1       0.691  -4.806  -6.516  0.00  0.00    -0.082 C 
ATOM     10  N   UNL     1       1.426  -5.968  -7.030  0.00  0.00    +0.379 N 
ATOM     11  C   UNL     1       2.517  -6.316  -6.112  0.00  0.00    -0.082 C 
ATOM     12  C   UNL     1       1.934  -6.740  -4.761  0.00  0.00    -0.010 C 
ATOM     13  H   UNL     1       0.797  -6.752  -7.115  0.00  0.00    -0.086 HD
ATOM     14  H   UNL     1       1.809  -5.747  -7.937  0.00  0.00    -0.086 HD
ENDROOT
BRANCH   5  15
ATOM     15  C   UNL     1      -1.037  -5.878  -2.929  0.00  0.00    +0.218 C 
ATOM     16  O   UNL     1      -1.560  -4.810  -2.690  0.00  0.00    -0.275 OA
ATOM     17  N   UNL     1      -1.797  -6.941  -3.259  0.00  0.00    -0.311 N 
ATOM     18  H   UNL     1      -1.379  -7.795  -3.450  0.00  0.00    +0.149 HD
BRANCH  17  19
ATOM     19  C   UNL     1      -3.254  -6.806  -3.330  0.00  0.00    +0.142 C 
BRANCH  19  20
ATOM     20  C   UNL     1      -3.863  -8.130  -3.716  0.00  0.00    +0.005 A 
ATOM     21  C   UNL     1      -4.244  -8.359  -5.025  0.00  0.00    +0.009 A 
ATOM     22  C   UNL     1      -4.802  -9.572  -5.381  0.00  0.00    +0.016 A 
ATOM     23  C   UNL     1      -4.980 -10.559  -4.427  0.00  0.00    +0.021 A 
ATOM     24  C   UNL     1      -4.600 -10.331  -3.117  0.00  0.00    +0.054 A 
ATOM     25  C   UNL     1      -4.035  -9.118  -2.762  0.00  0.00    +0.129 A 
ATOM     26  F   UNL     1      -3.658  -8.896  -1.484  0.00  0.00    -0.205 F 
ATOM     27 BR   UNL     1      -5.744 -12.218  -4.915  0.00  0.00    -0.050 Br
ENDBRANCH  19  20
ENDBRANCH  17  19
ENDBRANCH   5  15
BRANCH   1  28
ATOM     28  C   UNL     1       0.708  -2.181  -0.920  0.00  0.00    +0.072 C 
ATOM     29  C   UNL     1       1.547  -2.783   0.209  0.00  0.00    +0.017 C 
BRANCH  28  30
ATOM     30  C   UNL     1       0.680  -0.658  -0.778  0.00  0.00    +0.012 C 
BRANCH  30  32
ATOM     31  C   UNL     1      -0.076   1.244   0.656  0.00  0.00    +0.004 C 
ATOM     32  C   UNL     1      -0.048  -0.279   0.514  0.00  0.00    -0.003 C 
ENDBRANCH  30  32
ENDBRANCH  28  30
ENDBRANCH   1  28
TORSDOF 6
