REMARK  Name = ZINC11690488
REMARK  10 active torsions:
REMARK  status: ('A' for Active; 'I' for Inactive)
REMARK    1  A    between atoms: C_1  and  O_2
REMARK    2  A    between atoms: O_2  and  C_3
REMARK    3  A    between atoms: C_5  and  C_33
REMARK    4  A    between atoms: C_6  and  N_11
REMARK    5  A    between atoms: C_8  and  O_9
REMARK    6  A    between atoms: O_9  and  C_10
REMARK    7  A    between atoms: C_12  and  C_14
REMARK    8  A    between atoms: C_21  and  C_26
REMARK    9  A    between atoms: C_33  and  O_35
REMARK   10  A    between atoms: O_35  and  C_36
REMARK                            x       y       z     vdW  Elec       q    Type
REMARK                         _______ _______ _______ _____ _____    ______ ____
ROOT
ATOM      1  N   UNL     1      -2.472   1.414   0.007  0.00  0.00    -0.281 N 
ATOM      2  C   UNL     1      -1.313   2.101   0.003  0.00  0.00    +0.248 C 
ATOM      3  O   UNL     1      -1.326   3.316   0.025  0.00  0.00    -0.270 OA
ATOM      4  H   UNL     1      -2.463   0.447  -0.075  0.00  0.00    +0.155 HD
ENDROOT
BRANCH   2   5
ATOM      5  C   UNL     1      -0.023   1.376  -0.027  0.00  0.00    +0.037 A 
ATOM      6  C   UNL     1      -0.009  -0.020  -0.052  0.00  0.00    +0.014 A 
ATOM      7  C   UNL     1       1.193  -0.694  -0.085  0.00  0.00    +0.016 A 
ATOM      8  C   UNL     1       2.390   0.020  -0.093  0.00  0.00    +0.062 A 
ATOM      9  C   UNL     1       2.380   1.415  -0.071  0.00  0.00    -0.029 A 
ATOM     10  C   UNL     1       1.176   2.089  -0.037  0.00  0.00    +0.017 A 
ATOM     11  C   UNL     1       3.671   2.191  -0.087  0.00  0.00    +0.085 C 
ATOM     12  C   UNL     1       4.825   1.313   0.397  0.00  0.00    +0.211 C 
ATOM     13  O   UNL     1       4.803   0.048  -0.326  0.00  0.00    -0.453 OA
ATOM     14  C   UNL     1       3.688  -0.698  -0.120  0.00  0.00    +0.340 C 
ATOM     15  O   UNL     1       3.750  -1.901   0.036  0.00  0.00    -0.245 OA
BRANCH  12  16
ATOM     16  C   UNL     1       6.133   2.016   0.143  0.00  0.00    -0.007 A 
ATOM     17  C   UNL     1       6.697   1.990  -1.119  0.00  0.00    +0.008 A 
ATOM     18  C   UNL     1       7.895   2.639  -1.355  0.00  0.00    +0.020 A 
ATOM     19  C   UNL     1       8.534   3.305  -0.324  0.00  0.00    +0.041 A 
ATOM     20  C   UNL     1       7.973   3.325   0.940  0.00  0.00    +0.020 A 
ATOM     21  C   UNL     1       6.772   2.680   1.173  0.00  0.00    +0.008 A 
ATOM     22 CL   UNL     1      10.042   4.114  -0.617  0.00  0.00    -0.084 Cl
ENDBRANCH  12  16
ENDBRANCH   2   5
BRANCH   1  26
ATOM     23  C   UNL     1      -6.106   3.441   0.376  0.00  0.00    +0.162 A 
ATOM     24  C   UNL     1      -5.957   2.203   0.965  0.00  0.00    +0.066 A 
ATOM     25  C   UNL     1      -4.744   1.515   0.847  0.00  0.00    +0.084 A 
ATOM     26  C   UNL     1      -3.683   2.092   0.129  0.00  0.00    +0.051 A 
ATOM     27  C   UNL     1      -3.843   3.339  -0.454  0.00  0.00    +0.073 A 
ATOM     28  C   UNL     1      -5.050   4.011  -0.338  0.00  0.00    +0.163 A 
BRANCH  23  30
ATOM     29  C   UNL     1      -8.324   3.469   1.233  0.00  0.00    +0.277 C 
ATOM     30  O   UNL     1      -7.285   4.109   0.490  0.00  0.00    -0.491 OA
ENDBRANCH  23  30
BRANCH  28  31
ATOM     31  O   UNL     1      -5.203   5.230  -0.915  0.00  0.00    -0.491 OA
ATOM     32  C   UNL     1      -4.083   5.755  -1.630  0.00  0.00    +0.277 C 
ENDBRANCH  28  31
BRANCH  25  33
ATOM     33  C   UNL     1      -4.580   0.194   1.474  0.00  0.00    +0.341 C 
ATOM     34  O   UNL     1      -3.496  -0.357   1.455  0.00  0.00    -0.245 OA
BRANCH  33  35
ATOM     35  O   UNL     1      -5.630  -0.405   2.068  0.00  0.00    -0.464 OA
ATOM     36  C   UNL     1      -5.395  -1.707   2.666  0.00  0.00    +0.280 C 
ENDBRANCH  33  35
ENDBRANCH  25  33
ENDBRANCH   1  26
TORSDOF 7
