REMARK  Name = ZINC09031870
REMARK  9 active torsions:
REMARK  status: ('A' for Active; 'I' for Inactive)
REMARK    1  A    between atoms: C_1  and  C_2
REMARK    2  A    between atoms: C_2  and  C_3
REMARK    3  A    between atoms: C_3  and  O_4
REMARK    4  A    between atoms: O_4  and  C_5
REMARK    5  A    between atoms: C_8  and  N_11
REMARK    6  A    between atoms: C_15  and  S_19
REMARK    7  A    between atoms: S_19  and  C_20
REMARK    8  A    between atoms: C_23  and  C_34
REMARK    9  A    between atoms: C_26  and  C_28
REMARK                            x       y       z     vdW  Elec       q    Type
REMARK                         _______ _______ _______ _____ _____    ______ ____
ROOT
ATOM      1  C   UNL     1       2.999  -8.645  -7.163  0.00  0.00    +0.149 C 
ATOM      2  N   UNL     1       3.663  -8.795  -6.050  0.00  0.00    -0.380 N 
ATOM      3  N   UNL     1       2.286  -9.700  -7.687  0.00  0.00    -0.195 N 
ATOM      4  C   UNL     1       2.184 -11.043  -7.094  0.00  0.00    +0.136 C 
ATOM      5  C   UNL     1       1.280 -11.807  -8.081  0.00  0.00    +0.087 C 
ATOM      6  C   UNL     1       0.963 -10.785  -9.150  0.00  0.00    +0.069 C 
ATOM      7  N   UNL     1       1.539  -9.669  -8.863  0.00  0.00    -0.182 NA
ATOM      8  H   UNL     1       3.655  -9.650  -5.592  0.00  0.00    +0.158 HD
ATOM      9  H   UNL     1       4.165  -8.052  -5.681  0.00  0.00    +0.158 HD
ENDROOT
BRANCH   6  10
ATOM     10  C   UNL     1       0.119 -11.027 -10.335  0.00  0.00    -0.002 A 
ATOM     11  C   UNL     1      -0.465 -12.280 -10.537  0.00  0.00    +0.010 A 
ATOM     12  C   UNL     1      -1.253 -12.498 -11.647  0.00  0.00    +0.001 A 
ATOM     13  C   UNL     1      -1.465 -11.481 -12.561  0.00  0.00    +0.000 A 
ATOM     14  C   UNL     1      -0.889 -10.238 -12.367  0.00  0.00    +0.001 A 
ATOM     15  C   UNL     1      -0.103 -10.003 -11.258  0.00  0.00    +0.010 A 
ENDBRANCH   6  10
BRANCH   4  16
ATOM     16  C   UNL     1       3.543 -11.689  -7.006  0.00  0.00    -0.025 A 
ATOM     17  C   UNL     1       4.460 -11.511  -8.025  0.00  0.00    +0.005 A 
ATOM     18  C   UNL     1       5.706 -12.103  -7.945  0.00  0.00    +0.000 A 
ATOM     19  C   UNL     1       6.036 -12.873  -6.845  0.00  0.00    +0.000 A 
ATOM     20  C   UNL     1       5.120 -13.049  -5.825  0.00  0.00    +0.000 A 
ATOM     21  C   UNL     1       3.875 -12.454  -5.903  0.00  0.00    +0.005 A 
ENDBRANCH   4  16
BRANCH   1  22
ATOM     22  S   UNL     1       3.014  -7.092  -7.995  0.00  0.00    -0.078 S 
BRANCH  22  27
ATOM     23  N   UNL     1       3.196  -4.381  -5.569  0.00  0.00    -0.209 N 
ATOM     24  C   UNL     1       3.678  -3.697  -6.614  0.00  0.00    +0.228 C 
ATOM     25  O   UNL     1       3.639  -2.493  -6.744  0.00  0.00    -0.275 OA
ATOM     26  C   UNL     1       4.281  -4.667  -7.608  0.00  0.00    +0.120 C 
ATOM     27  C   UNL     1       4.061  -6.043  -6.949  0.00  0.00    +0.149 C 
ATOM     28  C   UNL     1       3.362  -5.707  -5.649  0.00  0.00    +0.240 C 
ATOM     29  O   UNL     1       3.006  -6.511  -4.815  0.00  0.00    -0.274 OA
BRANCH  23  33
ATOM     30  C   UNL     1       1.343  -2.529  -2.322  0.00  0.00    +0.121 A 
ATOM     31  C   UNL     1       2.567  -3.159  -2.155  0.00  0.00    +0.047 A 
ATOM     32  C   UNL     1       3.181  -3.772  -3.230  0.00  0.00    +0.027 A 
ATOM     33  C   UNL     1       2.572  -3.758  -4.477  0.00  0.00    +0.044 A 
ATOM     34  C   UNL     1       1.347  -3.127  -4.644  0.00  0.00    +0.027 A 
ATOM     35  C   UNL     1       0.732  -2.519  -3.568  0.00  0.00    +0.047 A 
BRANCH  30  36
ATOM     36  O   UNL     1       0.739  -1.926  -1.264  0.00  0.00    -0.492 OA
BRANCH  36  37
ATOM     37  C   UNL     1       1.425  -1.974  -0.012  0.00  0.00    +0.229 C 
BRANCH  37  39
ATOM     38  C   UNL     1       1.332  -1.300   2.392  0.00  0.00    +0.007 C 
ATOM     39  C   UNL     1       0.598  -1.248   1.051  0.00  0.00    +0.038 C 
ENDBRANCH  37  39
ENDBRANCH  36  37
ENDBRANCH  30  36
ENDBRANCH  23  33
ENDBRANCH  22  27
ENDBRANCH   1  22
TORSDOF 8
