REMARK  Name = ZINC40383878
REMARK  6 active torsions:
REMARK  status: ('A' for Active; 'I' for Inactive)
REMARK    1  A    between atoms: N_8  and  C_20
REMARK    2  A    between atoms: C_9  and  C_11
REMARK    3  A    between atoms: C_14  and  N_17
REMARK    4  A    between atoms: C_20  and  C_21
REMARK    5  A    between atoms: C_24  and  C_26
REMARK    6  A    between atoms: N_28  and  C_29
REMARK                            x       y       z     vdW  Elec       q    Type
REMARK                         _______ _______ _______ _____ _____    ______ ____
ROOT
ATOM      1  C   UNL     1      -0.016   1.346   0.009  0.00  0.00    +0.019 A 
ATOM      2  C   UNL     1       1.324   1.789  -0.001  0.00  0.00    +0.024 A 
ATOM      3  C   UNL     1       2.104   0.698  -0.015  0.00  0.00    +0.041 A 
ATOM      4  N   UNL     1       1.297  -0.410  -0.011  0.00  0.00    -0.348 N 
ATOM      5  C   UNL     1       0.002  -0.004   0.002  0.00  0.00    +0.086 A 
ATOM      6  C   UNL     1       1.815  -1.783  -0.018  0.00  0.00    +0.137 C 
ATOM      7  C   UNL     1       3.294  -1.740   0.385  0.00  0.00    +0.107 C 
ATOM      8  N   UNL     1       4.001  -0.737  -0.423  0.00  0.00    -0.281 NA
ATOM      9  C   UNL     1       3.612   0.630  -0.034  0.00  0.00    +0.134 C 
ENDROOT
BRANCH   9  10
ATOM     10  C   UNL     1       4.154   1.618  -1.034  0.00  0.00    -0.024 A 
ATOM     11  C   UNL     1       4.156   1.307  -2.381  0.00  0.00    +0.008 A 
ATOM     12  C   UNL     1       4.654   2.213  -3.299  0.00  0.00    +0.033 A 
ATOM     13  C   UNL     1       5.149   3.431  -2.869  0.00  0.00    +0.126 A 
ATOM     14  C   UNL     1       5.146   3.741  -1.522  0.00  0.00    +0.033 A 
ATOM     15  C   UNL     1       4.644   2.837  -0.605  0.00  0.00    +0.008 A 
BRANCH  13  16
ATOM     16  N   UNL     1       5.683   4.401  -3.852  0.00  0.00    +0.056 N 
ATOM     17  O   UNL     1       5.685   4.129  -5.029  0.00  0.00    -0.126 OA
ATOM     18  O   UNL     1       6.115   5.465  -3.476  0.00  0.00    -0.126 OA
ENDBRANCH  13  16
ENDBRANCH   9  10
BRANCH   8  19
ATOM     19  C   UNL     1       5.456  -0.917  -0.330  0.00  0.00    +0.159 C 
BRANCH  19  20
ATOM     20  C   UNL     1       5.842  -2.227  -0.967  0.00  0.00    +0.120 A 
ATOM     21  C   UNL     1       6.173  -2.404  -2.265  0.00  0.00    +0.047 A 
ATOM     22  C   UNL     1       6.462  -3.767  -2.435  0.00  0.00    +0.055 A 
ATOM     23  C   UNL     1       6.291  -4.360  -1.217  0.00  0.00    +0.189 A 
ATOM     24  O   UNL     1       5.919  -3.407  -0.338  0.00  0.00    -0.454 OA
BRANCH  23  25
ATOM     25  C   UNL     1       6.482  -5.783  -0.917  0.00  0.00    +0.280 C 
ATOM     26  O   UNL     1       6.825  -6.550  -1.798  0.00  0.00    -0.267 OA
ATOM     27  N   UNL     1       6.279  -6.241   0.334  0.00  0.00    -0.306 N 
ATOM     28  H   UNL     1       6.006  -5.629   1.036  0.00  0.00    +0.149 HD
BRANCH  27  29
ATOM     29  C   UNL     1       6.470  -7.662   0.634  0.00  0.00    +0.073 C 
ATOM     30  C   UNL     1       5.189  -8.430   0.302  0.00  0.00    +0.022 C 
ATOM     31  C   UNL     1       5.388  -9.914   0.615  0.00  0.00    +0.002 C 
ATOM     32  C   UNL     1       5.713 -10.083   2.101  0.00  0.00    +0.000 C 
ATOM     33  C   UNL     1       6.994  -9.315   2.433  0.00  0.00    +0.002 C 
ATOM     34  C   UNL     1       6.795  -7.830   2.119  0.00  0.00    +0.022 C 
ENDBRANCH  27  29
ENDBRANCH  23  25
ENDBRANCH  19  20
ENDBRANCH   8  19
TORSDOF 6
