REMARK  Name = ZINC22616770
REMARK  10 active torsions:
REMARK  status: ('A' for Active; 'I' for Inactive)
REMARK    1  A    between atoms: C_1  and  C_2
REMARK    2  A    between atoms: C_3  and  C_31
REMARK    3  A    between atoms: C_11  and  C_13
REMARK    4  A    between atoms: C_13  and  C_15
REMARK    5  A    between atoms: C_13  and  S_16
REMARK    6  A    between atoms: S_16  and  C_17
REMARK    7  A    between atoms: C_20  and  C_23
REMARK    8  A    between atoms: N_21  and  N_22
REMARK    9  A    between atoms: C_28  and  O_29
REMARK   10  A    between atoms: O_29  and  C_30
REMARK                            x       y       z     vdW  Elec       q    Type
REMARK                         _______ _______ _______ _____ _____    ______ ____
ROOT
ATOM      1  S   UNL     1      -1.025  -4.817   4.206  0.00  0.00    -0.074 S 
ENDROOT
BRANCH   1   2
ATOM      2  C   UNL     1      -0.935  -5.809   5.660  0.00  0.00    +0.209 A 
ATOM      3  N   UNL     1      -0.237  -5.545   6.741  0.00  0.00    -0.121 NA
ATOM      4  N   UNL     1      -0.399  -6.478   7.609  0.00  0.00    -0.127 NA
ATOM      5  C   UNL     1      -1.210  -7.396   7.136  0.00  0.00    +0.185 A 
ATOM      6  N   UNL     1      -1.583  -6.992   5.874  0.00  0.00    -0.224 N 
BRANCH   5   7
ATOM      7  C   UNL     1      -1.644  -8.627   7.829  0.00  0.00    +0.062 A 
ATOM      8  C   UNL     1      -1.616  -9.853   7.164  0.00  0.00    +0.015 A 
ATOM      9  C   UNL     1      -2.022 -10.999   7.816  0.00  0.00    +0.001 A 
ATOM     10  C   UNL     1      -2.459 -10.937   9.128  0.00  0.00    +0.004 A 
ATOM     11  C   UNL     1      -2.492  -9.727   9.797  0.00  0.00    +0.046 A 
ATOM     12  C   UNL     1      -2.081  -8.569   9.158  0.00  0.00    +0.131 A 
BRANCH  12  13
ATOM     13  O   UNL     1      -2.107  -7.381   9.816  0.00  0.00    -0.494 OA
ATOM     14  C   UNL     1      -2.564  -7.400  11.170  0.00  0.00    +0.277 C 
ENDBRANCH  12  13
ENDBRANCH   5   7
BRANCH   6  15
ATOM     15  N   UNL     1      -2.423  -7.642   5.015  0.00  0.00    -0.295 N 
ATOM     16  H   UNL     1      -1.926  -8.341   4.483  0.00  0.00    +0.163 HD
ATOM     17  H   UNL     1      -3.202  -8.050   5.510  0.00  0.00    +0.163 HD
ENDBRANCH   6  15
ENDBRANCH   1   2
BRANCH   1  18
ATOM     18  C   UNL     1       0.055  -3.406   4.570  0.00  0.00    +0.117 C 
ATOM     19  C   UNL     1       1.498  -3.892   4.716  0.00  0.00    +0.027 C 
BRANCH  18  30
ATOM     20  C   UNL     1      -0.212   1.707   0.242  0.00  0.00    +0.045 C 
ATOM     21  C   UNL     1      -0.277   0.203   0.178  0.00  0.00    -0.026 A 
ATOM     22  C   UNL     1      -0.421  -0.422  -1.001  0.00  0.00    -0.008 A 
ATOM     23  S   UNL     1      -0.441  -2.148  -0.554  0.00  0.00    -0.073 S 
ATOM     24  C   UNL     1      -0.255  -1.979   1.202  0.00  0.00    +0.116 A 
ATOM     25  C   UNL     1      -0.177  -0.588   1.391  0.00  0.00    +0.075 A 
ATOM     26  C   UNL     1      -0.015  -0.155   2.748  0.00  0.00    +0.260 A 
ATOM     27  O   UNL     1       0.058   1.032   3.014  0.00  0.00    -0.267 OA
ATOM     28  N   UNL     1       0.054  -1.081   3.723  0.00  0.00    -0.309 N 
ATOM     29  H   UNL     1       0.163  -0.794   4.643  0.00  0.00    +0.170 HD
ATOM     30  C   UNL     1      -0.027  -2.407   3.445  0.00  0.00    +0.124 A 
ATOM     31  N   UNL     1      -0.183  -2.833   2.220  0.00  0.00    -0.225 NA
ATOM     32  C   UNL     1      -0.539   0.189  -2.373  0.00  0.00    +0.052 C 
ENDBRANCH  18  30
ENDBRANCH   1  18
TORSDOF 6
