REMARK  Name = ZINC28253841
REMARK  8 active torsions:
REMARK  status: ('A' for Active; 'I' for Inactive)
REMARK    1  A    between atoms: C_1  and  C_2
REMARK    2  A    between atoms: C_5  and  C_8
REMARK    3  A    between atoms: C_8  and  C_10
REMARK    4  A    between atoms: C_8  and  N_13
REMARK    5  A    between atoms: C_14  and  C_16
REMARK    6  A    between atoms: C_16  and  N_17
REMARK    7  A    between atoms: C_20  and  C_24
REMARK    8  A    between atoms: C_20  and  C_25
REMARK                            x       y       z     vdW  Elec       q    Type
REMARK                         _______ _______ _______ _____ _____    ______ ____
ROOT
ATOM      1  N   UNL     1       3.169   5.778  -1.810  0.00  0.00    -0.215 N 
ATOM      2  C   UNL     1       2.293   5.876  -0.791  0.00  0.00    +0.251 C 
ATOM      3  O   UNL     1       1.542   6.799  -0.557  0.00  0.00    -0.272 OA
ATOM      4  C   UNL     1       2.442   4.593   0.003  0.00  0.00    +0.135 C 
ATOM      5  N   UNL     1       3.482   3.852  -0.731  0.00  0.00    -0.281 N 
ATOM      6  C   UNL     1       3.844   4.623  -1.772  0.00  0.00    +0.310 C 
ATOM      7  O   UNL     1       4.689   4.307  -2.586  0.00  0.00    -0.252 OA
ATOM      8  C   UNL     1       2.900   4.890   1.432  0.00  0.00    +0.047 C 
ATOM      9  H   UNL     1       3.804   2.861  -0.377  0.00  0.00    +0.152 HD
ENDROOT
BRANCH   4  10
ATOM     10  C   UNL     1       1.148   3.822   0.011  0.00  0.00    -0.014 A 
ATOM     11  C   UNL     1      -0.059   4.497   0.026  0.00  0.00    +0.008 A 
ATOM     12  C   UNL     1      -1.247   3.791   0.034  0.00  0.00    +0.022 A 
ATOM     13  C   UNL     1      -1.230   2.408   0.021  0.00  0.00    +0.059 A 
ATOM     14  C   UNL     1      -0.021   1.732   0.012  0.00  0.00    +0.060 A 
ATOM     15  C   UNL     1       1.167   2.440   0.004  0.00  0.00    +0.027 A 
ATOM     16 CL   UNL     1       0.002  -0.004   0.002  0.00  0.00    -0.082 Cl
ATOM     17 CL   UNL     1      -2.722   1.521   0.023  0.00  0.00    -0.082 Cl
ENDBRANCH   4  10
BRANCH   1  18
ATOM     18  C   UNL     1       3.359   6.808  -2.834  0.00  0.00    +0.213 C 
BRANCH  18  20
ATOM     19  N   UNL     1       2.421   7.375  -5.052  0.00  0.00    -0.307 N 
ATOM     20  C   UNL     1       2.423   6.549  -3.987  0.00  0.00    +0.231 C 
ATOM     21  O   UNL     1       1.671   5.598  -3.955  0.00  0.00    -0.274 OA
ATOM     22  H   UNL     1       3.102   8.238  -5.080  0.00  0.00    +0.149 HD
BRANCH  19  23
ATOM     23  C   UNL     1       1.510   7.123  -6.172  0.00  0.00    +0.106 C 
BRANCH  23  28
ATOM     24  C   UNL     1       0.469  12.078  -8.958  0.00  0.00    +0.044 C 
ATOM     25  C   UNL     1       0.741  10.786  -8.231  0.00  0.00    -0.050 A 
ATOM     26  C   UNL     1      -0.283   9.880  -8.026  0.00  0.00    +0.004 A 
ATOM     27  C   UNL     1      -0.034   8.695  -7.359  0.00  0.00    +0.006 A 
ATOM     28  C   UNL     1       1.239   8.415  -6.899  0.00  0.00    -0.027 A 
ATOM     29  C   UNL     1       2.262   9.323  -7.100  0.00  0.00    +0.006 A 
ATOM     30  C   UNL     1       2.014  10.506  -7.770  0.00  0.00    +0.004 A 
ENDBRANCH  23  28
BRANCH  23  31
ATOM     31  C   UNL     1       2.151   6.122  -7.135  0.00  0.00    +0.014 C 
ATOM     32  C   UNL     1       1.322   4.901  -7.539  0.00  0.00    +0.006 C 
ATOM     33  C   UNL     1       2.505   4.739  -6.583  0.00  0.00    +0.006 C 
ENDBRANCH  23  31
ENDBRANCH  19  23
ENDBRANCH  18  20
ENDBRANCH   1  18
TORSDOF 6
