REMARK  Name = ZINC12190130
REMARK  7 active torsions:
REMARK  status: ('A' for Active; 'I' for Inactive)
REMARK    1  A    between atoms: C_6  and  C_7
REMARK    2  A    between atoms: C_7  and  C_9
REMARK    3  A    between atoms: C_7  and  N_67
REMARK    4  A    between atoms: C_15  and  N_67
REMARK    5  A    between atoms: N_18  and  C_21
REMARK    6  A    between atoms: C_24  and  N_27
REMARK    7  A    between atoms: C_28  and  C_30
REMARK                            x       y       z     vdW  Elec       q    Type
REMARK                         _______ _______ _______ _____ _____    ______ ____
ROOT
ATOM      1  C   UNL     1      -3.258  -2.420   1.134  0.00  0.00    -0.068 C 
ATOM      2  C   UNL     1      -2.264  -2.931   0.088  0.00  0.00    +0.003 C 
ATOM      3  C   UNL     1      -0.948  -2.163   0.224  0.00  0.00    +0.103 C 
ATOM      4  N   UNL     1      -1.195  -0.728   0.031  0.00  0.00    -0.330 N 
ATOM      5  C   UNL     1      -2.110  -0.205   1.053  0.00  0.00    +0.103 C 
ATOM      6  C   UNL     1      -3.461  -0.914   0.942  0.00  0.00    +0.003 C 
ENDROOT
BRANCH   4   7
ATOM      7  C   UNL     1       0.006  -0.010   0.018  0.00  0.00    +0.030 A 
ATOM      8  C   UNL     1      -0.011   1.368  -0.154  0.00  0.00    +0.025 A 
ATOM      9  C   UNL     1       1.174   2.076  -0.167  0.00  0.00    +0.025 A 
ATOM     10  C   UNL     1       2.382   1.411  -0.007  0.00  0.00    +0.034 A 
ATOM     11  C   UNL     1       2.400   0.033   0.164  0.00  0.00    +0.025 A 
ATOM     12  C   UNL     1       1.215  -0.675   0.176  0.00  0.00    +0.025 A 
BRANCH  10  13
ATOM     13  N   UNL     1       3.585   2.131  -0.020  0.00  0.00    -0.285 N 
ATOM     14  C   UNL     1       4.701   1.569  -0.527  0.00  0.00    +0.220 C 
ATOM     15  O   UNL     1       4.644   0.481  -1.058  0.00  0.00    -0.275 OA
ATOM     16  H   UNL     1       3.615   3.032   0.337  0.00  0.00    +0.155 HD
BRANCH  14  17
ATOM     17  C   UNL     1       6.019   2.295  -0.433  0.00  0.00    +0.075 C 
ATOM     18  C   UNL     1       5.951   3.618  -1.224  0.00  0.00    +0.013 C 
ATOM     19  C   UNL     1       7.358   3.753  -1.859  0.00  0.00    +0.001 C 
ATOM     20  C   UNL     1       7.702   2.292  -2.242  0.00  0.00    +0.001 C 
ATOM     21  C   UNL     1       7.131   1.452  -1.080  0.00  0.00    +0.013 C 
ENDBRANCH  14  17
ENDBRANCH  10  13
ENDBRANCH   4   7
BRANCH   1  22
ATOM     22  N   UNL     1      -4.546  -3.119   0.963  0.00  0.00    +0.388 N 
ATOM     23  H   UNL     1      -5.099  -2.637   0.244  0.00  0.00    -0.084 HD
ATOM     24  H   UNL     1      -4.370  -4.086   0.668  0.00  0.00    -0.084 HD
BRANCH  22  25
ATOM     25  C   UNL     1      -5.298  -3.126   2.232  0.00  0.00    -0.010 C 
BRANCH  25  31
ATOM     26  C   UNL     1      -7.197  -4.103   0.926  0.00  0.00    +0.004 A 
ATOM     27  C   UNL     1      -8.547  -4.229   0.656  0.00  0.00    +0.020 A 
ATOM     28  C   UNL     1      -9.469  -3.502   1.387  0.00  0.00    +0.041 A 
ATOM     29  C   UNL     1      -9.040  -2.653   2.392  0.00  0.00    +0.020 A 
ATOM     30  C   UNL     1      -7.691  -2.533   2.665  0.00  0.00    +0.004 A 
ATOM     31  C   UNL     1      -6.769  -3.259   1.934  0.00  0.00    -0.057 A 
ATOM     32 CL   UNL     1     -11.164  -3.654   1.043  0.00  0.00    -0.084 Cl
ENDBRANCH  25  31
BRANCH  25  33
ATOM     33  C   UNL     1      -4.849  -4.291   3.075  0.00  0.00    -0.054 A 
ATOM     34  C   UNL     1      -4.584  -5.524   2.500  0.00  0.00    +0.022 A 
ATOM     35  C   UNL     1      -4.170  -6.568   3.305  0.00  0.00    +0.111 A 
ATOM     36  N   UNL     1      -4.036  -6.404   4.606  0.00  0.00    -0.263 NA
ATOM     37  C   UNL     1      -4.283  -5.247   5.189  0.00  0.00    +0.111 A 
ATOM     38  C   UNL     1      -4.696  -4.157   4.447  0.00  0.00    +0.022 A 
ENDBRANCH  25  33
ENDBRANCH  22  25
ENDBRANCH   1  22
TORSDOF 7
