REMARK  Name = ZINC35784058
REMARK  4 active torsions:
REMARK  status: ('A' for Active; 'I' for Inactive)
REMARK    1  A    between atoms: C_1  and  C_2
REMARK    2  A    between atoms: N_5  and  C_11
REMARK    3  A    between atoms: C_6  and  C_10
REMARK    4  A    between atoms: C_17  and  N_19
REMARK                            x       y       z     vdW  Elec       q    Type
REMARK                         _______ _______ _______ _____ _____    ______ ____
ROOT
ATOM      1  C   UNL     1       1.793  -2.350  -2.860  0.00  0.00    +0.074 C 
ATOM      2  C   UNL     1       2.481  -1.583  -3.990  0.00  0.00    +0.020 C 
ATOM      3  C   UNL     1       2.546  -2.465  -5.239  0.00  0.00    +0.002 C 
ATOM      4  C   UNL     1       1.127  -2.845  -5.670  0.00  0.00    +0.002 C 
ATOM      5  C   UNL     1       0.440  -3.612  -4.539  0.00  0.00    +0.020 C 
ATOM      6  C   UNL     1       0.375  -2.731  -3.290  0.00  0.00    +0.068 C 
ENDROOT
BRANCH   1  10
ATOM      7  C   UNL     1       1.131   2.200  -1.105  0.00  0.00    +0.039 C 
ATOM      8  C   UNL     1       1.338   0.729  -0.739  0.00  0.00    +0.129 C 
ATOM      9  C   UNL     1       1.454  -0.105  -2.017  0.00  0.00    +0.116 C 
ATOM     10  N   UNL     1       1.730  -1.504  -1.661  0.00  0.00    -0.291 NA
ATOM     11  C   UNL     1       2.971  -1.607  -0.878  0.00  0.00    +0.080 C 
ATOM     12  C   UNL     1       2.840  -0.758   0.390  0.00  0.00    +0.178 C 
ATOM     13  O   UNL     1       2.540   0.592   0.025  0.00  0.00    -0.374 OA
ATOM     14  C   UNL     1       3.212  -3.068  -0.493  0.00  0.00    +0.026 C 
ENDBRANCH   1  10
BRANCH   6  15
ATOM     15  N   UNL     1      -0.389  -1.512  -3.590  0.00  0.00    -0.326 NA
ATOM     16  H   UNL     1      -1.194  -1.722  -4.162  0.00  0.00    +0.119 HD
ATOM     17  H   UNL     1      -0.662  -1.038  -2.742  0.00  0.00    +0.119 HD
ENDBRANCH   6  15
TORSDOF 2
