REMARK  Name = ZINC60221923
REMARK  10 active torsions:
REMARK  status: ('A' for Active; 'I' for Inactive)
REMARK    1  A    between atoms: C_1  and  C_2
REMARK    2  A    between atoms: C_3  and  C_27
REMARK    3  A    between atoms: C_7  and  N_8
REMARK    4  A    between atoms: C_9  and  C_11
REMARK    5  A    between atoms: C_11  and  C_13
REMARK    6  A    between atoms: C_11  and  N_16
REMARK    7  A    between atoms: C_13  and  C_14
REMARK    8  A    between atoms: C_13  and  C_15
REMARK    9  A    between atoms: C_17  and  C_19
REMARK   10  A    between atoms: C_27  and  N_28
REMARK                            x       y       z     vdW  Elec       q    Type
REMARK                         _______ _______ _______ _____ _____    ______ ____
ROOT
ATOM      1  N   UNL     1       1.210   0.605   1.919  0.00  0.00    -0.284 N 
ATOM      2  C   UNL     1       1.091   0.397   3.245  0.00  0.00    +0.238 C 
ATOM      3  O   UNL     1       0.635  -0.649   3.656  0.00  0.00    -0.273 OA
ATOM      4  H   UNL     1       1.508   1.467   1.589  0.00  0.00    +0.155 HD
ENDROOT
BRANCH   1  11
ATOM      5  C   UNL     1       2.482   0.627  -0.626  0.00  0.00    +0.046 C 
ATOM      6  C   UNL     1       1.503  -0.450  -0.234  0.00  0.00    -0.028 A 
ATOM      7  C   UNL     1       1.204  -1.468  -1.118  0.00  0.00    -0.059 A 
ATOM      8  C   UNL     1       0.306  -2.456  -0.758  0.00  0.00    +0.002 A 
ATOM      9  C   UNL     1      -0.295  -2.428   0.487  0.00  0.00    +0.002 A 
ATOM     10  C   UNL     1      -0.000  -1.413   1.375  0.00  0.00    +0.023 A 
ATOM     11  C   UNL     1       0.905  -0.422   1.019  0.00  0.00    +0.037 A 
BRANCH   7  12
ATOM     12  C   UNL     1       1.857  -1.502  -2.475  0.00  0.00    -0.043 C 
BRANCH  12  13
ATOM     13  N   UNL     1       1.218  -0.511  -3.351  0.00  0.00    +0.383 N 
ATOM     14  C   UNL     1      -0.182  -0.886  -3.559  0.00  0.00    -0.068 C 
ATOM     15  C   UNL     1      -0.957   0.300  -4.145  0.00  0.00    +0.050 C 
ATOM     16  S   UNL     1      -0.234   0.710  -5.764  0.00  0.00    -0.164 S 
ATOM     17  C   UNL     1       1.545   0.810  -5.393  0.00  0.00    +0.050 C 
ATOM     18  C   UNL     1       1.946  -0.452  -4.620  0.00  0.00    -0.068 C 
ATOM     19  H   UNL     1       1.254   0.394  -2.907  0.00  0.00    -0.081 HD
ENDBRANCH  12  13
ENDBRANCH   7  12
ENDBRANCH   1  11
BRANCH   2  20
ATOM     20  C   UNL     1       1.526   1.463   4.218  0.00  0.00    +0.162 C 
BRANCH  20  21
ATOM     21  N   UNL     1       1.978   0.834   5.462  0.00  0.00    -0.300 N 
ATOM     22  C   UNL     1       2.853   1.476   6.261  0.00  0.00    +0.250 C 
ATOM     23  O   UNL     1       3.267   2.576   5.950  0.00  0.00    -0.270 OA
ATOM     24  H   UNL     1       1.647  -0.043   5.710  0.00  0.00    +0.150 HD
BRANCH  22  25
ATOM     25  C   UNL     1       3.308   0.843   7.514  0.00  0.00    +0.107 A 
ATOM     26  C   UNL     1       4.448   0.032   7.518  0.00  0.00    +0.138 A 
ATOM     27  C   UNL     1       4.868  -0.557   8.697  0.00  0.00    +0.039 A 
ATOM     28  C   UNL     1       4.164  -0.346   9.868  0.00  0.00    +0.006 A 
ATOM     29  C   UNL     1       3.036   0.454   9.873  0.00  0.00    +0.039 A 
ATOM     30  C   UNL     1       2.606   1.055   8.705  0.00  0.00    +0.138 A 
ATOM     31  F   UNL     1       1.507   1.841   8.713  0.00  0.00    -0.205 F 
ATOM     32  F   UNL     1       5.136  -0.176   6.375  0.00  0.00    -0.205 F 
ENDBRANCH  22  25
ENDBRANCH  20  21
BRANCH  20  33
ATOM     33  C   UNL     1       0.348   2.393   4.515  0.00  0.00    +0.012 C 
ATOM     34  C   UNL     1       0.806   3.513   5.451  0.00  0.00    +0.009 C 
ATOM     35  C   UNL     1      -0.166   2.999   3.208  0.00  0.00    +0.009 C 
ENDBRANCH  20  33
ENDBRANCH   2  20
TORSDOF 7
