REMARK  Name = ZINC23590574
REMARK  6 active torsions:
REMARK  status: ('A' for Active; 'I' for Inactive)
REMARK    1  A    between atoms: C_1  and  C_2
REMARK    2  A    between atoms: C_2  and  C_4
REMARK    3  A    between atoms: C_2  and  S_16
REMARK    4  A    between atoms: N_6  and  C_7
REMARK    5  A    between atoms: C_11  and  N_13
REMARK    6  A    between atoms: S_16  and  C_17
REMARK                            x       y       z     vdW  Elec       q    Type
REMARK                         _______ _______ _______ _____ _____    ______ ____
ROOT
ATOM      1  S   UNL     1       2.365   8.005   1.783  0.00  0.00    -0.073 S 
ENDROOT
BRANCH   1   2
ATOM      2  C   UNL     1       2.163   9.726   1.466  0.00  0.00    +0.192 A 
ATOM      3  N   UNL     1       0.973  10.184   1.092  0.00  0.00    -0.207 NA
ATOM      4  C   UNL     1       0.761  11.465   0.841  0.00  0.00    +0.129 A 
ATOM      5  C   UNL     1       1.837  12.387   0.973  0.00  0.00    +0.051 A 
ATOM      6  C   UNL     1       1.835  13.835   0.748  0.00  0.00    -0.025 A 
ATOM      7  C   UNL     1       2.998  14.486   0.945  0.00  0.00    -0.004 A 
ATOM      8  S   UNL     1       4.153  13.233   1.434  0.00  0.00    -0.073 S 
ATOM      9  C   UNL     1       3.068  11.832   1.373  0.00  0.00    +0.115 A 
ATOM     10  N   UNL     1       3.199  10.540   1.611  0.00  0.00    -0.214 NA
ATOM     11  C   UNL     1       3.256  15.954   0.783  0.00  0.00    +0.043 C 
ATOM     12  C   UNL     1       2.088  16.567  -0.003  0.00  0.00    +0.005 C 
ATOM     13  C   UNL     1       0.773  16.078   0.611  0.00  0.00    +0.005 C 
ATOM     14  C   UNL     1       0.582  14.590   0.312  0.00  0.00    +0.037 C 
ATOM     15  N   UNL     1      -0.492  11.903   0.455  0.00  0.00    -0.343 N 
ATOM     16  H   UNL     1      -0.662  12.970   0.247  0.00  0.00    +0.144 HD
ATOM     17  H   UNL     1      -1.319  11.185   0.355  0.00  0.00    +0.144 HD
ENDBRANCH   1   2
BRANCH   1  19
ATOM     18  C   UNL     1       0.360   7.636  -0.035  0.00  0.00    +0.029 C 
ATOM     19  C   UNL     1       0.684   7.423   1.444  0.00  0.00    +0.137 C 
BRANCH  19  20
ATOM     20  C   UNL     1       0.585   5.956   1.774  0.00  0.00    +0.230 C 
ATOM     21  O   UNL     1       1.589   5.280   1.843  0.00  0.00    -0.274 OA
ATOM     22  N   UNL     1      -0.621   5.395   1.993  0.00  0.00    -0.285 N 
ATOM     23  H   UNL     1      -1.538   5.986   1.847  0.00  0.00    +0.155 HD
BRANCH  22  24
ATOM     24  C   UNL     1      -0.708   4.061   2.406  0.00  0.00    +0.036 A 
ATOM     25  C   UNL     1       0.275   3.521   3.226  0.00  0.00    +0.023 A 
ATOM     26  C   UNL     1       0.187   2.204   3.631  0.00  0.00    +0.004 A 
ATOM     27  C   UNL     1      -0.878   1.423   3.223  0.00  0.00    +0.033 A 
ATOM     28  C   UNL     1      -1.856   1.956   2.403  0.00  0.00    +0.128 A 
ATOM     29  C   UNL     1      -1.776   3.274   1.998  0.00  0.00    +0.056 A 
BRANCH  28  30
ATOM     30  N   UNL     1      -2.991   1.114   1.962  0.00  0.00    +0.056 N 
ATOM     31  O   UNL     1      -3.063  -0.047   2.322  0.00  0.00    -0.126 OA
ATOM     32  O   UNL     1      -3.852   1.583   1.240  0.00  0.00    -0.126 OA
ENDBRANCH  28  30
ENDBRANCH  22  24
ENDBRANCH  19  20
ENDBRANCH   1  19
TORSDOF 5
