REMARK  Name = ZINC40114320
REMARK  6 active torsions:
REMARK  status: ('A' for Active; 'I' for Inactive)
REMARK    1  A    between atoms: C_6  and  C_7
REMARK    2  A    between atoms: C_7  and  N_8
REMARK    3  A    between atoms: C_12  and  S_14
REMARK    4  A    between atoms: S_14  and  C_15
REMARK    5  A    between atoms: C_15  and  C_16
REMARK    6  A    between atoms: C_22  and  C_25
REMARK                            x       y       z     vdW  Elec       q    Type
REMARK                         _______ _______ _______ _____ _____    ______ ____
ROOT
ATOM      1  N   UNL     1      -1.726  -1.017  -1.368  0.00  0.00    -0.318 N 
ATOM      2  C   UNL     1      -2.903  -1.714  -1.615  0.00  0.00    +0.183 A 
ATOM      3  N   UNL     1      -3.764  -2.229  -0.759  0.00  0.00    -0.125 NA
ATOM      4  N   UNL     1      -4.879  -2.889  -1.222  0.00  0.00    -0.133 NA
ATOM      5  C   UNL     1      -5.081  -3.002  -2.521  0.00  0.00    +0.160 A 
ATOM      6  S   UNL     1      -3.657  -2.146  -3.175  0.00  0.00    -0.025 S 
ATOM      7  H   UNL     1      -1.191  -0.691  -2.109  0.00  0.00    +0.148 HD
ENDROOT
BRANCH   1   8
ATOM      8  C   UNL     1      -1.293  -0.775   0.010  0.00  0.00    +0.138 C 
BRANCH   8  14
ATOM      9  C   UNL     1      -0.017   1.378   0.010  0.00  0.00    +0.008 A 
ATOM     10  C   UNL     1       1.170   2.086   0.002  0.00  0.00    +0.038 A 
ATOM     11  C   UNL     1       2.379   1.410  -0.013  0.00  0.00    +0.123 A 
ATOM     12  C   UNL     1       2.396   0.026  -0.021  0.00  0.00    +0.038 A 
ATOM     13  C   UNL     1       1.208  -0.680  -0.013  0.00  0.00    +0.008 A 
ATOM     14  C   UNL     1       0.002  -0.004   0.002  0.00  0.00    -0.030 A 
ATOM     15  F   UNL     1       3.540   2.101  -0.021  0.00  0.00    -0.205 F 
ENDBRANCH   8  14
ENDBRANCH   1   8
BRANCH   5  16
ATOM     16  S   UNL     1      -6.406  -3.785  -3.380  0.00  0.00    -0.091 S 
BRANCH  16  17
ATOM     17  C   UNL     1      -7.471  -4.423  -2.057  0.00  0.00    +0.132 C 
BRANCH  17  18
ATOM     18  C   UNL     1      -8.658  -5.126  -2.663  0.00  0.00    +0.059 A 
ATOM     19  C   UNL     1      -9.624  -5.696  -1.836  0.00  0.00    +0.096 A 
ATOM     20  C   UNL     1     -10.697  -6.331  -2.398  0.00  0.00    +0.275 A 
ATOM     21  N   UNL     1     -10.793  -6.389  -3.761  0.00  0.00    -0.177 N 
ATOM     22  C   UNL     1      -9.822  -5.815  -4.532  0.00  0.00    +0.177 A 
ATOM     23  N   UNL     1      -8.783  -5.194  -3.972  0.00  0.00    -0.230 NA
ATOM     24  C   UNL     1     -10.189  -6.033  -5.874  0.00  0.00    +0.116 A 
ATOM     25  C   UNL     1     -11.400  -6.749  -5.856  0.00  0.00    +0.156 A 
ATOM     26  N   UNL     1     -11.748  -6.954  -4.613  0.00  0.00    -0.169 NA
ATOM     27  O   UNL     1     -11.648  -6.893  -1.619  0.00  0.00    -0.266 OA
BRANCH  24  28
ATOM     28  C   UNL     1      -9.468  -5.607  -7.035  0.00  0.00    +0.104 C 
ATOM     29  N   UNL     1      -8.896  -5.269  -7.957  0.00  0.00    -0.191 NA
ENDBRANCH  24  28
ENDBRANCH  17  18
ENDBRANCH  16  17
ENDBRANCH   5  16
TORSDOF 6
