REMARK  Name = ZINC09186836
REMARK  8 active torsions:
REMARK  status: ('A' for Active; 'I' for Inactive)
REMARK    1  A    between atoms: C_1  and  C_2
REMARK    2  A    between atoms: C_5  and  S_8
REMARK    3  A    between atoms: S_8  and  N_11
REMARK    4  A    between atoms: N_11  and  C_12
REMARK    5  A    between atoms: C_17  and  C_18
REMARK    6  A    between atoms: C_18  and  N_20
REMARK    7  A    between atoms: N_22  and  C_34
REMARK    8  A    between atoms: C_34  and  C_35
REMARK                            x       y       z     vdW  Elec       q    Type
REMARK                         _______ _______ _______ _____ _____    ______ ____
ROOT
ATOM      1  C   UNL     1      -3.321   8.944  -3.680  0.00  0.00    +0.271 C 
ATOM      2  O   UNL     1      -3.133   9.419  -2.573  0.00  0.00    -0.268 OA
ENDROOT
BRANCH   1   3
ATOM      3  N   UNL     1      -3.096   7.643  -3.897  0.00  0.00    -0.152 NA
ATOM      4  C   UNL     1      -2.668   6.869  -2.906  0.00  0.00    +0.167 A 
ATOM      5  N   UNL     1      -2.386   5.538  -2.936  0.00  0.00    -0.317 N 
ATOM      6  C   UNL     1      -1.947   4.896  -1.791  0.00  0.00    +0.062 A 
ATOM      7  C   UNL     1      -1.611   3.543  -1.628  0.00  0.00    +0.076 A 
ATOM      8  C   UNL     1      -1.187   3.058  -0.407  0.00  0.00    +0.164 A 
ATOM      9  C   UNL     1      -1.080   3.903   0.694  0.00  0.00    +0.163 A 
ATOM     10  C   UNL     1      -1.406   5.244   0.557  0.00  0.00    +0.066 A 
ATOM     11  C   UNL     1      -1.829   5.719  -0.662  0.00  0.00    +0.043 A 
ATOM     12  S   UNL     1      -2.333   7.311  -1.263  0.00  0.00    -0.052 S 
ATOM     13  O   UNL     1      -0.656   3.437   1.900  0.00  0.00    -0.485 OA
ATOM     14  C   UNL     1      -0.691   2.017   2.089  0.00  0.00    +0.270 C 
ATOM     15  C   UNL     1      -0.090   1.354   0.843  0.00  0.00    +0.270 C 
ATOM     16  O   UNL     1      -0.874   1.735  -0.293  0.00  0.00    -0.485 OA
BRANCH   5  17
ATOM     17  C   UNL     1      -2.548   4.784  -4.181  0.00  0.00    +0.151 C 
BRANCH  17  18
ATOM     18  C   UNL     1      -3.649   5.403  -5.004  0.00  0.00    -0.013 C 
ATOM     19  C   UNL     1      -3.414   5.775  -6.238  0.00  0.00    +0.005 C 
ENDBRANCH  17  18
ENDBRANCH   5  17
ENDBRANCH   1   3
BRANCH   1  25
ATOM     20  C   UNL     1      -4.039  11.168  -4.559  0.00  0.00    +0.060 A 
ATOM     21  C   UNL     1      -4.481  11.969  -5.605  0.00  0.00    +0.025 A 
ATOM     22  C   UNL     1      -4.690  11.421  -6.854  0.00  0.00    +0.002 A 
ATOM     23  C   UNL     1      -4.457  10.073  -7.077  0.00  0.00    +0.001 A 
ATOM     24  C   UNL     1      -4.013   9.265  -6.052  0.00  0.00    +0.015 A 
ATOM     25  C   UNL     1      -3.797   9.805  -4.783  0.00  0.00    +0.061 A 
BRANCH  20  26
ATOM     26  N   UNL     1      -3.833  11.716  -3.298  0.00  0.00    -0.216 N 
ATOM     27  H   UNL     1      -3.104  11.396  -2.744  0.00  0.00    +0.174 HD
BRANCH  26  28
ATOM     28  S   UNL     1      -4.832  12.914  -2.743  0.00  0.00    +0.072 S 
ATOM     29  O   UNL     1      -4.454  13.167  -1.397  0.00  0.00    -0.150 OA
ATOM     30  O   UNL     1      -4.838  13.931  -3.736  0.00  0.00    -0.150 OA
BRANCH  28  35
ATOM     31  C   UNL     1     -10.419  10.643  -2.566  0.00  0.00    +0.044 C 
ATOM     32  C   UNL     1      -9.023  11.210  -2.611  0.00  0.00    -0.050 A 
ATOM     33  C   UNL     1      -8.198  11.103  -1.507  0.00  0.00    +0.005 A 
ATOM     34  C   UNL     1      -6.918  11.623  -1.547  0.00  0.00    +0.029 A 
ATOM     35  C   UNL     1      -6.463  12.251  -2.692  0.00  0.00    +0.109 A 
ATOM     36  C   UNL     1      -7.290  12.362  -3.794  0.00  0.00    +0.029 A 
ATOM     37  C   UNL     1      -8.568  11.838  -3.755  0.00  0.00    +0.005 A 
ENDBRANCH  28  35
ENDBRANCH  26  28
ENDBRANCH  20  26
ENDBRANCH   1  25
TORSDOF 7
