REMARK  Name = ZINC38655713
REMARK  8 active torsions:
REMARK  status: ('A' for Active; 'I' for Inactive)
REMARK    1  A    between atoms: C_6  and  O_7
REMARK    2  A    between atoms: O_7  and  C_8
REMARK    3  A    between atoms: C_8  and  C_9
REMARK    4  A    between atoms: C_9  and  O_11
REMARK    5  A    between atoms: O_11  and  C_12
REMARK    6  A    between atoms: C_19  and  N_33
REMARK    7  A    between atoms: C_20  and  C_31
REMARK    8  A    between atoms: C_21  and  C_23
REMARK                            x       y       z     vdW  Elec       q    Type
REMARK                         _______ _______ _______ _____ _____    ______ ____
ROOT
ATOM      1  C   UNL     1      -3.837  -4.640   0.049  0.00  0.00    +0.135 A 
ATOM      2  C   UNL     1      -4.982  -3.856   0.022  0.00  0.00    +0.047 A 
ATOM      3  C   UNL     1      -6.227  -4.452   0.065  0.00  0.00    +0.012 A 
ATOM      4  C   UNL     1      -6.340  -5.829   0.137  0.00  0.00    +0.008 A 
ATOM      5  C   UNL     1      -5.199  -6.617   0.165  0.00  0.00    +0.138 A 
ATOM      6  C   UNL     1      -3.946  -6.020   0.114  0.00  0.00    +0.093 A 
ATOM      7  O   UNL     1      -5.289  -7.968   0.234  0.00  0.00    -0.441 OA
ATOM      8  C   UNL     1      -6.435  -8.582  -0.104  0.00  0.00    +0.199 C 
ATOM      9  C   UNL     1      -7.616  -7.922  -0.147  0.00  0.00    +0.098 C 
ATOM     10  C   UNL     1      -7.707  -6.459   0.185  0.00  0.00    +0.098 C 
ENDROOT
BRANCH  10  11
ATOM     11  C   UNL     1      -8.284  -6.295   1.567  0.00  0.00    -0.033 A 
ATOM     12  C   UNL     1      -7.624  -6.829   2.659  0.00  0.00    +0.006 A 
ATOM     13  C   UNL     1      -8.152  -6.680   3.927  0.00  0.00    +0.022 A 
ATOM     14  C   UNL     1      -9.342  -5.996   4.105  0.00  0.00    +0.059 A 
ATOM     15  C   UNL     1     -10.002  -5.461   3.012  0.00  0.00    +0.060 A 
ATOM     16  C   UNL     1      -9.469  -5.607   1.744  0.00  0.00    +0.026 A 
ATOM     17 CL   UNL     1     -11.495  -4.603   3.234  0.00  0.00    -0.082 Cl
ATOM     18 CL   UNL     1     -10.006  -5.809   5.698  0.00  0.00    -0.082 Cl
ENDBRANCH  10  11
BRANCH   8  19
ATOM     19  N   UNL     1      -6.407  -9.918  -0.416  0.00  0.00    -0.328 N 
ATOM     20  H   UNL     1      -5.569 -10.405  -0.391  0.00  0.00    +0.145 HD
ATOM     21  H   UNL     1      -7.226 -10.376  -0.663  0.00  0.00    +0.145 HD
ENDBRANCH   8  19
BRANCH   9  22
ATOM     22  C   UNL     1      -8.804  -8.632  -0.517  0.00  0.00    +0.101 C 
ATOM     23  N   UNL     1      -9.746  -9.195  -0.810  0.00  0.00    -0.191 NA
ENDBRANCH   9  22
BRANCH   1  24
ATOM     24  O   UNL     1      -2.611  -4.056   0.006  0.00  0.00    -0.423 OA
BRANCH  24  25
ATOM     25  C   UNL     1      -2.143  -3.489   1.130  0.00  0.00    +0.350 C 
ATOM     26  O   UNL     1      -2.843  -3.430   2.113  0.00  0.00    -0.247 OA
BRANCH  25  27
ATOM     27  C   UNL     1      -0.745  -2.927   1.165  0.00  0.00    +0.349 C 
BRANCH  27  28
ATOM     28  O   UNL     1      -0.483  -2.384   2.460  0.00  0.00    -0.481 OA
BRANCH  28  34
ATOM     29  C   UNL     1       1.065  -1.286   3.895  0.00  0.00    +0.047 A 
ATOM     30  C   UNL     1       2.312  -0.727   4.098  0.00  0.00    +0.023 A 
ATOM     31  C   UNL     1       3.240  -0.711   3.071  0.00  0.00    +0.041 A 
ATOM     32  C   UNL     1       2.920  -1.256   1.839  0.00  0.00    +0.023 A 
ATOM     33  C   UNL     1       1.674  -1.816   1.633  0.00  0.00    +0.047 A 
ATOM     34  C   UNL     1       0.743  -1.833   2.661  0.00  0.00    +0.121 A 
ATOM     35 CL   UNL     1       4.805  -0.007   3.327  0.00  0.00    -0.084 Cl
ENDBRANCH  28  34
ENDBRANCH  27  28
ENDBRANCH  25  27
ENDBRANCH  24  25
ENDBRANCH   1  24
TORSDOF 8
