REMARK  Name = ZINC36610427
REMARK  9 active torsions:
REMARK  status: ('A' for Active; 'I' for Inactive)
REMARK    1  A    between atoms: C_1  and  C_2
REMARK    2  A    between atoms: C_3  and  C_4
REMARK    3  A    between atoms: C_4  and  C_6
REMARK    4  A    between atoms: C_4  and  N_15
REMARK    5  A    between atoms: N_8  and  C_9
REMARK    6  A    between atoms: N_15  and  C_16
REMARK    7  A    between atoms: C_22  and  C_24
REMARK    8  A    between atoms: C_28  and  O_31
REMARK    9  A    between atoms: C_29  and  O_30
REMARK                            x       y       z     vdW  Elec       q    Type
REMARK                         _______ _______ _______ _____ _____    ______ ____
ROOT
ATOM      1  N   UNL     1      -0.067  -2.342   0.631  0.00  0.00    -0.252 N 
ATOM      2  C   UNL     1       0.486  -3.526   0.960  0.00  0.00    +0.255 C 
ATOM      3  O   UNL     1      -0.207  -4.414   1.419  0.00  0.00    -0.269 OA
ENDROOT
BRANCH   1   4
ATOM      4  C   UNL     1      -1.427  -2.116   0.864  0.00  0.00    +0.038 A 
ATOM      5  C   UNL     1      -2.032  -0.960   0.388  0.00  0.00    +0.023 A 
ATOM      6  C   UNL     1      -3.376  -0.740   0.620  0.00  0.00    +0.002 A 
ATOM      7  C   UNL     1      -4.119  -1.670   1.324  0.00  0.00    +0.000 A 
ATOM      8  C   UNL     1      -3.519  -2.822   1.800  0.00  0.00    +0.002 A 
ATOM      9  C   UNL     1      -2.177  -3.051   1.566  0.00  0.00    +0.023 A 
ENDBRANCH   1   4
BRANCH   2  10
ATOM     10  C   UNL     1       1.931  -3.746   0.762  0.00  0.00    +0.082 A 
ATOM     11  C   UNL     1       2.589  -3.162  -0.325  0.00  0.00    +0.017 A 
ATOM     12  C   UNL     1       3.938  -3.370  -0.506  0.00  0.00    +0.005 A 
ATOM     13  C   UNL     1       4.651  -4.156   0.385  0.00  0.00    +0.049 A 
ATOM     14  C   UNL     1       4.015  -4.740   1.466  0.00  0.00    +0.159 A 
ATOM     15  C   UNL     1       2.653  -4.535   1.666  0.00  0.00    +0.171 A 
BRANCH  15  16
ATOM     16  O   UNL     1       2.026  -5.102   2.728  0.00  0.00    -0.503 OA
ATOM     17  H   UNL     1       1.669  -5.983   2.550  0.00  0.00    +0.292 HD
ENDBRANCH  15  16
BRANCH  14  18
ATOM     18  O   UNL     1       4.721  -5.511   2.336  0.00  0.00    -0.503 OA
ATOM     19  H   UNL     1       5.102  -5.019   3.077  0.00  0.00    +0.292 HD
ENDBRANCH  14  18
ENDBRANCH   2  10
BRANCH   1  20
ATOM     20  C   UNL     1       0.758  -1.291   0.029  0.00  0.00    +0.190 C 
BRANCH  20  21
ATOM     21  C   UNL     1       0.248  -0.984  -1.355  0.00  0.00    +0.238 C 
ATOM     22  O   UNL     1      -0.709  -1.584  -1.796  0.00  0.00    -0.273 OA
ATOM     23  N   UNL     1       0.857  -0.042  -2.104  0.00  0.00    -0.311 N 
ATOM     24  H   UNL     1       1.622   0.438  -1.751  0.00  0.00    +0.149 HD
BRANCH  23  25
ATOM     25  C   UNL     1       0.362   0.257  -3.450  0.00  0.00    +0.073 C 
ATOM     26  C   UNL     1       0.977  -0.726  -4.449  0.00  0.00    +0.022 C 
ATOM     27  C   UNL     1       0.460  -0.414  -5.855  0.00  0.00    +0.002 C 
ATOM     28  C   UNL     1       0.852   1.015  -6.237  0.00  0.00    +0.000 C 
ATOM     29  C   UNL     1       0.237   1.997  -5.238  0.00  0.00    +0.002 C 
ATOM     30  C   UNL     1       0.754   1.685  -3.832  0.00  0.00    +0.022 C 
ENDBRANCH  23  25
ENDBRANCH  20  21
BRANCH  20  33
ATOM     31  C   UNL     1      -0.035   1.174   2.866  0.00  0.00    +0.035 C 
ATOM     32  C   UNL     1       0.038  -0.069   2.017  0.00  0.00    -0.032 C 
ATOM     33  C   UNL     1       0.685  -0.048   0.878  0.00  0.00    +0.000 C 
ENDBRANCH  20  33
ENDBRANCH   1  20
TORSDOF 8
