REMARK  Name = ZINC44884418
REMARK  5 active torsions:
REMARK  status: ('A' for Active; 'I' for Inactive)
REMARK    1  A    between atoms: C_4  and  S_7
REMARK    2  A    between atoms: S_7  and  N_10
REMARK    3  A    between atoms: N_10  and  C_11
REMARK    4  A    between atoms: C_14  and  C_18
REMARK    5  A    between atoms: N_20  and  C_21
REMARK                            x       y       z     vdW  Elec       q    Type
REMARK                         _______ _______ _______ _____ _____    ______ ____
ROOT
ATOM      1  C   UNL     1       5.584  -1.710   1.827  0.00  0.00    +0.093 A 
ATOM      2  C   UNL     1       6.398  -2.165   0.794  0.00  0.00    +0.029 A 
ATOM      3  C   UNL     1       7.568  -2.831   1.080  0.00  0.00    +0.015 A 
ATOM      4  C   UNL     1       7.939  -3.051   2.410  0.00  0.00    +0.039 A 
ATOM      5  C   UNL     1       7.119  -2.593   3.446  0.00  0.00    +0.035 A 
ATOM      6  C   UNL     1       5.952  -1.922   3.153  0.00  0.00    +0.066 A 
ATOM      7 CL   UNL     1       4.937  -1.346   4.438  0.00  0.00    -0.081 Cl
ENDROOT
BRANCH   4   8
ATOM      8  C   UNL     1       9.192  -3.764   2.720  0.00  0.00    +0.248 C 
ATOM      9  O   UNL     1       9.904  -4.162   1.818  0.00  0.00    -0.270 OA
ATOM     10  N   UNL     1       9.548  -3.975   4.003  0.00  0.00    -0.281 N 
ATOM     11  H   UNL     1       9.015  -3.602   4.722  0.00  0.00    +0.155 HD
BRANCH  10  12
ATOM     12  C   UNL     1      10.686  -4.733   4.297  0.00  0.00    +0.048 A 
ATOM     13  C   UNL     1      11.797  -4.673   3.465  0.00  0.00    +0.024 A 
ATOM     14  C   UNL     1      12.919  -5.422   3.759  0.00  0.00    +0.002 A 
ATOM     15  C   UNL     1      12.938  -6.233   4.879  0.00  0.00    +0.001 A 
ATOM     16  C   UNL     1      11.834  -6.296   5.709  0.00  0.00    +0.017 A 
ATOM     17  C   UNL     1      10.710  -5.544   5.425  0.00  0.00    +0.039 A 
ATOM     18 BR   UNL     1       9.204  -5.625   6.565  0.00  0.00    -0.048 Br
ENDBRANCH  10  12
ENDBRANCH   4   8
BRANCH   1  19
ATOM     19  N   UNL     1       4.402  -1.038   1.534  0.00  0.00    -0.096 NA
BRANCH  19  20
ATOM     20  S   UNL     1       3.962  -0.785  -0.043  0.00  0.00    +0.092 S 
ATOM     21  O   UNL     1       3.694  -2.064  -0.600  0.00  0.00    -0.148 OA
ATOM     22  O   UNL     1       4.925   0.101  -0.596  0.00  0.00    -0.148 OA
BRANCH  20  26
ATOM     23  C   UNL     1       0.027   1.453   0.006  0.00  0.00    +0.000 A 
ATOM     24  C   UNL     1       1.220   2.152   0.002  0.00  0.00    +0.002 A 
ATOM     25  C   UNL     1       2.421   1.468  -0.013  0.00  0.00    +0.029 A 
ATOM     26  C   UNL     1       2.430   0.086  -0.023  0.00  0.00    +0.110 A 
ATOM     27  C   UNL     1       1.238  -0.613  -0.017  0.00  0.00    +0.029 A 
ATOM     28  C   UNL     1       0.036   0.070  -0.004  0.00  0.00    +0.002 A 
ENDBRANCH  20  26
ENDBRANCH  19  20
ENDBRANCH   1  19
TORSDOF 5
