REMARK  Name = ZINC19972973
REMARK  13 active torsions:
REMARK  status: ('A' for Active; 'I' for Inactive)
REMARK    1  A    between atoms: C_1  and  C_2
REMARK    2  A    between atoms: C_2  and  C_3
REMARK    3  A    between atoms: C_10  and  C_15
REMARK    4  A    between atoms: C_15  and  C_17
REMARK    5  A    between atoms: C_15  and  N_26
REMARK    6  A    between atoms: N_21  and  C_22
REMARK    7  A    between atoms: C_22  and  C_23
REMARK    8  A    between atoms: C_22  and  C_24
REMARK    9  A    between atoms: C_22  and  C_25
REMARK   10  A    between atoms: N_26  and  C_27
REMARK   11  A    between atoms: N_26  and  C_35
REMARK   12  A    between atoms: C_27  and  C_28
REMARK   13  A    between atoms: C_35  and  C_36
REMARK                            x       y       z     vdW  Elec       q    Type
REMARK                         _______ _______ _______ _____ _____    ______ ____
ROOT
ATOM      1  C   UNL     1       2.699   0.106  -0.024  0.00  0.00    +0.163 C 
ENDROOT
BRANCH   1   9
ATOM      2  C   UNL     1      -2.416   1.476  -3.226  0.00  0.00    -0.047 A 
ATOM      3  C   UNL     1      -3.316   1.212  -2.202  0.00  0.00    +0.005 A 
ATOM      4  C   UNL     1      -2.873   0.779  -0.971  0.00  0.00    +0.026 A 
ATOM      5  C   UNL     1      -1.510   0.616  -0.745  0.00  0.00    +0.049 A 
ATOM      6  C   UNL     1      -0.601   0.888  -1.785  0.00  0.00    -0.001 A 
ATOM      7  C   UNL     1      -1.073   1.318  -3.029  0.00  0.00    +0.013 A 
ATOM      8  C   UNL     1       0.831   0.709  -1.539  0.00  0.00    +0.021 A 
ATOM      9  C   UNL     1       1.231   0.295  -0.311  0.00  0.00    +0.042 A 
ATOM     10  C   UNL     1       0.279   0.040   0.698  0.00  0.00    +0.254 A 
ATOM     11  O   UNL     1       0.659  -0.331   1.795  0.00  0.00    -0.268 OA
ATOM     12  N   UNL     1      -1.039   0.197   0.481  0.00  0.00    -0.322 N 
ATOM     13  H   UNL     1      -1.744  -0.013   1.298  0.00  0.00    +0.169 HD
BRANCH   2  15
ATOM     14  C   UNL     1      -3.193   0.725  -5.458  0.00  0.00    +0.009 C 
ATOM     15  C   UNL     1      -2.925   1.939  -4.567  0.00  0.00    +0.032 C 
ENDBRANCH   2  15
ENDBRANCH   1   9
BRANCH   1  16
ATOM     16  C   UNL     1       3.493   0.357  -1.280  0.00  0.00    +0.174 A 
ATOM     17  N   UNL     1       3.753   1.523  -1.821  0.00  0.00    -0.111 NA
ATOM     18  N   UNL     1       4.457   1.321  -2.881  0.00  0.00    -0.023 NA
ATOM     19  N   UNL     1       4.652   0.057  -3.030  0.00  0.00    -0.043 NA
ATOM     20  N   UNL     1       4.078  -0.570  -2.060  0.00  0.00    -0.222 N 
BRANCH  20  21
ATOM     21  C   UNL     1       4.063  -2.020  -1.849  0.00  0.00    +0.059 C 
ATOM     22  C   UNL     1       2.616  -2.510  -1.781  0.00  0.00    +0.036 C 
ATOM     23  C   UNL     1       4.782  -2.711  -3.009  0.00  0.00    +0.036 C 
ATOM     24  C   UNL     1       4.776  -2.352  -0.536  0.00  0.00    +0.036 C 
ENDBRANCH  20  21
ENDBRANCH   1  16
BRANCH   1  25
ATOM     25  N   UNL     1       3.119   1.050   1.019  0.00  0.00    -0.277 NA
BRANCH  25  26
ATOM     26  C   UNL     1       4.547   0.893   1.327  0.00  0.00    +0.122 C 
BRANCH  26  27
ATOM     27  C   UNL     1       4.872   1.641   2.595  0.00  0.00    -0.015 A 
ATOM     28  C   UNL     1       5.557   2.840   2.534  0.00  0.00    +0.006 A 
ATOM     29  C   UNL     1       5.852   3.527   3.696  0.00  0.00    +0.000 A 
ATOM     30  C   UNL     1       5.471   3.011   4.921  0.00  0.00    +0.001 A 
ATOM     31  C   UNL     1       4.790   1.810   4.984  0.00  0.00    +0.020 A 
ATOM     32  C   UNL     1       4.491   1.123   3.820  0.00  0.00    +0.045 A 
ATOM     33 CL   UNL     1       3.637  -0.386   3.897  0.00  0.00    -0.083 Cl
ENDBRANCH  26  27
ENDBRANCH  25  26
BRANCH  25  34
ATOM     34  C   UNL     1       2.813   2.434   0.631  0.00  0.00    +0.160 C 
BRANCH  34  35
ATOM     35  C   UNL     1       1.404   2.772   1.045  0.00  0.00    +0.119 A 
ATOM     36  C   UNL     1       1.017   3.164   2.272  0.00  0.00    +0.046 A 
ATOM     37  C   UNL     1      -0.380   3.373   2.213  0.00  0.00    +0.041 A 
ATOM     38  C   UNL     1      -0.763   3.096   0.954  0.00  0.00    +0.195 A 
ATOM     39  O   UNL     1       0.323   2.738   0.249  0.00  0.00    -0.467 OA
ENDBRANCH  34  35
ENDBRANCH  25  34
ENDBRANCH   1  25
TORSDOF 9
