REMARK  Name = ZINC28628918
REMARK  5 active torsions:
REMARK  status: ('A' for Active; 'I' for Inactive)
REMARK    1  A    between atoms: C_1  and  C_2
REMARK    2  A    between atoms: C_2  and  O_3
REMARK    3  A    between atoms: O_3  and  C_4
REMARK    4  A    between atoms: C_7  and  C_10
REMARK    5  A    between atoms: C_10  and  C_11
REMARK                            x       y       z     vdW  Elec       q    Type
REMARK                         _______ _______ _______ _____ _____    ______ ____
ROOT
ATOM      1  C   UNL     1       0.002  -0.004   0.002  0.00  0.00    +0.033 A 
ATOM      2  C   UNL     1       1.238  -0.653  -0.013  0.00  0.00    +0.126 A 
ATOM      3  N   UNL     1       2.349   0.076  -0.020  0.00  0.00    -0.200 NA
ATOM      4  C   UNL     1       2.289   1.399  -0.012  0.00  0.00    +0.216 A 
ATOM      5  N   UNL     1       1.131   2.043   0.002  0.00  0.00    -0.203 NA
ATOM      6  C   UNL     1      -0.017   1.379   0.010  0.00  0.00    +0.140 A 
ATOM      7 CL   UNL     1      -1.526   2.236   0.021  0.00  0.00    -0.061 Cl
ATOM      8  N   UNL     1       3.466   2.128  -0.020  0.00  0.00    -0.327 N 
ATOM      9  N   UNL     1       1.305  -2.037  -0.022  0.00  0.00    -0.343 N 
ATOM     10  H   UNL     1       3.432   3.228  -0.014  0.00  0.00    +0.145 HD
ATOM     11  H   UNL     1       4.435   1.608  -0.033  0.00  0.00    +0.145 HD
ATOM     12  H   UNL     1       2.283  -2.540  -0.034  0.00  0.00    +0.144 HD
ATOM     13  H   UNL     1       0.380  -2.632  -0.017  0.00  0.00    +0.144 HD
ENDROOT
BRANCH   1  14
ATOM     14  C   UNL     1      -1.282  -0.792   0.011  0.00  0.00    +0.076 C 
BRANCH  14  18
ATOM     15  C   UNL     1      -2.536  -1.516  -4.010  0.00  0.00    +0.121 A 
ATOM     16  C   UNL     1      -1.704  -2.421  -3.368  0.00  0.00    +0.046 A 
ATOM     17  C   UNL     1      -1.300  -2.186  -2.068  0.00  0.00    +0.007 A 
ATOM     18  C   UNL     1      -1.724  -1.048  -1.407  0.00  0.00    -0.043 A 
ATOM     19  C   UNL     1      -2.558  -0.146  -2.043  0.00  0.00    +0.007 A 
ATOM     20  C   UNL     1      -2.960  -0.375  -3.345  0.00  0.00    +0.046 A 
BRANCH  15  21
ATOM     21  O   UNL     1      -2.935  -1.746  -5.289  0.00  0.00    -0.492 OA
BRANCH  21  23
ATOM     22  C   UNL     1      -4.131  -1.198  -7.316  0.00  0.00    +0.048 C 
ATOM     23  C   UNL     1      -3.791  -0.770  -5.887  0.00  0.00    +0.225 C 
ENDBRANCH  21  23
ENDBRANCH  15  21
ENDBRANCH  14  18
ENDBRANCH   1  14
TORSDOF 4
