REMARK  Name = ZINC12937388
REMARK  15 active torsions:
REMARK  status: ('A' for Active; 'I' for Inactive)
REMARK    1  A    between atoms: C_1  and  C_2
REMARK    2  A    between atoms: C_2  and  C_3
REMARK    3  A    between atoms: C_3  and  N_4
REMARK    4  A    between atoms: C_5  and  N_38
REMARK    5  A    between atoms: C_6  and  N_13
REMARK    6  A    between atoms: N_13  and  C_14
REMARK    7  A    between atoms: C_14  and  C_15
REMARK    8  A    between atoms: C_15  and  O_16
REMARK    9  A    between atoms: O_16  and  C_17
REMARK   10  A    between atoms: C_18  and  C_20
REMARK   11  A    between atoms: C_23  and  N_26
REMARK   12  A    between atoms: N_26  and  C_27
REMARK   13  A    between atoms: N_26  and  S_28
REMARK   14  A    between atoms: S_28  and  C_31
REMARK   15  A    between atoms: C_34  and  C_37
REMARK                            x       y       z     vdW  Elec       q    Type
REMARK                         _______ _______ _______ _____ _____    ______ ____
ROOT
ATOM      1  N   UNL     1      -1.201  -4.673  -2.210  0.00  0.00    -0.258 N 
ATOM      2  C   UNL     1      -1.790  -4.182  -3.319  0.00  0.00    +0.251 C 
ATOM      3  O   UNL     1      -2.482  -3.184  -3.249  0.00  0.00    -0.270 OA
ENDROOT
BRANCH   1   6
ATOM      4  N   UNL     1      -0.159  -8.152  -1.650  0.00  0.00    -0.280 N 
ATOM      5  C   UNL     1      -0.890  -6.989  -1.568  0.00  0.00    +0.127 A 
ATOM      6  C   UNL     1      -0.472  -5.879  -2.273  0.00  0.00    +0.140 A 
ATOM      7  C   UNL     1       0.693  -5.971  -3.057  0.00  0.00    +0.277 A 
ATOM      8  O   UNL     1       1.085  -5.006  -3.690  0.00  0.00    -0.266 OA
ATOM      9  N   UNL     1       1.373  -7.134  -3.103  0.00  0.00    -0.273 N 
ATOM     10  H   UNL     1       2.176  -7.199  -3.643  0.00  0.00    +0.173 HD
ATOM     11  C   UNL     1       0.953  -8.204  -2.405  0.00  0.00    +0.331 A 
ATOM     12  O   UNL     1       1.589  -9.239  -2.461  0.00  0.00    -0.246 OA
BRANCH   5  13
ATOM     13  N   UNL     1      -2.024  -6.935  -0.793  0.00  0.00    -0.343 N 
ATOM     14  H   UNL     1      -2.335  -7.729  -0.331  0.00  0.00    +0.144 HD
ATOM     15  H   UNL     1      -2.514  -6.101  -0.708  0.00  0.00    +0.144 HD
ENDBRANCH   5  13
BRANCH   4  16
ATOM     16  C   UNL     1      -0.591  -9.338  -0.906  0.00  0.00    +0.128 C 
BRANCH  16  18
ATOM     17  C   UNL     1      -0.404 -10.566   1.261  0.00  0.00    +0.005 C 
ATOM     18  C   UNL     1       0.047  -9.328   0.484  0.00  0.00    +0.018 C 
ENDBRANCH  16  18
ENDBRANCH   4  16
ENDBRANCH   1   6
BRANCH   2  19
ATOM     19  C   UNL     1      -1.595  -4.856  -4.617  0.00  0.00    +0.037 A 
ATOM     20  C   UNL     1      -1.359  -6.233  -4.663  0.00  0.00    +0.015 A 
ATOM     21  C   UNL     1      -1.179  -6.858  -5.875  0.00  0.00    +0.025 A 
ATOM     22  C   UNL     1      -1.230  -6.121  -7.055  0.00  0.00    +0.051 A 
ATOM     23  C   UNL     1      -1.464  -4.749  -7.012  0.00  0.00    +0.025 A 
ATOM     24  C   UNL     1      -1.652  -4.119  -5.803  0.00  0.00    +0.015 A 
BRANCH  22  25
ATOM     25  N   UNL     1      -1.046  -6.756  -8.279  0.00  0.00    -0.206 N 
ATOM     26  C   UNL     1      -1.967  -7.814  -8.700  0.00  0.00    +0.157 C 
BRANCH  25  27
ATOM     27  S   UNL     1       0.213  -6.315  -9.260  0.00  0.00    +0.074 S 
ATOM     28  O   UNL     1      -0.218  -6.534 -10.596  0.00  0.00    -0.150 OA
ATOM     29  O   UNL     1       0.660  -5.046  -8.801  0.00  0.00    -0.150 OA
BRANCH  27  30
ATOM     30  C   UNL     1       1.527  -7.450  -8.962  0.00  0.00    +0.109 A 
ATOM     31  C   UNL     1       2.461  -7.183  -7.978  0.00  0.00    +0.029 A 
ATOM     32  C   UNL     1       3.493  -8.073  -7.745  0.00  0.00    +0.005 A 
ATOM     33  C   UNL     1       3.589  -9.231  -8.494  0.00  0.00    -0.050 A 
ATOM     34  C   UNL     1       2.655  -9.498  -9.477  0.00  0.00    +0.005 A 
ATOM     35  C   UNL     1       1.621  -8.610  -9.707  0.00  0.00    +0.029 A 
ATOM     36  C   UNL     1       4.714 -10.201  -8.240  0.00  0.00    +0.044 C 
ENDBRANCH  27  30
ENDBRANCH  25  27
ENDBRANCH  22  25
ENDBRANCH   2  19
BRANCH   1  37
ATOM     37  C   UNL     1      -1.317  -3.954  -0.939  0.00  0.00    +0.142 C 
BRANCH  37  38
ATOM     38  C   UNL     1      -0.149  -2.976  -0.797  0.00  0.00    +0.179 C 
BRANCH  38  39
ATOM     39  O   UNL     1      -0.242  -1.972  -1.810  0.00  0.00    -0.381 OA
ATOM     40  C   UNL     1       0.808  -1.004  -1.766  0.00  0.00    +0.194 C 
ENDBRANCH  38  39
ENDBRANCH  37  38
ENDBRANCH   1  37
TORSDOF 11
