REMARK  Name = ZINC39674628
REMARK  10 active torsions:
REMARK  status: ('A' for Active; 'I' for Inactive)
REMARK    1  A    between atoms: C_1  and  C_2
REMARK    2  A    between atoms: C_4  and  C_14
REMARK    3  A    between atoms: C_7  and  C_12
REMARK    4  A    between atoms: C_14  and  C_15
REMARK    5  A    between atoms: C_15  and  N_16
REMARK    6  A    between atoms: C_17  and  C_19
REMARK    7  A    between atoms: C_30  and  C_32
REMARK    8  A    between atoms: C_37  and  O_38
REMARK    9  A    between atoms: O_38  and  C_39
REMARK   10  A    between atoms: C_39  and  C_41
REMARK                            x       y       z     vdW  Elec       q    Type
REMARK                         _______ _______ _______ _____ _____    ______ ____
ROOT
ATOM      1  C   UNL     1      -7.323  -1.399  -2.757  0.00  0.00    +0.100 C 
ATOM      2  C   UNL     1      -7.606   0.115  -2.628  0.00  0.00    +0.121 C 
ATOM      3  N   UNL     1      -9.082   0.227  -2.689  0.00  0.00    -0.296 N 
ATOM      4  C   UNL     1      -9.572  -0.934  -1.908  0.00  0.00    +0.115 C 
ATOM      5  C   UNL     1      -8.616  -2.084  -2.283  0.00  0.00    -0.004 C 
ATOM      6  C   UNL     1      -8.335  -2.955  -1.063  0.00  0.00    -0.010 C 
ATOM      7  C   UNL     1      -9.622  -3.671  -0.645  0.00  0.00    -0.082 C 
ATOM      8  N   UNL     1     -10.109  -4.495  -1.759  0.00  0.00    +0.379 N 
ATOM      9  C   UNL     1     -10.465  -3.639  -2.897  0.00  0.00    -0.082 C 
ATOM     10  C   UNL     1      -9.213  -2.922  -3.409  0.00  0.00    -0.010 C 
ATOM     11  C   UNL     1      -9.814   1.171  -3.313  0.00  0.00    +0.250 C 
ATOM     12  O   UNL     1     -11.024   1.180  -3.193  0.00  0.00    -0.270 OA
ATOM     13  H   UNL     1      -9.386  -5.141  -2.038  0.00  0.00    -0.086 HD
ATOM     14  H   UNL     1     -10.923  -5.013  -1.462  0.00  0.00    -0.086 HD
ENDROOT
BRANCH  11  15
ATOM     15  C   UNL     1      -9.147   2.192  -4.143  0.00  0.00    +0.079 A 
ATOM     16  C   UNL     1      -7.894   2.688  -3.775  0.00  0.00    +0.017 A 
ATOM     17  C   UNL     1      -7.276   3.642  -4.555  0.00  0.00    +0.001 A 
ATOM     18  C   UNL     1      -7.892   4.112  -5.703  0.00  0.00    +0.004 A 
ATOM     19  C   UNL     1      -9.130   3.630  -6.078  0.00  0.00    +0.047 A 
ATOM     20  C   UNL     1      -9.764   2.667  -5.308  0.00  0.00    +0.144 A 
BRANCH  20  21
ATOM     21  O   UNL     1     -10.979   2.188  -5.679  0.00  0.00    -0.425 OA
BRANCH  21  22
ATOM     22  C   UNL     1     -11.016   1.077  -6.432  0.00  0.00    +0.309 C 
ATOM     23  O   UNL     1      -9.995   0.482  -6.682  0.00  0.00    -0.251 OA
ATOM     24  C   UNL     1     -12.332   0.571  -6.964  0.00  0.00    +0.136 C 
ENDBRANCH  21  22
ENDBRANCH  20  21
ENDBRANCH  11  15
BRANCH   1  26
ATOM     25  N   UNL     1      -5.449  -2.899  -2.160  0.00  0.00    -0.315 N 
ATOM     26  C   UNL     1      -6.166  -1.794  -1.876  0.00  0.00    +0.218 C 
ATOM     27  O   UNL     1      -5.880  -1.117  -0.912  0.00  0.00    -0.275 OA
ATOM     28  H   UNL     1      -5.678  -3.441  -2.932  0.00  0.00    +0.149 HD
BRANCH  25  29
ATOM     29  C   UNL     1      -4.325  -3.283  -1.304  0.00  0.00    +0.108 C 
BRANCH  29  30
ATOM     30  C   UNL     1      -3.687  -4.565  -1.844  0.00  0.00    +0.052 C 
BRANCH  30  33
ATOM     31  C   UNL     1      -0.893  -6.082  -2.474  0.00  0.00    +0.035 C 
ATOM     32  C   UNL     1      -1.626  -6.160  -1.133  0.00  0.00    +0.103 C 
ATOM     33  C   UNL     1      -2.530  -4.960  -0.963  0.00  0.00    -0.037 C 
ATOM     34  C   UNL     1      -2.088  -4.311   0.144  0.00  0.00    +0.000 A 
ATOM     35  C   UNL     1      -2.537  -3.130   0.792  0.00  0.00    +0.028 A 
ATOM     36  C   UNL     1      -1.898  -2.678   1.923  0.00  0.00    +0.052 A 
ATOM     37  C   UNL     1      -0.755  -3.390   2.483  0.00  0.00    +0.021 A 
ATOM     38  C   UNL     1      -0.285  -4.518   1.911  0.00  0.00    +0.027 A 
ATOM     39  C   UNL     1      -0.930  -5.043   0.702  0.00  0.00    +0.043 A 
ATOM     40  N   UNL     1      -0.664  -6.101  -0.027  0.00  0.00    -0.378 N 
ATOM     41  H   UNL     1       0.048  -6.738   0.137  0.00  0.00    +0.160 HD
BRANCH  36  42
ATOM     42  C   UNL     1      -2.364  -1.485   2.564  0.00  0.00    +0.099 C 
ATOM     43  N   UNL     1      -2.734  -0.538   3.072  0.00  0.00    -0.191 NA
ENDBRANCH  36  42
ENDBRANCH  30  33
ENDBRANCH  29  30
ENDBRANCH  25  29
ENDBRANCH   1  26
TORSDOF 8
