REMARK  Name = ZINC39602395
REMARK  7 active torsions:
REMARK  status: ('A' for Active; 'I' for Inactive)
REMARK    1  A    between atoms: C_4  and  C_7
REMARK    2  A    between atoms: C_7  and  C_8
REMARK    3  A    between atoms: C_8  and  C_9
REMARK    4  A    between atoms: C_9  and  C_10
REMARK    5  A    between atoms: C_14  and  C_23
REMARK    6  A    between atoms: N_25  and  C_26
REMARK    7  A    between atoms: C_29  and  C_31
REMARK                            x       y       z     vdW  Elec       q    Type
REMARK                         _______ _______ _______ _____ _____    ______ ____
ROOT
ATOM      1  C   UNL     1       5.931  -2.076   2.502  0.00  0.00    +0.216 C 
ATOM      2  O   UNL     1       5.173  -1.691   3.365  0.00  0.00    -0.276 OA
ATOM      3  N   UNL     1       7.089  -2.678   2.841  0.00  0.00    -0.300 N 
ATOM      4  C   UNL     1       8.138  -3.205   1.936  0.00  0.00    +0.121 C 
ATOM      5  C   UNL     1       9.470  -2.836   2.626  0.00  0.00    +0.100 C 
ATOM      6  C   UNL     1       9.112  -2.679   4.113  0.00  0.00    -0.004 C 
ATOM      7  C   UNL     1       7.604  -2.956   4.203  0.00  0.00    +0.115 C 
ATOM      8  C   UNL     1       9.886  -3.690   4.952  0.00  0.00    -0.010 C 
ATOM      9  C   UNL     1       9.557  -3.477   6.433  0.00  0.00    -0.082 C 
ATOM     10  N   UNL     1       9.917  -2.108   6.823  0.00  0.00    +0.379 N 
ATOM     11  C   UNL     1       9.101  -1.143   6.077  0.00  0.00    -0.082 C 
ATOM     12  C   UNL     1       9.411  -1.258   4.582  0.00  0.00    -0.010 C 
ATOM     13  H   UNL     1       9.757  -1.989   7.812  0.00  0.00    -0.086 HD
ATOM     14  H   UNL     1      10.893  -1.948   6.622  0.00  0.00    -0.086 HD
ENDROOT
BRANCH   5  15
ATOM     15  C   UNL     1      10.005  -1.540   2.073  0.00  0.00    +0.218 C 
ATOM     16  O   UNL     1       9.240  -0.693   1.663  0.00  0.00    -0.275 OA
ATOM     17  N   UNL     1      11.335  -1.322   2.035  0.00  0.00    -0.312 N 
ATOM     18  H   UNL     1      11.947  -1.999   2.363  0.00  0.00    +0.149 HD
BRANCH  17  19
ATOM     19  C   UNL     1      11.855  -0.062   1.498  0.00  0.00    +0.081 C 
ATOM     20  C   UNL     1      12.984   0.623   2.271  0.00  0.00    +0.033 C 
ATOM     21  C   UNL     1      13.279  -0.067   0.937  0.00  0.00    +0.041 C 
BRANCH  21  22
ATOM     22  C   UNL     1      13.561   0.812  -0.254  0.00  0.00    -0.042 A 
ATOM     23  C   UNL     1      13.380   2.179  -0.162  0.00  0.00    +0.004 A 
ATOM     24  C   UNL     1      13.638   2.986  -1.254  0.00  0.00    +0.000 A 
ATOM     25  C   UNL     1      14.079   2.425  -2.439  0.00  0.00    +0.000 A 
ATOM     26  C   UNL     1      14.261   1.058  -2.530  0.00  0.00    +0.000 A 
ATOM     27  C   UNL     1      14.007   0.252  -1.437  0.00  0.00    +0.004 A 
ENDBRANCH  21  22
ENDBRANCH  17  19
ENDBRANCH   5  15
BRANCH   1  28
ATOM     28  C   UNL     1       5.580  -1.882   1.049  0.00  0.00    +0.096 C 
BRANCH  28  29
ATOM     29  C   UNL     1       4.225  -1.181   0.941  0.00  0.00    +0.014 C 
BRANCH  29  30
ATOM     30  C   UNL     1       3.869  -0.984  -0.534  0.00  0.00    +0.035 C 
BRANCH  30  34
ATOM     31  C   UNL     1       0.085   0.976  -0.837  0.00  0.00    +0.000 A 
ATOM     32  C   UNL     1       1.247   1.722  -0.778  0.00  0.00    +0.000 A 
ATOM     33  C   UNL     1       2.471   1.088  -0.679  0.00  0.00    +0.003 A 
ATOM     34  C   UNL     1       2.534  -0.292  -0.640  0.00  0.00    -0.047 A 
ATOM     35  C   UNL     1       1.371  -1.039  -0.698  0.00  0.00    +0.003 A 
ATOM     36  C   UNL     1       0.147  -0.405  -0.798  0.00  0.00    +0.000 A 
ENDBRANCH  30  34
ENDBRANCH  29  30
ENDBRANCH  28  29
ENDBRANCH   1  28
TORSDOF 7
