REMARK  Name = ZINC09125091
REMARK  6 active torsions:
REMARK  status: ('A' for Active; 'I' for Inactive)
REMARK    1  A    between atoms: C_1  and  C_2
REMARK    2  A    between atoms: C_5  and  C_8
REMARK    3  A    between atoms: C_8  and  C_10
REMARK    4  A    between atoms: C_8  and  N_15
REMARK    5  A    between atoms: C_16  and  C_18
REMARK    6  A    between atoms: C_18  and  N_19
REMARK                            x       y       z     vdW  Elec       q    Type
REMARK                         _______ _______ _______ _____ _____    ______ ____
ROOT
ATOM      1  C   UNL     1      -2.482   1.524   0.020  0.00  0.00    +0.213 C 
ENDROOT
BRANCH   1   2
ATOM      2  N   UNL     1      -1.099   2.010   0.017  0.00  0.00    -0.215 N 
ATOM      3  C   UNL     1      -0.014   1.208   0.009  0.00  0.00    +0.251 C 
ATOM      4  O   UNL     1       0.002  -0.004   0.002  0.00  0.00    -0.272 OA
ATOM      5  C   UNL     1       1.177   2.139   0.002  0.00  0.00    +0.138 C 
ATOM      6  C   UNL     1       2.000   1.937  -1.264  0.00  0.00    +0.040 C 
ATOM      7  C   UNL     1       2.752   0.606  -1.147  0.00  0.00    +0.008 C 
ATOM      8  C   UNL     1       3.823   0.749  -0.067  0.00  0.00    +0.035 C 
ATOM      9  C   UNL     1       3.224   1.285   1.207  0.00  0.00    -0.042 A 
ATOM     10  C   UNL     1       2.007   1.929   1.238  0.00  0.00    -0.012 A 
ATOM     11  C   UNL     1       1.513   2.407   2.444  0.00  0.00    +0.006 A 
ATOM     12  C   UNL     1       2.229   2.239   3.611  0.00  0.00    +0.000 A 
ATOM     13  C   UNL     1       3.449   1.589   3.581  0.00  0.00    +0.000 A 
ATOM     14  C   UNL     1       3.943   1.115   2.383  0.00  0.00    +0.004 A 
ATOM     15  N   UNL     1       0.578   3.481   0.014  0.00  0.00    -0.281 N 
ATOM     16  C   UNL     1      -0.756   3.303   0.026  0.00  0.00    +0.310 C 
ATOM     17  O   UNL     1      -1.560   4.215   0.038  0.00  0.00    -0.252 OA
ATOM     18  H   UNL     1       1.051   4.328   0.014  0.00  0.00    +0.152 HD
ENDBRANCH   1   2
BRANCH   1  20
ATOM     19  N   UNL     1      -4.199   0.909   1.691  0.00  0.00    -0.303 N 
ATOM     20  C   UNL     1      -2.950   1.350   1.442  0.00  0.00    +0.232 C 
ATOM     21  O   UNL     1      -2.202   1.606   2.362  0.00  0.00    -0.274 OA
ATOM     22  H   UNL     1      -4.797   0.705   0.955  0.00  0.00    +0.150 HD
BRANCH  19  23
ATOM     23  C   UNL     1      -4.654   0.740   3.073  0.00  0.00    +0.140 C 
BRANCH  23  28
ATOM     24  C   UNL     1      -8.888  -3.189   3.239  0.00  0.00    +0.044 C 
ATOM     25  C   UNL     1      -7.784  -2.164   3.196  0.00  0.00    -0.050 A 
ATOM     26  C   UNL     1      -6.821  -2.143   4.188  0.00  0.00    +0.004 A 
ATOM     27  C   UNL     1      -5.809  -1.203   4.148  0.00  0.00    +0.006 A 
ATOM     28  C   UNL     1      -5.758  -0.284   3.117  0.00  0.00    -0.022 A 
ATOM     29  C   UNL     1      -6.724  -0.302   2.128  0.00  0.00    +0.006 A 
ATOM     30  C   UNL     1      -7.735  -1.244   2.165  0.00  0.00    +0.004 A 
ENDBRANCH  23  28
BRANCH  23  31
ATOM     31  C   UNL     1      -5.169   2.056   3.597  0.00  0.00    +0.014 A 
ATOM     32  C   UNL     1      -5.009   2.607   4.825  0.00  0.00    +0.013 A 
ATOM     33  C   UNL     1      -5.576   3.840   5.086  0.00  0.00    +0.008 A 
ATOM     34  C   UNL     1      -6.276   4.462   4.106  0.00  0.00    +0.045 A 
ATOM     35  S   UNL     1      -6.141   3.297   2.760  0.00  0.00    -0.099 S 
ENDBRANCH  23  31
ENDBRANCH  19  23
ENDBRANCH   1  20
TORSDOF 5
