REMARK  Name = ZINC40824455
REMARK  10 active torsions:
REMARK  status: ('A' for Active; 'I' for Inactive)
REMARK    1  A    between atoms: C_1  and  C_2
REMARK    2  A    between atoms: C_6  and  C_7
REMARK    3  A    between atoms: N_9  and  C_10
REMARK    4  A    between atoms: N_9  and  C_11
REMARK    5  A    between atoms: C_16  and  C_17
REMARK    6  A    between atoms: C_17  and  O_19
REMARK    7  A    between atoms: O_19  and  C_20
REMARK    8  A    between atoms: N_25  and  N_26
REMARK    9  A    between atoms: N_26  and  C_27
REMARK   10  A    between atoms: C_27  and  N_29
REMARK                            x       y       z     vdW  Elec       q    Type
REMARK                         _______ _______ _______ _____ _____    ______ ____
ROOT
ATOM      1  C   UNL     1      -0.052   1.501   0.010  0.00  0.00    +0.048 C 
ATOM      2  C   UNL     1      -0.012  -0.005   0.002  0.00  0.00    +0.009 A 
ATOM      3  C   UNL     1       0.002  -0.839  -1.122  0.00  0.00    +0.042 A 
ATOM      4  C   UNL     1       0.038  -2.138  -0.672  0.00  0.00    +0.115 A 
ATOM      5  O   UNL     1       0.049  -2.112   0.658  0.00  0.00    -0.454 OA
ATOM      6  C   UNL     1       0.023  -0.831   1.091  0.00  0.00    +0.193 A 
ATOM      7  C   UNL     1       0.057  -3.327  -1.599  0.00  0.00    +0.075 C 
ATOM      8  C   UNL     1      -0.476  -2.910  -2.973  0.00  0.00    +0.014 C 
ATOM      9  C   UNL     1       0.278  -1.683  -3.495  0.00  0.00    +0.058 C 
ATOM     10  C   UNL     1      -0.013  -0.513  -2.566  0.00  0.00    +0.070 C 
ATOM     11  N   UNL     1      -0.257   0.682  -3.007  0.00  0.00    -0.185 NA
ENDROOT
BRANCH   6  12
ATOM     12  C   UNL     1       0.029  -0.400   2.493  0.00  0.00    +0.286 C 
ATOM     13  O   UNL     1       0.103   0.784   2.765  0.00  0.00    -0.266 OA
ATOM     14  N   UNL     1      -0.048  -1.315   3.480  0.00  0.00    -0.267 N 
ATOM     15  C   UNL     1      -0.151  -0.881   4.875  0.00  0.00    +0.139 C 
BRANCH  14  16
ATOM     16  C   UNL     1      -0.029  -2.672   3.173  0.00  0.00    +0.050 A 
ATOM     17  C   UNL     1       1.177  -3.358   3.114  0.00  0.00    +0.024 A 
ATOM     18  C   UNL     1       1.193  -4.704   2.810  0.00  0.00    +0.002 A 
ATOM     19  C   UNL     1       0.010  -5.381   2.561  0.00  0.00    +0.001 A 
ATOM     20  C   UNL     1      -1.196  -4.718   2.614  0.00  0.00    +0.017 A 
ATOM     21  C   UNL     1      -1.230  -3.356   2.927  0.00  0.00    +0.080 A 
BRANCH  21  22
ATOM     22  C   UNL     1      -2.517  -2.642   2.992  0.00  0.00    +0.341 C 
ATOM     23  O   UNL     1      -2.541  -1.457   3.259  0.00  0.00    -0.245 OA
BRANCH  22  24
ATOM     24  O   UNL     1      -3.667  -3.303   2.755  0.00  0.00    -0.464 OA
ATOM     25  C   UNL     1      -4.878  -2.548   2.835  0.00  0.00    +0.280 C 
ENDBRANCH  22  24
ENDBRANCH  21  22
ENDBRANCH  14  16
ENDBRANCH   6  12
BRANCH  11  26
ATOM     26  N   UNL     1      -0.259   0.933  -4.386  0.00  0.00    -0.218 N 
ATOM     27  H   UNL     1      -0.077   0.213  -5.010  0.00  0.00    +0.176 HD
BRANCH  26  28
ATOM     28  C   UNL     1      -0.512   2.175  -4.844  0.00  0.00    +0.147 C 
ATOM     29  S   UNL     1      -0.514   2.482  -6.528  0.00  0.00    -0.017 S 
BRANCH  28  30
ATOM     30  N   UNL     1      -0.765   3.175  -3.976  0.00  0.00    -0.339 N 
ATOM     31  H   UNL     1      -0.763   3.001  -3.022  0.00  0.00    +0.144 HD
ATOM     32  H   UNL     1      -0.947   4.069  -4.306  0.00  0.00    +0.144 HD
ENDBRANCH  28  30
ENDBRANCH  26  28
ENDBRANCH  11  26
TORSDOF 7
