REMARK  Name = ZINC43619990
REMARK  7 active torsions:
REMARK  status: ('A' for Active; 'I' for Inactive)
REMARK    1  A    between atoms: C_1  and  C_2
REMARK    2  A    between atoms: C_4  and  C_34
REMARK    3  A    between atoms: N_5  and  C_7
REMARK    4  A    between atoms: C_7  and  C_8
REMARK    5  A    between atoms: C_8  and  C_9
REMARK    6  A    between atoms: N_23  and  C_24
REMARK    7  A    between atoms: C_24  and  C_25
REMARK                            x       y       z     vdW  Elec       q    Type
REMARK                         _______ _______ _______ _____ _____    ______ ____
ROOT
ATOM      1  C   UNL     1       1.803  -5.015   1.802  0.00  0.00    +0.217 C 
ATOM      2  O   UNL     1       0.715  -5.499   2.027  0.00  0.00    -0.276 OA
ATOM      3  N   UNL     1       2.901  -5.513   2.405  0.00  0.00    -0.301 N 
ATOM      4  C   UNL     1       4.227  -4.934   2.149  0.00  0.00    +0.109 C 
ATOM      5  C   UNL     1       5.163  -6.055   1.684  0.00  0.00    +0.042 C 
ATOM      6  C   UNL     1       5.157  -7.189   2.703  0.00  0.00    +0.082 C 
ATOM      7  C   UNL     1       3.751  -7.757   2.878  0.00  0.00    +0.027 C 
ATOM      8  C   UNL     1       2.797  -6.642   3.338  0.00  0.00    +0.113 C 
ATOM      9  C   UNL     1       3.805  -8.828   3.980  0.00  0.00    +0.016 C 
ATOM     10  C   UNL     1       4.093  -8.129   5.311  0.00  0.00    +0.096 C 
ATOM     11  C   UNL     1       5.249  -7.184   5.160  0.00  0.00    +0.216 C 
ATOM     12  O   UNL     1       5.805  -6.792   6.165  0.00  0.00    -0.276 OA
ATOM     13  N   UNL     1       5.684  -6.747   3.984  0.00  0.00    -0.294 N 
ENDROOT
BRANCH   1  14
ATOM     14  C   UNL     1       1.929  -3.855   0.847  0.00  0.00    +0.119 C 
BRANCH  14  15
ATOM     15  C   UNL     1       0.546  -3.488   0.306  0.00  0.00    +0.153 C 
BRANCH  15  20
ATOM     16  C   UNL     1       0.737   1.203  -1.470  0.00  0.00    +0.067 C 
ATOM     17  C   UNL     1       0.748  -0.301  -1.377  0.00  0.00    +0.060 A 
ATOM     18  C   UNL     1       0.927  -1.187  -2.444  0.00  0.00    +0.047 A 
ATOM     19  C   UNL     1       0.874  -2.447  -1.953  0.00  0.00    +0.036 A 
ATOM     20  N   UNL     1       0.669  -2.361  -0.622  0.00  0.00    -0.268 N 
ATOM     21  N   UNL     1       0.598  -1.003  -0.283  0.00  0.00    -0.176 NA
ATOM     22  C   UNL     1       1.018  -3.718  -2.749  0.00  0.00    +0.065 C 
ENDBRANCH  15  20
ENDBRANCH  14  15
ENDBRANCH   1  14
BRANCH  13  23
ATOM     23  C   UNL     1       6.776  -5.769   3.984  0.00  0.00    +0.143 C 
BRANCH  23  24
ATOM     24  C   UNL     1       8.092  -6.487   3.829  0.00  0.00    -0.026 A 
ATOM     25  C   UNL     1       8.774  -6.927   4.948  0.00  0.00    +0.009 A 
ATOM     26  C   UNL     1       9.981  -7.586   4.810  0.00  0.00    +0.050 A 
ATOM     27  C   UNL     1      10.511  -7.806   3.549  0.00  0.00    +0.166 A 
ATOM     28  C   UNL     1       9.825  -7.362   2.422  0.00  0.00    +0.167 A 
ATOM     29  C   UNL     1       8.612  -6.707   2.567  0.00  0.00    +0.054 A 
ATOM     30  O   UNL     1      10.546  -7.696   1.312  0.00  0.00    -0.453 OA
ATOM     31  C   UNL     1      11.873  -7.984   1.789  0.00  0.00    +0.466 C 
ATOM     32  O   UNL     1      11.663  -8.417   3.146  0.00  0.00    -0.453 OA
ENDBRANCH  23  24
ENDBRANCH  13  23
TORSDOF 5
