REMARK  Name = ZINC02432456
REMARK  8 active torsions:
REMARK  status: ('A' for Active; 'I' for Inactive)
REMARK    1  A    between atoms: C_1  and  O_2
REMARK    2  A    between atoms: O_2  and  C_3
REMARK    3  A    between atoms: C_8  and  C_13
REMARK    4  A    between atoms: N_15  and  N_16
REMARK    5  A    between atoms: C_17  and  C_18
REMARK    6  A    between atoms: C_21  and  O_24
REMARK    7  A    between atoms: O_24  and  C_25
REMARK    8  A    between atoms: C_25  and  C_26
REMARK                            x       y       z     vdW  Elec       q    Type
REMARK                         _______ _______ _______ _____ _____    ______ ____
ROOT
ATOM      1  C   UNL     1       0.002  -0.004   0.002  0.00  0.00    +0.280 C 
ATOM      2  O   UNL     1      -1.044  -0.627   0.009  0.00  0.00    -0.267 OA
ATOM      3  N   UNL     1      -0.016   1.344   0.009  0.00  0.00    -0.202 N 
ATOM      4  H   UNL     1       0.817   1.840   0.004  0.00  0.00    +0.178 HD
ENDROOT
BRANCH   1  10
ATOM      5  C   UNL     1       5.588  -2.281  -0.063  0.00  0.00    +0.122 A 
ATOM      6  C   UNL     1       4.917  -3.504  -0.064  0.00  0.00    +0.046 A 
ATOM      7  C   UNL     1       3.555  -3.548  -0.051  0.00  0.00    +0.013 A 
ATOM      8  C   UNL     1       2.817  -2.356  -0.038  0.00  0.00    +0.001 A 
ATOM      9  C   UNL     1       1.431  -2.073  -0.023  0.00  0.00    +0.041 A 
ATOM     10  C   UNL     1       1.284  -0.721  -0.014  0.00  0.00    +0.104 A 
ATOM     11  N   UNL     1       2.534  -0.129  -0.028  0.00  0.00    -0.350 N 
ATOM     12  H   UNL     1       2.707   0.825  -0.029  0.00  0.00    +0.166 HD
ATOM     13  C   UNL     1       3.490  -1.117  -0.037  0.00  0.00    +0.050 A 
ATOM     14  C   UNL     1       4.881  -1.094  -0.049  0.00  0.00    +0.071 A 
BRANCH   5  16
ATOM     15  C   UNL     1       7.617  -3.519  -0.089  0.00  0.00    +0.277 C 
ATOM     16  O   UNL     1       6.946  -2.257  -0.076  0.00  0.00    -0.495 OA
ENDBRANCH   5  16
ENDBRANCH   1  10
BRANCH   3  17
ATOM     17  N   UNL     1      -1.239   2.027   0.019  0.00  0.00    -0.187 NA
ATOM     18  C   UNL     1      -1.256   3.325   0.026  0.00  0.00    +0.138 C 
BRANCH  18  19
ATOM     19  C   UNL     1      -2.543   4.045   0.036  0.00  0.00    -0.005 A 
ATOM     20  C   UNL     1      -3.745   3.332   0.032  0.00  0.00    +0.013 A 
ATOM     21  C   UNL     1      -4.945   4.009   0.046  0.00  0.00    +0.046 A 
ATOM     22  C   UNL     1      -4.962   5.398   0.055  0.00  0.00    +0.121 A 
ATOM     23  C   UNL     1      -3.769   6.111   0.053  0.00  0.00    +0.046 A 
ATOM     24  C   UNL     1      -2.564   5.442   0.044  0.00  0.00    +0.013 A 
BRANCH  22  25
ATOM     25  O   UNL     1      -6.147   6.061   0.063  0.00  0.00    -0.488 OA
BRANCH  25  26
ATOM     26  C   UNL     1      -7.335   5.267   0.064  0.00  0.00    +0.256 C 
BRANCH  26  27
ATOM     27  C   UNL     1      -8.542   6.168   0.074  0.00  0.00    +0.006 C 
ATOM     28  C   UNL     1      -9.551   5.922  -0.725  0.00  0.00    +0.007 C 
ENDBRANCH  26  27
ENDBRANCH  25  26
ENDBRANCH  22  25
ENDBRANCH  18  19
ENDBRANCH   3  17
TORSDOF 7
