REMARK  Name = ZINC30998884
REMARK  10 active torsions:
REMARK  status: ('A' for Active; 'I' for Inactive)
REMARK    1  A    between atoms: C_1  and  C_2
REMARK    2  A    between atoms: C_2  and  C_4
REMARK    3  A    between atoms: C_2  and  N_7
REMARK    4  A    between atoms: C_4  and  O_5
REMARK    5  A    between atoms: O_5  and  C_6
REMARK    6  A    between atoms: N_7  and  S_8
REMARK    7  A    between atoms: S_8  and  C_11
REMARK    8  A    between atoms: C_14  and  N_17
REMARK    9  A    between atoms: C_18  and  C_20
REMARK   10  A    between atoms: C_20  and  C_21
REMARK                            x       y       z     vdW  Elec       q    Type
REMARK                         _______ _______ _______ _____ _____    ______ ____
ROOT
ATOM      1  N   UNL     1       2.468  -1.752   5.102  0.00  0.00    -0.285 N 
ATOM      2  C   UNL     1       1.737  -2.436   6.004  0.00  0.00    +0.222 C 
ATOM      3  O   UNL     1       0.604  -2.774   5.736  0.00  0.00    -0.275 OA
ATOM      4  H   UNL     1       3.523  -1.521   5.310  0.00  0.00    +0.155 HD
ENDROOT
BRANCH   1   8
ATOM      5  C   UNL     1       0.730  -0.509   1.525  0.00  0.00    +0.105 A 
ATOM      6  C   UNL     1       2.065  -0.870   1.555  0.00  0.00    +0.030 A 
ATOM      7  C   UNL     1       2.645  -1.278   2.740  0.00  0.00    +0.025 A 
ATOM      8  C   UNL     1       1.884  -1.335   3.901  0.00  0.00    +0.034 A 
ATOM      9  C   UNL     1       0.543  -0.976   3.866  0.00  0.00    +0.025 A 
ATOM     10  C   UNL     1      -0.030  -0.565   2.679  0.00  0.00    +0.030 A 
BRANCH   5  11
ATOM     11  S   UNL     1      -0.004   0.017   0.013  0.00  0.00    +0.059 S 
ATOM     12  O   UNL     1      -1.399  -0.227   0.132  0.00  0.00    -0.153 OA
ATOM     13  O   UNL     1       0.779  -0.538  -1.034  0.00  0.00    -0.153 OA
BRANCH  11  14
ATOM     14  N   UNL     1       0.182   1.660  -0.077  0.00  0.00    -0.185 NA
ATOM     15  H   UNL     1      -0.686   2.310   0.107  0.00  0.00    +0.148 HD
BRANCH  14  17
ATOM     16  C   UNL     1       1.857   2.489  -1.655  0.00  0.00    +0.028 C 
ATOM     17  C   UNL     1       1.523   2.240  -0.183  0.00  0.00    +0.099 C 
BRANCH  17  18
ATOM     18  C   UNL     1       1.567   3.566   0.581  0.00  0.00    +0.179 C 
BRANCH  18  19
ATOM     19  O   UNL     1       0.697   4.508  -0.050  0.00  0.00    -0.381 OA
ATOM     20  C   UNL     1       0.663   5.786   0.588  0.00  0.00    +0.194 C 
ENDBRANCH  18  19
ENDBRANCH  17  18
ENDBRANCH  14  17
ENDBRANCH  11  14
ENDBRANCH   5  11
ENDBRANCH   1   8
BRANCH   2  21
ATOM     21  C   UNL     1       2.329  -2.782   7.346  0.00  0.00    +0.135 C 
BRANCH  21  22
ATOM     22  C   UNL     1       1.315  -3.542   8.161  0.00  0.00    +0.007 A 
ATOM     23  C   UNL     1       0.467  -3.036   9.072  0.00  0.00    +0.200 A 
ATOM     24  O   UNL     1      -0.288  -4.019   9.591  0.00  0.00    -0.463 OA
ATOM     25  C   UNL     1       0.037  -5.211   9.051  0.00  0.00    +0.136 A 
ATOM     26  C   UNL     1       1.058  -4.981   8.124  0.00  0.00    +0.031 A 
ATOM     27  C   UNL     1       1.613  -6.104   7.379  0.00  0.00    -0.007 A 
ATOM     28  C   UNL     1       2.635  -5.935   6.440  0.00  0.00    +0.009 A 
ATOM     29  C   UNL     1       3.121  -7.018   5.767  0.00  0.00    +0.001 A 
ATOM     30  C   UNL     1       2.612  -8.292   6.003  0.00  0.00    +0.001 A 
ATOM     31  C   UNL     1       1.616  -8.491   6.911  0.00  0.00    +0.008 A 
ATOM     32  C   UNL     1       1.093  -7.399   7.621  0.00  0.00    -0.017 A 
ATOM     33  C   UNL     1       0.063  -7.568   8.567  0.00  0.00    +0.012 A 
ATOM     34  C   UNL     1      -0.440  -6.511   9.251  0.00  0.00    +0.047 A 
ENDBRANCH  21  22
ENDBRANCH   2  21
TORSDOF 8
