REMARK  Name = ZINC31833845
REMARK  6 active torsions:
REMARK  status: ('A' for Active; 'I' for Inactive)
REMARK    1  A    between atoms: C_1  and  C_2
REMARK    2  A    between atoms: C_2  and  O_3
REMARK    3  A    between atoms: O_3  and  C_4
REMARK    4  A    between atoms: C_6  and  C_12
REMARK    5  A    between atoms: C_9  and  O_10
REMARK    6  A    between atoms: N_13  and  N_14
REMARK                            x       y       z     vdW  Elec       q    Type
REMARK                         _______ _______ _______ _____ _____    ______ ____
ROOT
ATOM      1  C   UNL     1       1.306  -1.829   0.941  0.00  0.00    +0.163 A 
ATOM      2  C   UNL     1       0.426  -2.688   0.308  0.00  0.00    +0.059 A 
ATOM      3  C   UNL     1       0.760  -4.035   0.154  0.00  0.00    -0.001 A 
ATOM      4  C   UNL     1       1.982  -4.509   0.640  0.00  0.00    +0.028 A 
ATOM      5  C   UNL     1       2.854  -3.646   1.270  0.00  0.00    +0.063 A 
ATOM      6  C   UNL     1       2.524  -2.306   1.419  0.00  0.00    +0.173 A 
ATOM      7 BR   UNL     1       4.506  -4.289   1.928  0.00  0.00    -0.046 Br
ENDROOT
BRANCH   6   8
ATOM      8  O   UNL     1       3.389  -1.459   2.036  0.00  0.00    -0.503 OA
ATOM      9  H   UNL     1       3.263  -1.396   2.993  0.00  0.00    +0.292 HD
ENDBRANCH   6   8
BRANCH   3  10
ATOM     10  C   UNL     1      -0.174  -4.956  -0.520  0.00  0.00    +0.140 C 
ATOM     11  N   UNL     1      -0.011  -6.239  -0.414  0.00  0.00    -0.180 NA
BRANCH  11  12
ATOM     12  N   UNL     1       0.651  -6.771   0.701  0.00  0.00    -0.258 N 
ATOM     13  C   UNL     1       0.942  -8.106   0.750  0.00  0.00    +0.156 C 
ATOM     14  N   UNL     1       1.587  -8.626   1.838  0.00  0.00    -0.338 N 
ATOM     15  S   UNL     1       0.511  -9.097  -0.511  0.00  0.00    -0.015 SA
ATOM     16  H   UNL     1       1.838  -8.047   2.575  0.00  0.00    +0.144 HD
ATOM     17  H   UNL     1       1.793  -9.573   1.873  0.00  0.00    +0.144 HD
ATOM     18  H   UNL     1       0.902  -6.192   1.437  0.00  0.00    +0.191 HD
ENDBRANCH  11  12
ENDBRANCH   3  10
BRANCH   1  19
ATOM     19  O   UNL     1       0.983  -0.516   1.093  0.00  0.00    -0.489 OA
BRANCH  19  21
ATOM     20  C   UNL     1      -0.466   1.401   0.840  0.00  0.00    +0.048 C 
ATOM     21  C   UNL     1      -0.282  -0.095   0.579  0.00  0.00    +0.226 C 
ENDBRANCH  19  21
ENDBRANCH   1  19
TORSDOF 5
