REMARK  Name = ZINC03311584
REMARK  8 active torsions:
REMARK  status: ('A' for Active; 'I' for Inactive)
REMARK    1  A    between atoms: C_1  and  C_2
REMARK    2  A    between atoms: C_2  and  C_3
REMARK    3  A    between atoms: C_3  and  C_4
REMARK    4  A    between atoms: C_10  and  S_12
REMARK    5  A    between atoms: S_12  and  C_13
REMARK    6  A    between atoms: C_25  and  N_27
REMARK    7  A    between atoms: N_27  and  S_28
REMARK    8  A    between atoms: S_28  and  C_31
REMARK                            x       y       z     vdW  Elec       q    Type
REMARK                         _______ _______ _______ _____ _____    ______ ____
ROOT
ATOM      1  C   UNL     1      -2.253   5.868   0.007  0.00  0.00    +0.108 C 
ATOM      2  C   UNL     1      -1.716   6.234  -1.355  0.00  0.00    -0.024 A 
ATOM      3  C   UNL     1      -0.659   5.823  -2.108  0.00  0.00    +0.005 A 
ATOM      4  C   UNL     1      -0.432   6.379  -3.369  0.00  0.00    +0.001 A 
ATOM      5  C   UNL     1      -1.242   7.343  -3.898  0.00  0.00    +0.008 A 
ATOM      6  C   UNL     1      -2.341   7.790  -3.147  0.00  0.00    -0.017 A 
ATOM      7  C   UNL     1      -2.549   7.215  -1.881  0.00  0.00    -0.009 A 
ATOM      8  C   UNL     1      -3.606   7.582  -1.053  0.00  0.00    -0.019 A 
ATOM      9  C   UNL     1      -4.465   8.538  -1.500  0.00  0.00    +0.006 A 
ATOM     10  C   UNL     1      -4.278   9.124  -2.755  0.00  0.00    +0.001 A 
ATOM     11  C   UNL     1      -3.247   8.774  -3.578  0.00  0.00    +0.008 A 
ATOM     12  C   UNL     1      -3.499   6.757   0.209  0.00  0.00    +0.125 C 
ENDROOT
BRANCH  12  13
ATOM     13  N   UNL     1      -4.694   5.925   0.375  0.00  0.00    -0.181 NA
ATOM     14  H   UNL     1      -4.776   5.091  -0.113  0.00  0.00    +0.149 HD
BRANCH  13  15
ATOM     15  S   UNL     1      -5.904   6.410   1.397  0.00  0.00    +0.059 S 
ATOM     16  O   UNL     1      -6.921   5.420   1.320  0.00  0.00    -0.153 OA
ATOM     17  O   UNL     1      -5.282   6.769   2.622  0.00  0.00    -0.153 OA
BRANCH  15  18
ATOM     18  C   UNL     1      -6.590   7.888   0.728  0.00  0.00    +0.105 A 
ATOM     19  C   UNL     1      -6.075   9.117   1.095  0.00  0.00    +0.030 A 
ATOM     20  C   UNL     1      -6.609  10.277   0.566  0.00  0.00    +0.022 A 
ATOM     21  C   UNL     1      -7.667  10.209  -0.323  0.00  0.00    +0.041 A 
ATOM     22  C   UNL     1      -8.186   8.979  -0.686  0.00  0.00    +0.022 A 
ATOM     23  C   UNL     1      -7.647   7.819  -0.161  0.00  0.00    +0.030 A 
ATOM     24 CL   UNL     1      -8.343  11.665  -0.982  0.00  0.00    -0.084 Cl
ENDBRANCH  15  18
ENDBRANCH  13  15
ENDBRANCH  12  13
BRANCH   1  25
ATOM     25  S   UNL     1      -2.716   4.119   0.050  0.00  0.00    -0.078 S 
BRANCH  25  32
ATOM     26  C   UNL     1      -2.887   4.796   3.913  0.00  0.00    +0.049 A 
ATOM     27  C   UNL     1      -3.368   3.631   4.439  0.00  0.00    +0.093 A 
ATOM     28  C   UNL     1      -3.663   2.564   3.573  0.00  0.00    +0.252 A 
ATOM     29  O   UNL     1      -4.094   1.510   4.010  0.00  0.00    -0.268 OA
ATOM     30  N   UNL     1      -3.455   2.727   2.249  0.00  0.00    -0.302 N 
ATOM     31  H   UNL     1      -3.650   1.979   1.615  0.00  0.00    +0.171 HD
ATOM     32  C   UNL     1      -2.978   3.913   1.780  0.00  0.00    +0.170 A 
ATOM     33  N   UNL     1      -2.704   4.909   2.600  0.00  0.00    -0.228 NA
BRANCH  26  34
ATOM     34  C   UNL     1      -2.564   5.954   4.821  0.00  0.00    +0.055 C 
BRANCH  34  36
ATOM     35  C   UNL     1      -0.746   7.101   6.095  0.00  0.00    +0.004 C 
ATOM     36  C   UNL     1      -1.075   5.925   5.174  0.00  0.00    +0.003 C 
ENDBRANCH  34  36
ENDBRANCH  26  34
ENDBRANCH  25  32
ENDBRANCH   1  25
TORSDOF 7
