REMARK  Name = ZINC39710932
REMARK  9 active torsions:
REMARK  status: ('A' for Active; 'I' for Inactive)
REMARK    1  A    between atoms: C_1  and  C_2
REMARK    2  A    between atoms: C_8  and  C_14
REMARK    3  A    between atoms: C_14  and  C_16
REMARK    4  A    between atoms: C_14  and  N_27
REMARK    5  A    between atoms: N_21  and  C_22
REMARK    6  A    between atoms: N_27  and  C_28
REMARK    7  A    between atoms: N_27  and  C_36
REMARK    8  A    between atoms: C_28  and  C_29
REMARK    9  A    between atoms: C_36  and  C_37
REMARK                            x       y       z     vdW  Elec       q    Type
REMARK                         _______ _______ _______ _____ _____    ______ ____
ROOT
ATOM      1  C   UNL     1      -1.341  -2.579   4.118  0.00  0.00    -0.009 C 
ENDROOT
BRANCH   1   9
ATOM      2  C   UNL     1       2.520  -4.240  -0.355  0.00  0.00    +0.045 C 
ATOM      3  C   UNL     1       2.763  -3.865   1.085  0.00  0.00    -0.029 A 
ATOM      4  C   UNL     1       3.955  -4.161   1.667  0.00  0.00    +0.005 A 
ATOM      5  C   UNL     1       4.244  -3.842   2.993  0.00  0.00    +0.001 A 
ATOM      6  C   UNL     1       3.337  -3.210   3.783  0.00  0.00    +0.009 A 
ATOM      7  C   UNL     1       2.033  -2.862   3.219  0.00  0.00    -0.007 A 
ATOM      8  C   UNL     1       1.091  -2.227   3.974  0.00  0.00    -0.006 C 
ATOM      9  C   UNL     1      -0.232  -1.905   3.309  0.00  0.00    +0.088 C 
ATOM     10  C   UNL     1      -0.400  -2.313   1.863  0.00  0.00    +0.223 C 
ATOM     11  O   UNL     1      -1.442  -2.079   1.279  0.00  0.00    -0.275 OA
ATOM     12  N   UNL     1       0.589  -2.926   1.234  0.00  0.00    -0.284 N 
ATOM     13  C   UNL     1       1.756  -3.206   1.814  0.00  0.00    +0.043 A 
ATOM     14  H   UNL     1       0.461  -3.179   0.307  0.00  0.00    +0.155 HD
ENDBRANCH   1   9
BRANCH   1  15
ATOM     15  C   UNL     1      -1.163  -4.098   4.060  0.00  0.00    +0.205 C 
ATOM     16  N   UNL     1       0.178  -4.475   4.526  0.00  0.00    -0.152 NA
ATOM     17  N   UNL     1       0.775  -5.041   3.607  0.00  0.00    -0.070 NA
ATOM     18  N   UNL     1       0.011  -5.142   2.445  0.00  0.00    -0.179 N 
ATOM     19  N   UNL     1      -1.219  -4.571   2.661  0.00  0.00    -0.185 NA
ATOM     20  H   UNL     1       0.301  -5.552   1.616  0.00  0.00    +0.191 HD
BRANCH  19  21
ATOM     21  C   UNL     1      -2.297  -5.552   2.480  0.00  0.00    +0.080 C 
ATOM     22  C   UNL     1      -2.025  -6.801   3.344  0.00  0.00    +0.021 C 
ATOM     23  C   UNL     1      -2.514  -7.982   2.468  0.00  0.00    +0.002 C 
ATOM     24  C   UNL     1      -2.085  -7.551   1.043  0.00  0.00    +0.002 C 
ATOM     25  C   UNL     1      -2.335  -6.029   1.017  0.00  0.00    +0.021 C 
ENDBRANCH  19  21
ENDBRANCH   1  15
BRANCH   1  26
ATOM     26  N   UNL     1      -1.270  -2.131   5.515  0.00  0.00    +0.392 N 
ATOM     27  H   UNL     1      -0.394  -2.427   5.919  0.00  0.00    -0.080 HD
BRANCH  26  28
ATOM     28  C   UNL     1      -2.382  -2.717   6.275  0.00  0.00    -0.042 C 
BRANCH  28  29
ATOM     29  C   UNL     1      -3.688  -2.349   5.620  0.00  0.00    -0.064 A 
ATOM     30  C   UNL     1      -4.329  -1.175   5.969  0.00  0.00    +0.003 A 
ATOM     31  C   UNL     1      -5.527  -0.836   5.368  0.00  0.00    +0.020 A 
ATOM     32  C   UNL     1      -6.084  -1.673   4.417  0.00  0.00    +0.041 A 
ATOM     33  C   UNL     1      -5.442  -2.847   4.068  0.00  0.00    +0.020 A 
ATOM     34  C   UNL     1      -4.241  -3.182   4.666  0.00  0.00    +0.003 A 
ATOM     35 CL   UNL     1      -7.589  -1.248   3.662  0.00  0.00    -0.084 Cl
ENDBRANCH  28  29
ENDBRANCH  26  28
BRANCH  26  36
ATOM     36  C   UNL     1      -1.362  -0.666   5.564  0.00  0.00    -0.002 C 
BRANCH  36  37
ATOM     37  C   UNL     1      -1.142  -0.196   6.979  0.00  0.00    +0.089 A 
ATOM     38  C   UNL     1       0.031   0.208   7.501  0.00  0.00    +0.042 A 
ATOM     39  C   UNL     1      -0.219   0.558   8.848  0.00  0.00    +0.041 A 
ATOM     40  C   UNL     1      -1.529   0.348   9.069  0.00  0.00    +0.195 A 
ATOM     41  O   UNL     1      -2.084  -0.103   7.932  0.00  0.00    -0.470 OA
ENDBRANCH  36  37
ENDBRANCH  26  36
ENDBRANCH   1  26
TORSDOF 8
