REMARK  Name = ZINC09032269
REMARK  7 active torsions:
REMARK  status: ('A' for Active; 'I' for Inactive)
REMARK    1  A    between atoms: C_6  and  S_7
REMARK    2  A    between atoms: S_7  and  C_8
REMARK    3  A    between atoms: C_11  and  N_24
REMARK    4  A    between atoms: C_13  and  C_14
REMARK    5  A    between atoms: C_14  and  O_16
REMARK    6  A    between atoms: O_16  and  C_17
REMARK    7  A    between atoms: C_17  and  C_18
REMARK                            x       y       z     vdW  Elec       q    Type
REMARK                         _______ _______ _______ _____ _____    ______ ____
ROOT
ATOM      1  C   UNL     1       2.160   1.247  -0.069  0.00  0.00    +0.027 A 
ATOM      2  C   UNL     1       3.196   2.173  -0.112  0.00  0.00    +0.018 A 
ATOM      3  C   UNL     1       2.914   3.523  -0.152  0.00  0.00    +0.034 A 
ATOM      4  C   UNL     1       1.601   3.967  -0.155  0.00  0.00    +0.127 A 
ATOM      5  C   UNL     1       0.561   3.065  -0.118  0.00  0.00    +0.048 A 
ATOM      6  C   UNL     1       0.828   1.693  -0.077  0.00  0.00    +0.075 A 
ENDROOT
BRANCH   4   7
ATOM      7  N   UNL     1       1.315   5.418  -0.198  0.00  0.00    +0.056 N 
ATOM      8  O   UNL     1       0.162   5.812  -0.200  0.00  0.00    -0.126 OA
ATOM      9  O   UNL     1       2.232   6.219  -0.231  0.00  0.00    -0.126 OA
ENDBRANCH   4   7
BRANCH   6  10
ATOM     10  C   UNL     1      -0.279   0.723  -0.037  0.00  0.00    +0.341 C 
ATOM     11  O   UNL     1      -0.042  -0.468  -0.002  0.00  0.00    -0.245 OA
BRANCH  10  12
ATOM     12  O   UNL     1      -1.555   1.157  -0.044  0.00  0.00    -0.452 OA
BRANCH  12  13
ATOM     13  C   UNL     1      -2.596   0.144  -0.009  0.00  0.00    +0.328 C 
BRANCH  13  14
ATOM     14  C   UNL     1      -3.947   0.811  -0.024  0.00  0.00    +0.258 C 
ATOM     15  O   UNL     1      -4.025   2.021  -0.060  0.00  0.00    -0.272 OA
ATOM     16  N   UNL     1      -5.068   0.064   0.004  0.00  0.00    -0.238 N 
ATOM     17  C   UNL     1      -6.276   0.660  -0.009  0.00  0.00    +0.303 C 
ATOM     18  O   UNL     1      -6.355   1.873  -0.045  0.00  0.00    -0.253 OA
ATOM     19  N   UNL     1      -7.397  -0.087   0.019  0.00  0.00    -0.313 N 
ATOM     20  H   UNL     1      -5.005  -0.904   0.033  0.00  0.00    +0.159 HD
ATOM     21  H   UNL     1      -7.334  -1.055   0.048  0.00  0.00    +0.146 HD
ATOM     22  H   UNL     1      -8.267   0.342   0.009  0.00  0.00    +0.146 HD
ENDBRANCH  13  14
ENDBRANCH  12  13
ENDBRANCH  10  12
ENDBRANCH   6  10
BRANCH   1  23
ATOM     23  S   UNL     1       2.516  -0.478  -0.012  0.00  0.00    -0.089 S 
BRANCH  23  29
ATOM     24  C   UNL     1       1.971   0.074   2.612  0.00  0.00    +0.016 A 
ATOM     25  C   UNL     1       1.754  -0.270   3.932  0.00  0.00    +0.021 A 
ATOM     26  C   UNL     1       1.823  -1.596   4.323  0.00  0.00    +0.041 A 
ATOM     27  C   UNL     1       2.103  -2.581   3.392  0.00  0.00    +0.021 A 
ATOM     28  C   UNL     1       2.314  -2.243   2.070  0.00  0.00    +0.016 A 
ATOM     29  C   UNL     1       2.246  -0.913   1.674  0.00  0.00    +0.013 A 
ATOM     30 CL   UNL     1       1.556  -2.024   5.984  0.00  0.00    -0.084 Cl
ENDBRANCH  23  29
ENDBRANCH   1  23
TORSDOF 7
