REMARK  Name = ZINC59793547
REMARK  8 active torsions:
REMARK  status: ('A' for Active; 'I' for Inactive)
REMARK    1  A    between atoms: C_1  and  C_2
REMARK    2  A    between atoms: C_2  and  C_3
REMARK    3  A    between atoms: C_3  and  S_4
REMARK    4  A    between atoms: S_4  and  C_5
REMARK    5  A    between atoms: C_11  and  C_13
REMARK    6  A    between atoms: C_13  and  S_14
REMARK    7  A    between atoms: S_14  and  C_15
REMARK    8  A    between atoms: C_18  and  C_21
REMARK                            x       y       z     vdW  Elec       q    Type
REMARK                         _______ _______ _______ _____ _____    ______ ____
ROOT
ATOM      1  C   UNL     1       4.633  -4.427  -8.120  0.00  0.00    +0.173 C 
ENDROOT
BRANCH   1   8
ATOM      2  C   UNL     1       1.589  -2.718  -2.758  0.00  0.00    +0.160 A 
ATOM      3  N   UNL     1       2.111  -1.927  -3.684  0.00  0.00    -0.133 NA
ATOM      4  N   UNL     1       2.691  -2.388  -4.705  0.00  0.00    -0.125 NA
ATOM      5  C   UNL     1       2.814  -3.688  -4.914  0.00  0.00    +0.189 A 
ATOM      6  S   UNL     1       1.997  -4.318  -3.450  0.00  0.00    -0.024 S 
ATOM      7  N   UNL     1       3.414  -4.373  -5.968  0.00  0.00    -0.263 N 
ATOM      8  C   UNL     1       3.984  -3.687  -6.979  0.00  0.00    +0.229 C 
ATOM      9  O   UNL     1       3.975  -2.474  -6.970  0.00  0.00    -0.275 OA
ATOM     10  H   UNL     1       3.422  -5.343  -5.975  0.00  0.00    +0.157 HD
BRANCH   2  11
ATOM     11  S   UNL     1       0.743  -2.311  -1.267  0.00  0.00    -0.097 S 
BRANCH  11  12
ATOM     12  C   UNL     1       0.718  -0.497  -1.257  0.00  0.00    +0.076 C 
BRANCH  12  14
ATOM     13  C   UNL     1      -0.019   1.526   0.010  0.00  0.00    +0.004 C 
ATOM     14  C   UNL     1       0.002  -0.004   0.002  0.00  0.00    +0.008 C 
ENDBRANCH  12  14
ENDBRANCH  11  12
ENDBRANCH   2  11
ENDBRANCH   1   8
BRANCH   1  15
ATOM     15  S   UNL     1       5.303  -3.235  -9.311  0.00  0.00    -0.077 S 
BRANCH  15  16
ATOM     16  C   UNL     1       6.019  -4.243 -10.567  0.00  0.00    +0.185 A 
ATOM     17  N   UNL     1       6.034  -5.557 -10.587  0.00  0.00    -0.201 NA
ATOM     18  H   UNL     1       6.780  -2.875 -11.941  0.00  0.00    +0.191 HD
ATOM     19  C   UNL     1       6.662  -5.984 -11.693  0.00  0.00    +0.182 A 
ATOM     20  N   UNL     1       7.052  -4.941 -12.389  0.00  0.00    -0.152 NA
ATOM     21  N   UNL     1       6.642  -3.800 -11.682  0.00  0.00    -0.253 N 
BRANCH  19  22
ATOM     22  C   UNL     1       6.879  -7.403 -12.068  0.00  0.00    +0.022 A 
ATOM     23  C   UNL     1       6.409  -8.424 -11.244  0.00  0.00    +0.012 A 
ATOM     24  C   UNL     1       6.613  -9.742 -11.598  0.00  0.00    +0.002 A 
ATOM     25  C   UNL     1       7.283 -10.052 -12.768  0.00  0.00    +0.020 A 
ATOM     26  C   UNL     1       7.753  -9.042 -13.590  0.00  0.00    +0.042 A 
ATOM     27  C   UNL     1       7.548  -7.719 -13.248  0.00  0.00    +0.031 A 
ATOM     28 CL   UNL     1       8.593  -9.439 -15.056  0.00  0.00    -0.084 Cl
ENDBRANCH  19  22
ENDBRANCH  15  16
ENDBRANCH   1  15
TORSDOF 7
