REMARK  Name = ZINC39672267
REMARK  10 active torsions:
REMARK  status: ('A' for Active; 'I' for Inactive)
REMARK    1  A    between atoms: C_1  and  C_2
REMARK    2  A    between atoms: C_2  and  C_3
REMARK    3  A    between atoms: C_3  and  C_4
REMARK    4  A    between atoms: C_4  and  C_5
REMARK    5  A    between atoms: C_5  and  C_7
REMARK    6  A    between atoms: C_5  and  C_8
REMARK    7  A    between atoms: C_12  and  C_21
REMARK    8  A    between atoms: N_23  and  C_24
REMARK    9  A    between atoms: C_24  and  C_25
REMARK   10  A    between atoms: N_34  and  C_35
REMARK                            x       y       z     vdW  Elec       q    Type
REMARK                         _______ _______ _______ _____ _____    ______ ____
ROOT
ATOM      1  C   UNL     1       1.586  -3.784   2.569  0.00  0.00    +0.218 C 
ATOM      2  O   UNL     1       1.001  -4.305   1.643  0.00  0.00    -0.275 OA
ATOM      3  N   UNL     1       2.100  -4.546   3.555  0.00  0.00    -0.300 N 
ATOM      4  C   UNL     1       2.836  -4.097   4.761  0.00  0.00    +0.121 C 
ATOM      5  C   UNL     1       2.325  -5.015   5.894  0.00  0.00    +0.100 C 
ATOM      6  C   UNL     1       1.818  -6.278   5.177  0.00  0.00    -0.004 C 
ATOM      7  C   UNL     1       2.053  -6.022   3.681  0.00  0.00    +0.115 C 
ATOM      8  C   UNL     1       0.330  -6.476   5.446  0.00  0.00    -0.010 C 
ATOM      9  C   UNL     1      -0.138  -7.768   4.770  0.00  0.00    -0.082 C 
ATOM     10  N   UNL     1       0.629  -8.903   5.296  0.00  0.00    +0.379 N 
ATOM     11  C   UNL     1       2.048  -8.750   4.953  0.00  0.00    -0.082 C 
ATOM     12  C   UNL     1       2.609  -7.499   5.636  0.00  0.00    -0.010 C 
ATOM     13  H   UNL     1       0.530  -8.939   6.300  0.00  0.00    -0.086 HD
ATOM     14  H   UNL     1       0.278  -9.760   4.895  0.00  0.00    -0.086 HD
ENDROOT
BRANCH   5  15
ATOM     15  C   UNL     1       1.202  -4.348   6.644  0.00  0.00    +0.218 C 
ATOM     16  O   UNL     1       0.470  -3.568   6.072  0.00  0.00    -0.275 OA
ATOM     17  N   UNL     1       1.010  -4.617   7.951  0.00  0.00    -0.311 N 
ATOM     18  H   UNL     1       1.596  -5.241   8.408  0.00  0.00    +0.149 HD
BRANCH  17  19
ATOM     19  C   UNL     1      -0.082  -3.969   8.680  0.00  0.00    +0.139 C 
BRANCH  19  20
ATOM     20  C   UNL     1      -0.078  -4.438  10.112  0.00  0.00    -0.030 A 
ATOM     21  C   UNL     1      -0.804  -5.559  10.473  0.00  0.00    +0.007 A 
ATOM     22  C   UNL     1      -0.801  -5.988  11.785  0.00  0.00    +0.024 A 
ATOM     23  C   UNL     1      -0.069  -5.294  12.742  0.00  0.00    +0.033 A 
ATOM     24  C   UNL     1       0.661  -4.173  12.380  0.00  0.00    -0.026 A 
ATOM     25  C   UNL     1       0.655  -3.751  11.060  0.00  0.00    +0.010 A 
ATOM     26  C   UNL     1       1.473  -3.403  13.387  0.00  0.00    +0.038 C 
ATOM     27  C   UNL     1       0.978  -3.688  14.805  0.00  0.00    +0.024 C 
ATOM     28  C   UNL     1       0.909  -5.207  15.010  0.00  0.00    +0.105 C 
ATOM     29  N   UNL     1      -0.084  -5.742  14.068  0.00  0.00    -0.333 N 
ATOM     30  C   UNL     1      -1.072  -6.729  14.509  0.00  0.00    +0.129 C 
ENDBRANCH  19  20
ENDBRANCH  17  19
ENDBRANCH   5  15
BRANCH   1  31
ATOM     31  C   UNL     1       1.738  -2.286   2.618  0.00  0.00    +0.072 C 
ATOM     32  C   UNL     1       3.225  -1.924   2.627  0.00  0.00    +0.017 C 
BRANCH  31  33
ATOM     33  C   UNL     1       1.070  -1.665   1.389  0.00  0.00    +0.012 C 
BRANCH  33  34
ATOM     34  C   UNL     1       1.115  -0.140   1.500  0.00  0.00    +0.000 C 
BRANCH  34  36
ATOM     35  C   UNL     1       0.492   2.006   0.382  0.00  0.00    +0.004 C 
ATOM     36  C   UNL     1       0.447   0.480   0.271  0.00  0.00    -0.003 C 
ENDBRANCH  34  36
ENDBRANCH  33  34
ENDBRANCH  31  33
ENDBRANCH   1  31
TORSDOF 7
