REMARK  Name = ZINC13237329
REMARK  11 active torsions:
REMARK  status: ('A' for Active; 'I' for Inactive)
REMARK    1  A    between atoms: C_1  and  C_2
REMARK    2  A    between atoms: C_5  and  C_8
REMARK    3  A    between atoms: C_11  and  S_17
REMARK    4  A    between atoms: N_12  and  C_13
REMARK    5  A    between atoms: C_13  and  C_14
REMARK    6  A    between atoms: C_14  and  C_15
REMARK    7  A    between atoms: S_17  and  C_18
REMARK    8  A    between atoms: C_18  and  C_19
REMARK    9  A    between atoms: N_21  and  C_22
REMARK   10  A    between atoms: N_21  and  C_28
REMARK   11  A    between atoms: C_22  and  C_23
REMARK                            x       y       z     vdW  Elec       q    Type
REMARK                         _______ _______ _______ _____ _____    ______ ____
ROOT
ATOM      1  C   UNL     1       0.060  -0.279  -0.496  0.00  0.00    +0.165 A 
ATOM      2  N   UNL     1       1.121  -0.933  -0.083  0.00  0.00    -0.128 NA
ATOM      3  N   UNL     1       0.960  -2.194  -0.271  0.00  0.00    -0.122 NA
ATOM      4  C   UNL     1      -0.215  -2.422  -0.815  0.00  0.00    +0.192 A 
ATOM      5  N   UNL     1      -0.830  -1.213  -0.973  0.00  0.00    -0.302 N 
ENDROOT
BRANCH   1  10
ATOM      6  C   UNL     1      -0.729   5.419  -0.320  0.00  0.00    +0.044 C 
ATOM      7  C   UNL     1      -0.522   3.927  -0.366  0.00  0.00    -0.050 A 
ATOM      8  C   UNL     1       0.436   3.339   0.441  0.00  0.00    +0.004 A 
ATOM      9  C   UNL     1       0.630   1.974   0.404  0.00  0.00    +0.012 A 
ATOM     10  C   UNL     1      -0.142   1.185  -0.451  0.00  0.00    +0.019 A 
ATOM     11  C   UNL     1      -1.103   1.785  -1.266  0.00  0.00    +0.012 A 
ATOM     12  C   UNL     1      -1.291   3.151  -1.215  0.00  0.00    +0.004 A 
ENDBRANCH   1  10
BRANCH   5  13
ATOM     13  C   UNL     1      -2.159  -0.963  -1.534  0.00  0.00    +0.137 C 
BRANCH  13  14
ATOM     14  C   UNL     1      -2.051  -0.812  -3.053  0.00  0.00    +0.147 C 
BRANCH  14  15
ATOM     15  C   UNL     1      -3.419  -0.554  -3.631  0.00  0.00    +0.358 C 
ATOM     16  O   UNL     1      -4.381  -0.498  -2.903  0.00  0.00    -0.246 OA
ATOM     17  O   UNL     1      -3.568  -0.388  -4.955  0.00  0.00    -0.246 OA
ENDBRANCH  14  15
ENDBRANCH  13  14
ENDBRANCH   5  13
BRANCH   4  18
ATOM     18  S   UNL     1      -0.875  -3.996  -1.254  0.00  0.00    -0.077 S 
BRANCH  18  19
ATOM     19  C   UNL     1       0.494  -5.064  -0.743  0.00  0.00    +0.173 C 
BRANCH  19  20
ATOM     20  C   UNL     1       0.143  -6.502  -1.031  0.00  0.00    +0.230 C 
ATOM     21  O   UNL     1      -0.926  -6.776  -1.533  0.00  0.00    -0.274 OA
ATOM     22  N   UNL     1       1.019  -7.481  -0.731  0.00  0.00    -0.263 N 
BRANCH  22  23
ATOM     23  C   UNL     1       0.740  -8.804  -1.095  0.00  0.00    +0.037 A 
ATOM     24  C   UNL     1      -0.303  -9.488  -0.484  0.00  0.00    +0.023 A 
ATOM     25  C   UNL     1      -0.579 -10.791  -0.849  0.00  0.00    +0.002 A 
ATOM     26  C   UNL     1       0.189 -11.418  -1.812  0.00  0.00    +0.000 A 
ATOM     27  C   UNL     1       1.232 -10.742  -2.418  0.00  0.00    +0.002 A 
ATOM     28  C   UNL     1       1.510  -9.437  -2.062  0.00  0.00    +0.023 A 
ENDBRANCH  22  23
BRANCH  22  29
ATOM     29  C   UNL     1       2.262  -7.162  -0.025  0.00  0.00    +0.187 C 
BRANCH  29  30
ATOM     30  C   UNL     1       2.034  -7.257   1.461  0.00  0.00    +0.122 A 
ATOM     31  C   UNL     1       2.199  -8.360   2.214  0.00  0.00    +0.046 A 
ATOM     32  C   UNL     1       1.877  -8.000   3.543  0.00  0.00    +0.041 A 
ATOM     33  C   UNL     1       1.535  -6.699   3.523  0.00  0.00    +0.195 A 
ATOM     34  O   UNL     1       1.638  -6.253   2.261  0.00  0.00    -0.466 OA
ENDBRANCH  29  30
ENDBRANCH  22  29
ENDBRANCH  19  20
ENDBRANCH  18  19
ENDBRANCH   4  18
TORSDOF 10
