REMARK  Name = ZINC28118619
REMARK  8 active torsions:
REMARK  status: ('A' for Active; 'I' for Inactive)
REMARK    1  A    between atoms: C_1  and  C_2
REMARK    2  A    between atoms: C_3  and  C_29
REMARK    3  A    between atoms: C_6  and  N_15
REMARK    4  A    between atoms: N_15  and  S_16
REMARK    5  A    between atoms: S_16  and  C_19
REMARK    6  A    between atoms: C_21  and  N_26
REMARK    7  A    between atoms: C_29  and  O_31
REMARK    8  A    between atoms: O_31  and  C_32
REMARK                            x       y       z     vdW  Elec       q    Type
REMARK                         _______ _______ _______ _____ _____    ______ ____
ROOT
ATOM      1  C   UNL     1      -5.306  -3.208   3.844  0.00  0.00    +0.087 C 
ATOM      2  C   UNL     1      -4.495  -1.996   3.464  0.00  0.00    +0.117 A 
ATOM      3  C   UNL     1      -3.324  -2.021   2.769  0.00  0.00    +0.107 A 
ATOM      4  C   UNL     1      -2.906  -0.610   2.639  0.00  0.00    +0.037 A 
ATOM      5  C   UNL     1      -1.806   0.022   2.041  0.00  0.00    +0.039 A 
ATOM      6  C   UNL     1      -1.679   1.379   2.077  0.00  0.00    +0.083 A 
ATOM      7  C   UNL     1      -2.660   2.164   2.729  0.00  0.00    +0.010 A 
ATOM      8  C   UNL     1      -2.550   3.562   2.775  0.00  0.00    +0.010 A 
ATOM      9  C   UNL     1      -3.510   4.295   3.403  0.00  0.00    +0.001 A 
ATOM     10  C   UNL     1      -4.606   3.678   4.000  0.00  0.00    +0.001 A 
ATOM     11  C   UNL     1      -4.747   2.323   3.972  0.00  0.00    +0.012 A 
ATOM     12  C   UNL     1      -3.776   1.537   3.332  0.00  0.00    +0.027 A 
ATOM     13  C   UNL     1      -3.893   0.131   3.285  0.00  0.00    +0.144 A 
ATOM     14  O   UNL     1      -4.815  -0.731   3.759  0.00  0.00    -0.459 OA
ENDROOT
BRANCH   3  15
ATOM     15  C   UNL     1      -2.622  -3.205   2.255  0.00  0.00    +0.343 C 
ATOM     16  O   UNL     1      -1.797  -3.770   2.946  0.00  0.00    -0.245 OA
BRANCH  15  17
ATOM     17  O   UNL     1      -2.894  -3.665   1.017  0.00  0.00    -0.464 OA
ATOM     18  C   UNL     1      -2.163  -4.839   0.575  0.00  0.00    +0.280 C 
ENDBRANCH  15  17
ENDBRANCH   3  15
BRANCH   6  19
ATOM     19  N   UNL     1      -0.579   1.994   1.476  0.00  0.00    -0.097 NA
BRANCH  19  20
ATOM     20  S   UNL     1       0.051   1.377   0.075  0.00  0.00    +0.093 S 
ATOM     21  O   UNL     1       1.098   2.253  -0.320  0.00  0.00    -0.148 OA
ATOM     22  O   UNL     1      -1.052   1.079  -0.770  0.00  0.00    -0.148 OA
BRANCH  20  23
ATOM     23  C   UNL     1       0.807  -0.163   0.477  0.00  0.00    +0.131 A 
ATOM     24  C   UNL     1       0.385  -1.324  -0.144  0.00  0.00    +0.063 A 
ATOM     25  C   UNL     1       0.979  -2.531   0.171  0.00  0.00    +0.128 A 
ATOM     26  C   UNL     1       1.996  -2.579   1.107  0.00  0.00    +0.034 A 
ATOM     27  C   UNL     1       2.418  -1.420   1.729  0.00  0.00    +0.024 A 
ATOM     28  C   UNL     1       1.828  -0.209   1.409  0.00  0.00    +0.068 A 
ATOM     29 CL   UNL     1       2.364   1.249   2.184  0.00  0.00    -0.082 Cl
BRANCH  25  30
ATOM     30  N   UNL     1       0.527  -3.774  -0.494  0.00  0.00    +0.056 N 
ATOM     31  O   UNL     1      -0.368  -3.732  -1.319  0.00  0.00    -0.126 OA
ATOM     32  O   UNL     1       1.050  -4.838  -0.217  0.00  0.00    -0.126 OA
ENDBRANCH  25  30
ENDBRANCH  20  23
ENDBRANCH  19  20
ENDBRANCH   6  19
TORSDOF 6
