REMARK  Name = ZINC11691589
REMARK  6 active torsions:
REMARK  status: ('A' for Active; 'I' for Inactive)
REMARK    1  A    between atoms: C_1  and  N_2
REMARK    2  A    between atoms: C_6  and  S_15
REMARK    3  A    between atoms: S_15  and  N_18
REMARK    4  A    between atoms: N_18  and  C_19
REMARK    5  A    between atoms: C_21  and  S_26
REMARK    6  A    between atoms: S_26  and  N_29
REMARK                            x       y       z     vdW  Elec       q    Type
REMARK                         _______ _______ _______ _____ _____    ______ ____
ROOT
ATOM      1  S   UNL     1       2.398   5.267   0.919  0.00  0.00    +0.073 S 
ATOM      2  O   UNL     1       3.671   5.884   0.777  0.00  0.00    -0.150 OA
ATOM      3  O   UNL     1       1.187   5.935   0.594  0.00  0.00    -0.150 OA
ENDROOT
BRANCH   1   9
ATOM      4  C   UNL     1       2.464   3.569   7.799  0.00  0.00    +0.138 C 
ATOM      5  N   UNL     1       1.700   3.484   6.551  0.00  0.00    -0.270 N 
ATOM      6  C   UNL     1       2.112   4.006   5.332  0.00  0.00    +0.045 A 
ATOM      7  C   UNL     1       3.204   4.701   4.846  0.00  0.00    +0.026 A 
ATOM      8  C   UNL     1       3.258   5.062   3.500  0.00  0.00    +0.031 A 
ATOM      9  C   UNL     1       2.264   4.773   2.605  0.00  0.00    +0.116 A 
ATOM     10  C   UNL     1       1.137   4.068   3.060  0.00  0.00    +0.011 A 
ATOM     11  C   UNL     1       1.112   3.715   4.409  0.00  0.00    +0.018 A 
ATOM     12  C   UNL     1       0.065   3.012   5.023  0.00  0.00    +0.047 A 
ATOM     13  C   UNL     1      -1.002   2.656   4.216  0.00  0.00    +0.014 A 
ATOM     14  C   UNL     1      -0.992   3.001   2.865  0.00  0.00    +0.001 A 
ATOM     15  C   UNL     1       0.035   3.688   2.276  0.00  0.00    +0.010 A 
ATOM     16  C   UNL     1       0.489   2.882   6.422  0.00  0.00    +0.251 C 
ATOM     17  O   UNL     1      -0.135   2.332   7.310  0.00  0.00    -0.270 OA
ENDBRANCH   1   9
BRANCH   1  18
ATOM     18  N   UNL     1       2.437   3.886   0.006  0.00  0.00    -0.215 N 
ATOM     19  H   UNL     1       1.696   3.673  -0.582  0.00  0.00    +0.174 HD
BRANCH  18  20
ATOM     20  C   UNL     1       3.538   3.029   0.082  0.00  0.00    +0.068 A 
ATOM     21  C   UNL     1       4.197   2.849   1.291  0.00  0.00    +0.054 A 
ATOM     22  C   UNL     1       5.285   2.001   1.363  0.00  0.00    +0.107 A 
ATOM     23  C   UNL     1       5.715   1.327   0.234  0.00  0.00    +0.030 A 
ATOM     24  C   UNL     1       5.065   1.508  -0.973  0.00  0.00    +0.024 A 
ATOM     25  C   UNL     1       3.976   2.355  -1.052  0.00  0.00    +0.063 A 
ATOM     26 CL   UNL     1       3.156   2.577  -2.566  0.00  0.00    -0.082 Cl
BRANCH  22  27
ATOM     27  S   UNL     1       6.122   1.772   2.896  0.00  0.00    +0.056 S 
ATOM     28  O   UNL     1       7.442   1.350   2.580  0.00  0.00    -0.153 OA
ATOM     29  O   UNL     1       5.859   2.928   3.679  0.00  0.00    -0.153 OA
BRANCH  27  30
ATOM     30  N   UNL     1       5.392   0.501   3.668  0.00  0.00    -0.204 NA
ATOM     31  H   UNL     1       5.906  -0.063   4.266  0.00  0.00    +0.144 HD
ATOM     32  H   UNL     1       4.450   0.322   3.521  0.00  0.00    +0.144 HD
ENDBRANCH  27  30
ENDBRANCH  22  27
ENDBRANCH  18  20
ENDBRANCH   1  18
TORSDOF 5
