REMARK  Name = ZINC09530986
REMARK  4 active torsions:
REMARK  status: ('A' for Active; 'I' for Inactive)
REMARK    1  A    between atoms: C_3  and  O_29
REMARK    2  A    between atoms: C_4  and  C_23
REMARK    3  A    between atoms: C_10  and  C_11
REMARK    4  A    between atoms: C_23  and  N_52
REMARK                            x       y       z     vdW  Elec       q    Type
REMARK                         _______ _______ _______ _____ _____    ______ ____
ROOT
ATOM      1  C   UNL     1      -0.388  -4.860  -0.775  0.00  0.00    +0.019 A 
ATOM      2  C   UNL     1      -0.093  -3.998  -1.793  0.00  0.00    +0.046 A 
ATOM      3  C   UNL     1      -0.029  -2.628  -1.553  0.00  0.00    +0.122 A 
ATOM      4  C   UNL     1      -0.250  -2.124  -0.281  0.00  0.00    +0.020 A 
ATOM      5  C   UNL     1      -0.550  -2.987   0.765  0.00  0.00    +0.144 A 
ATOM      6  C   UNL     1      -0.619  -4.366   0.509  0.00  0.00    +0.068 A 
ATOM      7  C   UNL     1      -0.951  -5.011   1.793  0.00  0.00    +0.231 C 
ATOM      8  O   UNL     1      -1.104  -6.200   2.013  0.00  0.00    -0.283 OA
ATOM      9  C   UNL     1      -1.057  -3.898   2.748  0.00  0.00    +0.176 C 
ATOM     10  C   UNL     1      -1.350  -4.001   4.069  0.00  0.00    +0.061 C 
ATOM     11  O   UNL     1      -0.809  -2.753   2.070  0.00  0.00    -0.451 OA
ENDROOT
BRANCH  10  12
ATOM     12  C   UNL     1      -1.322  -2.807   4.922  0.00  0.00    +0.022 A 
ATOM     13  C   UNL     1      -1.358  -1.530   4.348  0.00  0.00    +0.027 A 
ATOM     14  C   UNL     1      -1.337  -0.415   5.156  0.00  0.00    +0.019 A 
ATOM     15  C   UNL     1      -1.268  -0.550   6.534  0.00  0.00    +0.024 A 
ATOM     16  C   UNL     1      -1.225  -1.804   7.115  0.00  0.00    +0.022 A 
ATOM     17  C   UNL     1      -1.254  -2.937   6.320  0.00  0.00    +0.136 A 
ATOM     18  O   UNL     1      -1.220  -4.175   6.877  0.00  0.00    -0.465 OA
ATOM     19  C   UNL     1      -0.793  -4.259   8.239  0.00  0.00    +0.395 C 
ATOM     20  O   UNL     1      -1.488  -3.263   8.999  0.00  0.00    -0.339 OA
ATOM     21  C   UNL     1      -1.147  -1.927   8.616  0.00  0.00    +0.202 C 
ATOM     22 BR   UNL     1      -1.394   1.310   4.381  0.00  0.00    -0.050 Br
ENDBRANCH  10  12
BRANCH   3  23
ATOM     23  O   UNL     1       0.259  -1.779  -2.572  0.00  0.00    -0.506 OA
ATOM     24  H   UNL     1       1.204  -1.609  -2.688  0.00  0.00    +0.292 HD
ENDBRANCH   3  23
BRANCH   4  25
ATOM     25  C   UNL     1      -0.170  -0.640  -0.035  0.00  0.00    -0.036 C 
BRANCH  25  31
ATOM     26  C   UNL     1       1.378   1.181   0.351  0.00  0.00    -0.078 C 
ATOM     27  C   UNL     1       2.851   1.518   0.594  0.00  0.00    -0.019 C 
ATOM     28  C   UNL     1       3.293   0.917   1.932  0.00  0.00    -0.004 C 
ATOM     29  C   UNL     1       3.057  -0.596   1.905  0.00  0.00    -0.019 C 
ATOM     30  C   UNL     1       1.578  -0.872   1.624  0.00  0.00    -0.078 C 
ATOM     31  N   UNL     1       1.222  -0.289   0.312  0.00  0.00    +0.383 N 
ATOM     32  H   UNL     1       1.851  -0.672  -0.404  0.00  0.00    -0.081 HD
ENDBRANCH  25  31
ENDBRANCH   4  25
TORSDOF 4
