REMARK  Name = ZINC40390389
REMARK  4 active torsions:
REMARK  status: ('A' for Active; 'I' for Inactive)
REMARK    1  A    between atoms: C_1  and  C_2
REMARK    2  A    between atoms: C_7  and  N_8
REMARK    3  A    between atoms: C_9  and  C_11
REMARK    4  A    between atoms: C_30  and  C_32
REMARK                            x       y       z     vdW  Elec       q    Type
REMARK                         _______ _______ _______ _____ _____    ______ ____
ROOT
ATOM      1  C   UNL     1      -0.232   0.275   5.097  0.00  0.00    +0.122 C 
ATOM      2  C   UNL     1       1.033   1.121   5.259  0.00  0.00    +0.114 C 
ATOM      3  C   UNL     1       2.219   0.220   5.483  0.00  0.00    +0.219 C 
ATOM      4  O   UNL     1       3.291   0.507   4.994  0.00  0.00    -0.275 OA
ATOM      5  N   UNL     1       2.102  -0.898   6.220  0.00  0.00    -0.270 N 
ATOM      6  C   UNL     1       0.870  -1.306   6.702  0.00  0.00    +0.138 A 
ATOM      7  C   UNL     1      -0.292  -0.755   6.193  0.00  0.00    +0.069 A 
ATOM      8  C   UNL     1      -1.524  -1.167   6.710  0.00  0.00    +0.258 A 
ATOM      9  O   UNL     1      -2.567  -0.692   6.290  0.00  0.00    -0.267 OA
ATOM     10  N   UNL     1      -1.536  -2.103   7.684  0.00  0.00    -0.295 N 
ATOM     11  H   UNL     1      -2.379  -2.393   8.067  0.00  0.00    +0.172 HD
ATOM     12  C   UNL     1      -0.367  -2.642   8.126  0.00  0.00    +0.200 A 
ATOM     13  N   UNL     1       0.793  -2.253   7.644  0.00  0.00    -0.200 NA
ATOM     14  N   UNL     1      -0.400  -3.608   9.095  0.00  0.00    -0.298 N 
ATOM     15  C   UNL     1      -1.680  -4.166   9.553  0.00  0.00    +0.108 C 
ATOM     16  C   UNL     1      -1.755  -4.040  11.078  0.00  0.00    +0.019 C 
ATOM     17  C   UNL     1      -0.523  -4.699  11.702  0.00  0.00    +0.003 C 
ATOM     18  C   UNL     1       0.740  -3.982  11.220  0.00  0.00    +0.022 C 
ATOM     19  C   UNL     1       0.844  -4.112   9.693  0.00  0.00    +0.073 C 
ATOM     20  C   UNL     1       2.028  -3.286   9.185  0.00  0.00    +0.028 C 
ATOM     21  H   UNL     1       2.891  -1.427   6.415  0.00  0.00    +0.156 HD
ENDROOT
BRANCH   1  23
ATOM     22  N   UNL     1      -0.151   0.310   2.625  0.00  0.00    -0.285 N 
ATOM     23  C   UNL     1      -0.204  -0.417   3.758  0.00  0.00    +0.225 C 
ATOM     24  O   UNL     1      -0.231  -1.628   3.701  0.00  0.00    -0.275 OA
ATOM     25  H   UNL     1      -0.063   1.275   2.671  0.00  0.00    +0.155 HD
BRANCH  22  32
ATOM     26  C   UNL     1      -1.475   1.659   0.498  0.00  0.00    +0.045 C 
ATOM     27  C   UNL     1      -0.859   0.296   0.316  0.00  0.00    -0.029 A 
ATOM     28  C   UNL     1      -0.923  -0.332  -0.912  0.00  0.00    +0.006 A 
ATOM     29  C   UNL     1      -0.358  -1.583  -1.081  0.00  0.00    +0.020 A 
ATOM     30  C   UNL     1       0.273  -2.209  -0.021  0.00  0.00    +0.043 A 
ATOM     31  C   UNL     1       0.340  -1.585   1.211  0.00  0.00    +0.043 A 
ATOM     32  C   UNL     1      -0.222  -0.327   1.381  0.00  0.00    +0.038 A 
ATOM     33 CL   UNL     1       0.981  -3.780  -0.237  0.00  0.00    -0.083 Cl
ENDBRANCH  22  32
ENDBRANCH   1  23
TORSDOF 2
