REMARK  Name = ZINC04192429
REMARK  5 active torsions:
REMARK  status: ('A' for Active; 'I' for Inactive)
REMARK    1  A    between atoms: C_3  and  N_17
REMARK    2  A    between atoms: C_4  and  N_14
REMARK    3  A    between atoms: C_6  and  S_7
REMARK    4  A    between atoms: S_7  and  C_10
REMARK    5  A    between atoms: N_17  and  C_18
REMARK                            x       y       z     vdW  Elec       q    Type
REMARK                         _______ _______ _______ _____ _____    ______ ____
ROOT
ATOM      1  C   UNL     1      -2.022   2.415   1.772  0.00  0.00    +0.029 A 
ATOM      2  C   UNL     1      -2.476   3.000   2.938  0.00  0.00    +0.027 A 
ATOM      3  C   UNL     1      -1.608   3.179   4.007  0.00  0.00    +0.058 A 
ATOM      4  C   UNL     1      -0.286   2.764   3.902  0.00  0.00    +0.149 A 
ATOM      5  C   UNL     1       0.160   2.174   2.736  0.00  0.00    +0.062 A 
ATOM      6  C   UNL     1      -0.708   1.997   1.673  0.00  0.00    +0.100 A 
ENDROOT
BRANCH   6   7
ATOM      7  S   UNL     1      -0.134   1.245   0.186  0.00  0.00    +0.091 S 
ATOM      8  O   UNL     1       1.261   1.511   0.160  0.00  0.00    -0.161 OA
ATOM      9  O   UNL     1      -0.988   1.754  -0.830  0.00  0.00    -0.161 OA
BRANCH   7  10
ATOM     10  C   UNL     1      -0.428  -0.530   0.418  0.00  0.00    +0.526 C 
ATOM     11  F   UNL     1      -1.794  -0.754   0.618  0.00  0.00    -0.150 F 
ATOM     12  F   UNL     1      -0.003  -1.225  -0.718  0.00  0.00    -0.150 F 
ATOM     13  F   UNL     1       0.287  -0.979   1.534  0.00  0.00    -0.150 F 
ENDBRANCH   7  10
ENDBRANCH   6   7
BRANCH   4  14
ATOM     14  N   UNL     1       0.643   2.953   5.039  0.00  0.00    +0.058 N 
ATOM     15  O   UNL     1       1.804   3.256   4.832  0.00  0.00    -0.126 OA
ATOM     16  O   UNL     1       0.246   2.805   6.181  0.00  0.00    -0.126 OA
ENDBRANCH   4  14
BRANCH   3  17
ATOM     17  N   UNL     1      -2.062   3.776   5.186  0.00  0.00    -0.338 N 
ATOM     18  H   UNL     1      -1.437   3.976   5.900  0.00  0.00    +0.146 HD
BRANCH  17  19
ATOM     19  C   UNL     1      -3.482   4.101   5.342  0.00  0.00    +0.093 C 
ATOM     20  C   UNL     1      -3.635   5.249   6.354  0.00  0.00    +0.046 C 
ATOM     21  C   UNL     1      -5.138   5.361   6.735  0.00  0.00    +0.168 C 
ATOM     22  S   UNL     1      -5.587   3.579   6.867  0.00  0.00    -0.029 S 
ATOM     23  O   UNL     1      -5.421   3.159   8.214  0.00  0.00    -0.174 OA
ATOM     24  O   UNL     1      -6.831   3.366   6.215  0.00  0.00    -0.174 OA
ATOM     25  C   UNL     1      -4.243   2.851   5.844  0.00  0.00    +0.188 C 
ENDBRANCH  17  19
ENDBRANCH   3  17
TORSDOF 5
