REMARK  Name = ZINC00598091
REMARK  6 active torsions:
REMARK  status: ('A' for Active; 'I' for Inactive)
REMARK    1  A    between atoms: C_1  and  O_2
REMARK    2  A    between atoms: O_2  and  C_3
REMARK    3  A    between atoms: C_5  and  C_12
REMARK    4  A    between atoms: C_7  and  O_10
REMARK    5  A    between atoms: C_8  and  O_9
REMARK    6  A    between atoms: O_10  and  C_11
REMARK                            x       y       z     vdW  Elec       q    Type
REMARK                         _______ _______ _______ _____ _____    ______ ____
ROOT
ATOM      1  C   UNL     1      -1.251   2.243   0.034  0.00  0.00    +0.157 C 
ATOM      2  C   UNL     1      -0.017   1.365   0.009  0.00  0.00    +0.046 A 
ATOM      3  C   UNL     1       1.244   1.846   0.000  0.00  0.00    -0.015 A 
ATOM      4  C   UNL     1       2.131   0.697  -0.007  0.00  0.00    +0.003 A 
ATOM      5  C   UNL     1       3.524   0.578  -0.015  0.00  0.00    +0.010 A 
ATOM      6  C   UNL     1       4.037  -0.695  -0.024  0.00  0.00    +0.001 A 
ATOM      7  C   UNL     1       3.224  -1.817  -0.027  0.00  0.00    +0.002 A 
ATOM      8  C   UNL     1       1.842  -1.728  -0.019  0.00  0.00    +0.026 A 
ATOM      9  C   UNL     1       1.293  -0.447  -0.008  0.00  0.00    +0.047 A 
ATOM     10  N   UNL     1       0.002  -0.004   0.002  0.00  0.00    -0.356 N 
ATOM     11  H   UNL     1      -0.783  -0.573   0.003  0.00  0.00    +0.166 HD
ATOM     12  C   UNL     1       1.631   3.304  -0.012  0.00  0.00    +0.063 C 
ATOM     13  C   UNL     1       0.447   4.148   0.473  0.00  0.00    +0.122 C 
ATOM     14  N   UNL     1      -0.781   3.625  -0.163  0.00  0.00    -0.248 N 
ATOM     15  C   UNL     1      -1.329   4.582  -0.911  0.00  0.00    +0.404 C 
ATOM     16  O   UNL     1      -2.376   4.439  -1.512  0.00  0.00    -0.226 OA
ATOM     17  O   UNL     1      -0.619   5.717  -0.939  0.00  0.00    -0.448 OA
ATOM     18  C   UNL     1       0.563   5.573  -0.099  0.00  0.00    +0.256 C 
ENDROOT
BRANCH   1  21
ATOM     19  C   UNL     1      -4.145   0.689  -1.835  0.00  0.00    +0.165 A 
ATOM     20  C   UNL     1      -3.281   1.051  -0.812  0.00  0.00    +0.055 A 
ATOM     21  C   UNL     1      -2.187   1.851  -1.081  0.00  0.00    -0.014 A 
ATOM     22  C   UNL     1      -1.952   2.298  -2.367  0.00  0.00    +0.055 A 
ATOM     23  C   UNL     1      -2.807   1.936  -3.396  0.00  0.00    +0.165 A 
ATOM     24  C   UNL     1      -3.909   1.131  -3.131  0.00  0.00    +0.201 A 
BRANCH  19  26
ATOM     25  C   UNL     1      -5.401  -0.518  -0.215  0.00  0.00    +0.277 C 
ATOM     26  O   UNL     1      -5.221  -0.099  -1.570  0.00  0.00    -0.491 OA
ENDBRANCH  19  26
BRANCH  24  27
ATOM     27  O   UNL     1      -4.755   0.778  -4.137  0.00  0.00    -0.501 OA
ATOM     28  H   UNL     1      -5.486   1.396  -4.271  0.00  0.00    +0.292 HD
ENDBRANCH  24  27
BRANCH  23  29
ATOM     29  O   UNL     1      -2.572   2.372  -4.663  0.00  0.00    -0.491 OA
ATOM     30  C   UNL     1      -1.421   3.196  -4.862  0.00  0.00    +0.277 C 
ENDBRANCH  23  29
ENDBRANCH   1  21
TORSDOF 4
