REMARK  Name = ZINC09283069
REMARK  7 active torsions:
REMARK  status: ('A' for Active; 'I' for Inactive)
REMARK    1  A    between atoms: C_1  and  N_2
REMARK    2  A    between atoms: N_2  and  C_3
REMARK    3  A    between atoms: N_2  and  S_4
REMARK    4  A    between atoms: S_4  and  C_7
REMARK    5  A    between atoms: C_10  and  C_13
REMARK    6  A    between atoms: C_21  and  S_25
REMARK    7  A    between atoms: S_25  and  N_28
REMARK                            x       y       z     vdW  Elec       q    Type
REMARK                         _______ _______ _______ _____ _____    ______ ____
ROOT
ATOM      1  C   UNL     1      -0.016   1.344   0.009  0.00  0.00    +0.250 C 
ATOM      2  O   UNL     1      -1.077   1.937   0.018  0.00  0.00    -0.270 OA
ATOM      3  N   UNL     1       0.002  -0.004   0.002  0.00  0.00    -0.261 N 
ATOM      4  C   UNL     1      -1.187  -0.713   0.010  0.00  0.00    +0.166 A 
ATOM      5  N   UNL     1      -2.418  -0.255   0.023  0.00  0.00    -0.225 NA
ATOM      6  C   UNL     1      -3.495  -1.070   0.029  0.00  0.00    +0.080 A 
ATOM      7  C   UNL     1      -4.862  -0.710   0.043  0.00  0.00    +0.031 A 
ATOM      8  C   UNL     1      -5.839  -1.671   0.047  0.00  0.00    +0.030 A 
ATOM      9  C   UNL     1      -5.527  -3.023   0.038  0.00  0.00    +0.106 A 
ATOM     10  C   UNL     1      -4.200  -3.411   0.024  0.00  0.00    +0.045 A 
ATOM     11  C   UNL     1      -3.214  -2.456   0.020  0.00  0.00    +0.043 A 
ATOM     12  S   UNL     1      -1.438  -2.482  -0.005  0.00  0.00    -0.052 S 
ATOM     13  H   UNL     1       0.849  -0.478  -0.009  0.00  0.00    +0.157 HD
ENDROOT
BRANCH   1  17
ATOM     14  C   UNL     1       3.633   3.517  -0.013  0.00  0.00    +0.105 A 
ATOM     15  C   UNL     1       2.427   4.196   0.002  0.00  0.00    +0.029 A 
ATOM     16  C   UNL     1       1.238   3.496   0.009  0.00  0.00    +0.015 A 
ATOM     17  C   UNL     1       1.254   2.100   0.001  0.00  0.00    +0.037 A 
ATOM     18  C   UNL     1       2.474   1.421  -0.008  0.00  0.00    +0.015 A 
ATOM     19  C   UNL     1       3.655   2.134  -0.021  0.00  0.00    +0.029 A 
BRANCH  14  20
ATOM     20  S   UNL     1       5.146   4.419  -0.023  0.00  0.00    +0.060 S 
ATOM     21  O   UNL     1       6.127   3.559  -0.588  0.00  0.00    -0.153 OA
ATOM     22  O   UNL     1       4.853   5.699  -0.565  0.00  0.00    -0.153 OA
BRANCH  20  24
ATOM     23  C   UNL     1       6.425   3.679   2.242  0.00  0.00    +0.131 C 
ATOM     24  N   UNL     1       5.582   4.661   1.556  0.00  0.00    -0.183 NA
ATOM     25  C   UNL     1       5.126   5.859   2.266  0.00  0.00    +0.131 C 
ENDBRANCH  20  24
ENDBRANCH  14  20
ENDBRANCH   1  17
BRANCH   9  26
ATOM     26  S   UNL     1      -6.808  -4.232   0.043  0.00  0.00    +0.056 S 
ATOM     27  O   UNL     1      -7.963  -3.603  -0.495  0.00  0.00    -0.153 OA
ATOM     28  O   UNL     1      -6.254  -5.414  -0.520  0.00  0.00    -0.153 OA
BRANCH  26  29
ATOM     29  N   UNL     1      -7.150  -4.577   1.626  0.00  0.00    -0.204 NA
ATOM     30  H   UNL     1      -6.665  -4.128   2.336  0.00  0.00    +0.144 HD
ATOM     31  H   UNL     1      -7.836  -5.227   1.843  0.00  0.00    +0.144 HD
ENDBRANCH  26  29
ENDBRANCH   9  26
TORSDOF 5
