REMARK  Name = ZINC62722121
REMARK  4 active torsions:
REMARK  status: ('A' for Active; 'I' for Inactive)
REMARK    1  A    between atoms: C_2  and  C_17
REMARK    2  A    between atoms: C_5  and  N_8
REMARK    3  A    between atoms: C_12  and  O_15
REMARK    4  A    between atoms: C_17  and  O_18
REMARK                            x       y       z     vdW  Elec       q    Type
REMARK                         _______ _______ _______ _____ _____    ______ ____
ROOT
ATOM      1  C   UNL     1      -0.017   1.379   0.010  0.00  0.00    +0.046 A 
ATOM      2  C   UNL     1       1.170   2.088   0.002  0.00  0.00    -0.017 A 
ATOM      3  C   UNL     1       2.380   1.419  -0.013  0.00  0.00    +0.046 A 
ATOM      4  C   UNL     1       2.407   0.036  -0.022  0.00  0.00    +0.147 A 
ATOM      5  C   UNL     1       1.216  -0.681  -0.014  0.00  0.00    +0.101 A 
ATOM      6  C   UNL     1       0.002  -0.004   0.002  0.00  0.00    +0.147 A 
ATOM      7  F   UNL     1      -1.158  -0.696   0.010  0.00  0.00    -0.203 F 
ATOM      8  F   UNL     1       3.589  -0.617  -0.038  0.00  0.00    -0.203 F 
ENDROOT
BRANCH   5   9
ATOM      9  N   UNL     1       1.239  -2.081  -0.022  0.00  0.00    -0.323 N 
ATOM     10  C   UNL     1       1.245  -2.821  -1.291  0.00  0.00    +0.105 C 
ATOM     11  C   UNL     1       2.429  -3.794  -1.290  0.00  0.00    +0.021 C 
ATOM     12  C   UNL     1       2.353  -4.680  -0.044  0.00  0.00    +0.034 C 
ATOM     13  C   UNL     1       2.442  -3.809   1.210  0.00  0.00    +0.132 C 
ATOM     14  C   UNL     1       1.265  -2.837   1.237  0.00  0.00    +0.136 C 
BRANCH  13  15
ATOM     15  O   UNL     1       2.404  -4.640   2.372  0.00  0.00    -0.390 OA
ATOM     16  H   UNL     1       3.124  -5.283   2.420  0.00  0.00    +0.210 HD
ENDBRANCH  13  15
ENDBRANCH   5   9
BRANCH   2  17
ATOM     17  C   UNL     1       1.145   3.595   0.011  0.00  0.00    +0.191 C 
BRANCH  17  18
ATOM     18  O   UNL     1       1.150   4.064   1.360  0.00  0.00    -0.390 OA
ATOM     19  H   UNL     1       1.135   5.028   1.442  0.00  0.00    +0.210 HD
ENDBRANCH  17  18
ENDBRANCH   2  17
TORSDOF 4
