REMARK  Name = ZINC66603524
REMARK  9 active torsions:
REMARK  status: ('A' for Active; 'I' for Inactive)
REMARK    1  A    between atoms: C_1  and  C_2
REMARK    2  A    between atoms: C_2  and  C_4
REMARK    3  A    between atoms: C_2  and  N_21
REMARK    4  A    between atoms: C_4  and  C_5
REMARK    5  A    between atoms: C_13  and  C_15
REMARK    6  A    between atoms: N_17  and  C_18
REMARK    7  A    between atoms: C_18  and  C_19
REMARK    8  A    between atoms: C_18  and  C_20
REMARK    9  A    between atoms: C_22  and  C_24
REMARK                            x       y       z     vdW  Elec       q    Type
REMARK                         _______ _______ _______ _____ _____    ______ ____
ROOT
ATOM      1  C   UNL     1      -1.425  -2.048   0.205  0.00  0.00    +0.217 C 
ATOM      2  O   UNL     1      -0.368  -2.638   0.278  0.00  0.00    -0.276 OA
ATOM      3  N   UNL     1      -2.584  -2.737   0.214  0.00  0.00    -0.298 N 
ATOM      4  C   UNL     1      -3.872  -2.036   0.120  0.00  0.00    +0.127 C 
ATOM      5  C   UNL     1      -4.658  -2.612  -1.064  0.00  0.00    +0.127 C 
ATOM      6  N   UNL     1      -4.656  -4.078  -0.961  0.00  0.00    -0.291 N 
ATOM      7  C   UNL     1      -3.368  -4.779  -0.867  0.00  0.00    +0.127 C 
ATOM      8  C   UNL     1      -2.581  -4.203   0.312  0.00  0.00    +0.127 C 
ATOM      9  C   UNL     1      -5.814  -4.767  -0.952  0.00  0.00    +0.302 C 
ATOM     10  O   UNL     1      -5.799  -5.980  -0.963  0.00  0.00    -0.265 OA
ENDROOT
BRANCH   9  11
ATOM     11  C   UNL     1      -7.118  -4.036  -0.927  0.00  0.00    +0.299 C 
ATOM     12  O   UNL     1      -7.138  -2.827  -1.025  0.00  0.00    -0.265 OA
ATOM     13  N   UNL     1      -8.272  -4.721  -0.797  0.00  0.00    -0.305 N 
ATOM     14  H   UNL     1      -8.256  -5.688  -0.719  0.00  0.00    +0.149 HD
BRANCH  13  15
ATOM     15  C   UNL     1      -9.550  -4.005  -0.773  0.00  0.00    +0.067 C 
ATOM     16  C   UNL     1     -10.026  -3.763  -2.207  0.00  0.00    +0.027 C 
ATOM     17  C   UNL     1     -10.589  -4.841  -0.025  0.00  0.00    +0.027 C 
ENDBRANCH  13  15
ENDBRANCH   9  11
BRANCH   1  18
ATOM     18  C   UNL     1      -1.444  -0.545   0.104  0.00  0.00    +0.118 C 
BRANCH  18  20
ATOM     19  C   UNL     1      -0.029   1.514   0.138  0.00  0.00    +0.028 C 
ATOM     20  C   UNL     1      -0.008  -0.015   0.115  0.00  0.00    +0.079 C 
BRANCH  20  21
ATOM     21  N   UNL     1       0.691  -0.476  -1.088  0.00  0.00    -0.312 N 
ATOM     22  C   UNL     1       2.034  -0.587  -1.085  0.00  0.00    +0.216 C 
ATOM     23  O   UNL     1       2.664  -0.305  -0.088  0.00  0.00    -0.276 OA
ATOM     24  H   UNL     1       0.187  -0.701  -1.885  0.00  0.00    +0.149 HD
BRANCH  22  25
ATOM     25  C   UNL     1       2.753  -1.060  -2.322  0.00  0.00    +0.075 C 
ATOM     26  C   UNL     1       2.267  -2.464  -2.688  0.00  0.00    +0.013 C 
ATOM     27  C   UNL     1       2.997  -2.945  -3.944  0.00  0.00    +0.001 C 
ATOM     28  C   UNL     1       4.503  -2.980  -3.676  0.00  0.00    +0.000 C 
ATOM     29  C   UNL     1       4.989  -1.577  -3.310  0.00  0.00    +0.001 C 
ATOM     30  C   UNL     1       4.259  -1.096  -2.054  0.00  0.00    +0.013 C 
ENDBRANCH  22  25
ENDBRANCH  20  21
ENDBRANCH  18  20
ENDBRANCH   1  18
TORSDOF 6
