REMARK  Name = ZINC57219642
REMARK  6 active torsions:
REMARK  status: ('A' for Active; 'I' for Inactive)
REMARK    1  A    between atoms: C_1  and  C_2
REMARK    2  A    between atoms: C_3  and  C_27
REMARK    3  A    between atoms: C_6  and  C_13
REMARK    4  A    between atoms: N_15  and  C_16
REMARK    5  A    between atoms: C_16  and  C_18
REMARK    6  A    between atoms: C_16  and  C_19
REMARK                            x       y       z     vdW  Elec       q    Type
REMARK                         _______ _______ _______ _____ _____    ______ ____
ROOT
ATOM      1  C   UNL     1      -0.155  -5.020  -1.150  0.00  0.00    +0.247 C 
ATOM      2  O   UNL     1      -0.092  -4.298  -2.126  0.00  0.00    -0.270 OA
ATOM      3  N   UNL     1      -0.078  -6.358  -1.297  0.00  0.00    -0.300 N 
ATOM      4  H   UNL     1      -0.129  -6.935  -0.518  0.00  0.00    +0.150 HD
ENDROOT
BRANCH   1  10
ATOM      5  C   UNL     1      -0.648   1.119   0.944  0.00  0.00    +0.067 C 
ATOM      6  C   UNL     1      -0.560  -0.375   0.764  0.00  0.00    +0.060 A 
ATOM      7  C   UNL     1      -0.408  -0.908  -0.517  0.00  0.00    +0.060 A 
ATOM      8  N   UNL     1      -0.330  -2.208  -0.697  0.00  0.00    -0.248 NA
ATOM      9  C   UNL     1      -0.397  -3.027   0.355  0.00  0.00    +0.102 A 
ATOM     10  C   UNL     1      -0.316  -4.433   0.193  0.00  0.00    +0.067 A 
ATOM     11  C   UNL     1      -0.389  -5.251   1.310  0.00  0.00    +0.053 A 
ATOM     12  C   UNL     1      -0.541  -4.703   2.581  0.00  0.00    +0.126 A 
ATOM     13  C   UNL     1      -0.622  -3.353   2.761  0.00  0.00    +0.068 A 
ATOM     14  C   UNL     1      -0.552  -2.487   1.655  0.00  0.00    +0.093 A 
ATOM     15  N   UNL     1      -0.624  -1.161   1.814  0.00  0.00    -0.248 NA
ATOM     16  F   UNL     1      -0.611  -5.521   3.654  0.00  0.00    -0.205 F 
ATOM     17  C   UNL     1      -0.332   0.015  -1.706  0.00  0.00    +0.067 C 
ENDBRANCH   1  10
BRANCH   3  18
ATOM     18  C   UNL     1       0.081  -6.941  -2.631  0.00  0.00    +0.156 C 
ATOM     19  C   UNL     1      -1.292  -7.095  -3.288  0.00  0.00    +0.038 C 
BRANCH  18  20
ATOM     20  C   UNL     1       0.737  -8.293  -2.514  0.00  0.00    +0.236 C 
ATOM     21  O   UNL     1       0.746  -8.872  -1.448  0.00  0.00    -0.274 OA
ATOM     22  N   UNL     1       1.312  -8.859  -3.593  0.00  0.00    -0.300 N 
ATOM     23  C   UNL     1       1.412  -8.123  -4.860  0.00  0.00    +0.108 C 
ATOM     24  C   UNL     1       2.874  -8.125  -5.318  0.00  0.00    +0.019 C 
ATOM     25  C   UNL     1       3.381  -9.567  -5.387  0.00  0.00    +0.003 C 
ATOM     26  C   UNL     1       3.309 -10.202  -3.996  0.00  0.00    +0.019 C 
ATOM     27  C   UNL     1       1.857 -10.222  -3.522  0.00  0.00    +0.108 C 
ENDBRANCH  18  20
ENDBRANCH   3  18
TORSDOF 3
