REMARK  Name = ZINC20418782
REMARK  10 active torsions:
REMARK  status: ('A' for Active; 'I' for Inactive)
REMARK    1  A    between atoms: C_1  and  C_2
REMARK    2  A    between atoms: C_7  and  N_8
REMARK    3  A    between atoms: C_9  and  C_11
REMARK    4  A    between atoms: C_12  and  C_40
REMARK    5  A    between atoms: C_16  and  C_18
REMARK    6  A    between atoms: C_27  and  C_30
REMARK    7  A    between atoms: C_33  and  O_38
REMARK    8  A    between atoms: C_34  and  O_36
REMARK    9  A    between atoms: O_36  and  C_37
REMARK   10  A    between atoms: O_38  and  C_39
REMARK                            x       y       z     vdW  Elec       q    Type
REMARK                         _______ _______ _______ _____ _____    ______ ____
ROOT
ATOM      1  C   UNL     1       6.242  -3.530   7.741  0.00  0.00    +0.043 C 
ATOM      2  C   UNL     1       6.840  -3.193   6.586  0.00  0.00    +0.014 C 
ATOM      3  N   UNL     1       6.098  -2.999   5.453  0.00  0.00    -0.321 N 
ATOM      4  C   UNL     1       4.755  -2.750   5.533  0.00  0.00    +0.016 C 
ATOM      5  C   UNL     1       4.064  -3.070   6.648  0.00  0.00    +0.024 C 
ATOM      6  C   UNL     1       4.755  -3.712   7.825  0.00  0.00    +0.090 C 
ATOM      7  C   UNL     1       2.684  -2.821   6.743  0.00  0.00    +0.162 C 
ATOM      8  O   UNL     1       2.095  -3.105   7.768  0.00  0.00    -0.292 OA
ATOM      9  C   UNL     1       1.919  -2.212   5.599  0.00  0.00    +0.088 C 
ATOM     10  C   UNL     1       2.615  -2.578   4.284  0.00  0.00    +0.032 C 
ATOM     11  C   UNL     1       4.070  -2.107   4.353  0.00  0.00    +0.059 C 
ATOM     12  C   UNL     1       8.337  -3.027   6.538  0.00  0.00    +0.061 C 
ATOM     13  H   UNL     1       6.581  -3.043   4.466  0.00  0.00    +0.152 HD
ENDROOT
BRANCH   6  14
ATOM     14  C   UNL     1       4.438  -5.185   7.842  0.00  0.00    -0.035 A 
ATOM     15  C   UNL     1       4.785  -5.980   6.765  0.00  0.00    +0.004 A 
ATOM     16  C   UNL     1       4.497  -7.332   6.783  0.00  0.00    +0.000 A 
ATOM     17  C   UNL     1       3.855  -7.888   7.874  0.00  0.00    +0.000 A 
ATOM     18  C   UNL     1       3.504  -7.092   8.948  0.00  0.00    +0.000 A 
ATOM     19  C   UNL     1       3.795  -5.741   8.932  0.00  0.00    +0.004 A 
ENDBRANCH   6  14
BRANCH  10  20
ATOM     20  C   UNL     1       1.917  -1.898   3.135  0.00  0.00    -0.040 A 
ATOM     21  C   UNL     1       1.829  -0.519   3.100  0.00  0.00    +0.008 A 
ATOM     22  C   UNL     1       1.194   0.110   2.045  0.00  0.00    +0.049 A 
ATOM     23  C   UNL     1       0.634  -0.643   1.026  0.00  0.00    +0.161 A 
ATOM     24  C   UNL     1       0.722  -2.031   1.061  0.00  0.00    +0.162 A 
ATOM     25  C   UNL     1       1.365  -2.655   2.118  0.00  0.00    +0.053 A 
BRANCH  24  26
ATOM     26  O   UNL     1       0.178  -2.774   0.060  0.00  0.00    -0.491 OA
ATOM     27  C   UNL     1       0.306  -4.194   0.163  0.00  0.00    +0.277 C 
ENDBRANCH  24  26
BRANCH  23  28
ATOM     28  O   UNL     1       0.004  -0.026  -0.010  0.00  0.00    -0.491 OA
ATOM     29  C   UNL     1      -0.048   1.401   0.020  0.00  0.00    +0.277 C 
ENDBRANCH  23  28
ENDBRANCH  10  20
BRANCH   1  31
ATOM     30  N   UNL     1       7.697  -4.874   9.086  0.00  0.00    -0.281 N 
ATOM     31  C   UNL     1       7.032  -3.716   8.902  0.00  0.00    +0.247 C 
ATOM     32  O   UNL     1       7.109  -2.831   9.735  0.00  0.00    -0.270 OA
ATOM     33  H   UNL     1       7.680  -5.648   8.305  0.00  0.00    +0.155 HD
BRANCH  30  40
ATOM     34  C   UNL     1       8.112  -7.559   9.931  0.00  0.00    +0.045 C 
ATOM     35  C   UNL     1       8.634  -6.386  10.719  0.00  0.00    -0.029 A 
ATOM     36  C   UNL     1       9.342  -6.597  11.886  0.00  0.00    +0.005 A 
ATOM     37  C   UNL     1       9.816  -5.521  12.613  0.00  0.00    +0.000 A 
ATOM     38  C   UNL     1       9.588  -4.230  12.172  0.00  0.00    +0.002 A 
ATOM     39  C   UNL     1       8.886  -4.012  11.003  0.00  0.00    +0.023 A 
ATOM     40  C   UNL     1       8.408  -5.091  10.270  0.00  0.00    +0.037 A 
ENDBRANCH  30  40
ENDBRANCH   1  31
TORSDOF 6
