REMARK  Name = ZINC63831503
REMARK  7 active torsions:
REMARK  status: ('A' for Active; 'I' for Inactive)
REMARK    1  A    between atoms: C_7  and  C_10
REMARK    2  A    between atoms: C_10  and  C_11
REMARK    3  A    between atoms: C_11  and  C_12
REMARK    4  A    between atoms: N_14  and  C_15
REMARK    5  A    between atoms: C_18  and  N_21
REMARK    6  A    between atoms: N_21  and  S_22
REMARK    7  A    between atoms: S_22  and  C_25
REMARK                            x       y       z     vdW  Elec       q    Type
REMARK                         _______ _______ _______ _____ _____    ______ ____
ROOT
ATOM      1  C   UNL     1      -2.055  -6.221  -2.314  0.00  0.00    +0.033 A 
ATOM      2  C   UNL     1      -2.649  -6.678  -1.145  0.00  0.00    +0.025 A 
ATOM      3  C   UNL     1      -3.493  -7.770  -1.182  0.00  0.00    +0.026 A 
ATOM      4  C   UNL     1      -3.747  -8.412  -2.387  0.00  0.00    +0.048 A 
ATOM      5  C   UNL     1      -3.152  -7.955  -3.556  0.00  0.00    +0.026 A 
ATOM      6  C   UNL     1      -2.312  -6.859  -3.520  0.00  0.00    +0.025 A 
ENDROOT
BRANCH   1   9
ATOM      7  C   UNL     1      -1.183  -4.238  -3.303  0.00  0.00    +0.217 C 
ATOM      8  O   UNL     1      -1.846  -4.456  -4.295  0.00  0.00    -0.275 OA
ATOM      9  N   UNL     1      -1.199  -5.112  -2.277  0.00  0.00    -0.285 N 
ATOM     10  H   UNL     1      -0.617  -4.973  -1.513  0.00  0.00    +0.155 HD
BRANCH   7  11
ATOM     11  C   UNL     1      -0.342  -2.991  -3.218  0.00  0.00    +0.100 C 
BRANCH  11  12
ATOM     12  C   UNL     1      -0.502  -2.178  -4.504  0.00  0.00    +0.042 C 
BRANCH  12  19
ATOM     13  C   UNL     1       3.733  -1.190  -5.967  0.00  0.00    +0.001 A 
ATOM     14  C   UNL     1       4.138   0.119  -5.672  0.00  0.00    +0.002 A 
ATOM     15  C   UNL     1       3.348   0.997  -5.019  0.00  0.00    +0.026 A 
ATOM     16  C   UNL     1       2.045   0.616  -4.597  0.00  0.00    +0.043 A 
ATOM     17  N   UNL     1       1.107   1.272  -3.959  0.00  0.00    -0.380 N 
ATOM     18  C   UNL     1      -0.048   0.385  -3.782  0.00  0.00    +0.144 C 
ATOM     19  C   UNL     1       0.339  -0.931  -4.419  0.00  0.00    -0.041 C 
ATOM     20  C   UNL     1       1.593  -0.762  -4.897  0.00  0.00    -0.001 A 
ATOM     21  C   UNL     1       2.514  -1.654  -5.611  0.00  0.00    +0.010 A 
ATOM     22  H   UNL     1       1.166   2.192  -3.655  0.00  0.00    +0.160 HD
ENDBRANCH  12  19
ENDBRANCH  11  12
ENDBRANCH   7  11
ENDBRANCH   1   9
BRANCH   4  23
ATOM     23  N   UNL     1      -4.601  -9.519  -2.424  0.00  0.00    -0.216 N 
ATOM     24  H   UNL     1      -4.515 -10.220  -1.759  0.00  0.00    +0.174 HD
BRANCH  23  25
ATOM     25  S   UNL     1      -5.759  -9.632  -3.602  0.00  0.00    +0.072 S 
ATOM     26  O   UNL     1      -5.100  -9.412  -4.842  0.00  0.00    -0.150 OA
ATOM     27  O   UNL     1      -6.499 -10.815  -3.332  0.00  0.00    -0.150 OA
BRANCH  25  28
ATOM     28  C   UNL     1      -6.868  -8.282  -3.374  0.00  0.00    +0.112 A 
ATOM     29  C   UNL     1      -7.910  -8.391  -2.473  0.00  0.00    +0.032 A 
ATOM     30  C   UNL     1      -8.785  -7.335  -2.288  0.00  0.00    +0.051 A 
ATOM     31  C   UNL     1      -8.612  -6.167  -3.010  0.00  0.00    +0.162 A 
ATOM     32  C   UNL     1      -7.566  -6.057  -3.915  0.00  0.00    +0.164 A 
ATOM     33  C   UNL     1      -6.690  -7.114  -4.094  0.00  0.00    +0.078 A 
ATOM     34  O   UNL     1      -7.403  -4.901  -4.621  0.00  0.00    -0.488 OA
ATOM     35  C   UNL     1      -8.412  -4.614  -5.592  0.00  0.00    +0.232 C 
ATOM     36  C   UNL     1      -9.601  -3.922  -4.946  0.00  0.00    +0.082 C 
ATOM     37  C   UNL     1     -10.317  -4.814  -3.944  0.00  0.00    +0.232 C 
ATOM     38  O   UNL     1      -9.466  -5.117  -2.837  0.00  0.00    -0.488 OA
ENDBRANCH  25  28
ENDBRANCH  23  25
ENDBRANCH   4  23
TORSDOF 7
