REMARK  Name = ZINC35310595
REMARK  7 active torsions:
REMARK  status: ('A' for Active; 'I' for Inactive)
REMARK    1  A    between atoms: C_1  and  C_2
REMARK    2  A    between atoms: C_5  and  C_16
REMARK    3  A    between atoms: C_7  and  N_8
REMARK    4  A    between atoms: C_9  and  C_11
REMARK    5  A    between atoms: N_18  and  C_19
REMARK    6  A    between atoms: C_23  and  S_25
REMARK    7  A    between atoms: S_25  and  N_28
REMARK                            x       y       z     vdW  Elec       q    Type
REMARK                         _______ _______ _______ _____ _____    ______ ____
ROOT
ATOM      1  C   UNL     1      -0.163  -4.362   0.303  0.00  0.00    +0.248 C 
ATOM      2  O   UNL     1      -0.115  -4.917   1.384  0.00  0.00    -0.270 OA
ATOM      3  N   UNL     1      -0.236  -5.094  -0.826  0.00  0.00    -0.281 N 
ATOM      4  H   UNL     1      -0.189  -4.657  -1.691  0.00  0.00    +0.155 HD
ENDROOT
BRANCH   1   9
ATOM      5  C   UNL     1      -0.074   1.388  -0.006  0.00  0.00    +0.045 C 
ATOM      6  C   UNL     1      -0.097  -0.117   0.077  0.00  0.00    -0.029 A 
ATOM      7  C   UNL     1      -0.172  -0.869  -1.080  0.00  0.00    +0.006 A 
ATOM      8  C   UNL     1      -0.194  -2.247  -1.012  0.00  0.00    +0.013 A 
ATOM      9  C   UNL     1      -0.139  -2.886   0.228  0.00  0.00    +0.039 A 
ATOM     10  C   UNL     1      -0.063  -2.127   1.395  0.00  0.00    +0.036 A 
ATOM     11  C   UNL     1      -0.037  -0.743   1.316  0.00  0.00    +0.037 A 
BRANCH  11  12
ATOM     12  N   UNL     1       0.045   0.023   2.484  0.00  0.00    -0.279 N 
ATOM     13  C   UNL     1      -0.570  -0.395   3.608  0.00  0.00    +0.284 C 
ATOM     14  O   UNL     1      -1.125  -1.478   3.632  0.00  0.00    -0.266 OA
ATOM     15  H   UNL     1       0.544   0.854   2.484  0.00  0.00    +0.155 HD
BRANCH  13  16
ATOM     16  C   UNL     1      -0.571   0.456   4.802  0.00  0.00    +0.189 A 
ATOM     17  C   UNL     1      -1.148   0.153   6.002  0.00  0.00    +0.054 A 
ATOM     18  C   UNL     1      -0.907   1.244   6.852  0.00  0.00    +0.042 A 
ATOM     19  C   UNL     1      -0.201   2.152   6.143  0.00  0.00    +0.196 A 
ATOM     20  O   UNL     1       0.004   1.671   4.910  0.00  0.00    -0.458 OA
ENDBRANCH  13  16
ENDBRANCH  11  12
ENDBRANCH   1   9
BRANCH   3  21
ATOM     21  C   UNL     1      -0.382  -6.483  -0.752  0.00  0.00    +0.036 A 
ATOM     22  C   UNL     1       0.072  -7.287  -1.790  0.00  0.00    +0.023 A 
ATOM     23  C   UNL     1      -0.073  -8.658  -1.713  0.00  0.00    +0.004 A 
ATOM     24  C   UNL     1      -0.668  -9.231  -0.604  0.00  0.00    +0.029 A 
ATOM     25  C   UNL     1      -1.121  -8.434   0.431  0.00  0.00    +0.114 A 
ATOM     26  C   UNL     1      -0.974  -7.062   0.363  0.00  0.00    +0.052 A 
BRANCH  25  27
ATOM     27  S   UNL     1      -1.878  -9.169   1.842  0.00  0.00    +0.100 S 
ATOM     28  O   UNL     1      -2.707  -8.171   2.424  0.00  0.00    -0.146 OA
ATOM     29  O   UNL     1      -2.384 -10.428   1.421  0.00  0.00    -0.146 OA
BRANCH  27  30
ATOM     30  N   UNL     1      -0.676  -9.483   2.936  0.00  0.00    -0.118 NA
ATOM     31  C   UNL     1      -0.962 -10.029   4.072  0.00  0.00    +0.117 C 
ATOM     32  N   UNL     1      -2.217 -10.396   4.479  0.00  0.00    -0.331 N 
ATOM     33  C   UNL     1      -2.106 -11.391   5.557  0.00  0.00    +0.103 C 
ATOM     34  C   UNL     1      -0.785 -11.036   6.276  0.00  0.00    +0.026 C 
ATOM     35  C   UNL     1       0.039 -10.367   5.155  0.00  0.00    +0.074 C 
ATOM     36  H   UNL     1      -3.049 -10.054   4.114  0.00  0.00    +0.147 HD
ENDBRANCH  27  30
ENDBRANCH  25  27
ENDBRANCH   3  21
TORSDOF 6
