REMARK  Name = ZINC63708373
REMARK  8 active torsions:
REMARK  status: ('A' for Active; 'I' for Inactive)
REMARK    1  A    between atoms: C_1  and  O_2
REMARK    2  A    between atoms: O_2  and  C_3
REMARK    3  A    between atoms: C_3  and  C_5
REMARK    4  A    between atoms: C_12  and  S_25
REMARK    5  A    between atoms: N_14  and  C_17
REMARK    6  A    between atoms: C_17  and  C_18
REMARK    7  A    between atoms: S_25  and  C_26
REMARK    8  A    between atoms: C_26  and  C_27
REMARK                            x       y       z     vdW  Elec       q    Type
REMARK                         _______ _______ _______ _____ _____    ______ ____
ROOT
ATOM      1  C   UNL     1       0.680  -2.090   1.091  0.00  0.00    +0.061 A 
ATOM      2  C   UNL     1       0.098  -2.852   0.073  0.00  0.00    +0.016 A 
ATOM      3  C   UNL     1       0.153  -4.228   0.115  0.00  0.00    +0.016 A 
ATOM      4  C   UNL     1       0.794  -4.863   1.176  0.00  0.00    +0.058 A 
ATOM      5  C   UNL     1       1.369  -4.100   2.208  0.00  0.00    +0.042 A 
ATOM      6  C   UNL     1       1.320  -2.718   2.158  0.00  0.00    +0.038 A 
ATOM      7  N   UNL     1       1.971  -4.772   3.267  0.00  0.00    -0.317 N 
ATOM      8  C   UNL     1       2.559  -6.094   3.023  0.00  0.00    +0.222 C 
ATOM      9  N   UNL     1       1.663  -6.902   2.196  0.00  0.00    -0.266 N 
ATOM     10  C   UNL     1       0.878  -6.334   1.258  0.00  0.00    +0.251 C 
ATOM     11  O   UNL     1       0.245  -7.029   0.486  0.00  0.00    -0.270 OA
ATOM     12  H   UNL     1       2.002  -4.373   4.151  0.00  0.00    +0.149 HD
ENDROOT
BRANCH   1  13
ATOM     13  C   UNL     1       0.620  -0.613   1.032  0.00  0.00    +0.339 C 
ATOM     14  O   UNL     1       1.129   0.051   1.913  0.00  0.00    -0.245 OA
BRANCH  13  16
ATOM     15  C   UNL     1      -0.017   1.425   0.010  0.00  0.00    +0.280 C 
ATOM     16  O   UNL     1       0.002  -0.004   0.002  0.00  0.00    -0.464 OA
ENDBRANCH  13  16
ENDBRANCH   1  13
BRANCH   9  17
ATOM     17  C   UNL     1       1.617  -8.353   2.390  0.00  0.00    +0.145 C 
BRANCH  17  18
ATOM     18  C   UNL     1       0.568  -8.689   3.419  0.00  0.00    -0.030 A 
ATOM     19  C   UNL     1       0.908  -8.748   4.758  0.00  0.00    +0.006 A 
ATOM     20  C   UNL     1      -0.054  -9.056   5.702  0.00  0.00    +0.020 A 
ATOM     21  C   UNL     1      -1.356  -9.306   5.307  0.00  0.00    +0.041 A 
ATOM     22  C   UNL     1      -1.695  -9.247   3.967  0.00  0.00    +0.020 A 
ATOM     23  C   UNL     1      -0.734  -8.934   3.025  0.00  0.00    +0.006 A 
ATOM     24 CL   UNL     1      -2.563  -9.694   6.492  0.00  0.00    -0.084 Cl
ENDBRANCH  17  18
ENDBRANCH   9  17
BRANCH   8  25
ATOM     25  S   UNL     1       4.146  -5.896   2.165  0.00  0.00    -0.115 S 
BRANCH  25  26
ATOM     26  C   UNL     1       3.709  -5.045   0.624  0.00  0.00    +0.119 C 
BRANCH  26  27
ATOM     27  C   UNL     1       4.973  -4.813  -0.206  0.00  0.00    +0.184 C 
ATOM     28  N   UNL     1       5.647  -6.092  -0.466  0.00  0.00    -0.363 N 
ATOM     29  C   UNL     1       6.834  -6.022   0.064  0.00  0.00    +0.060 A 
ATOM     30  C   UNL     1       7.955  -6.970   0.133  0.00  0.00    +0.027 A 
ATOM     31  C   UNL     1       9.091  -6.612   0.764  0.00  0.00    +0.002 A 
ATOM     32  C   UNL     1       9.257  -5.354   1.370  0.00  0.00    +0.002 A 
ATOM     33  C   UNL     1       8.293  -4.412   1.365  0.00  0.00    +0.027 A 
ATOM     34  C   UNL     1       7.011  -4.690   0.705  0.00  0.00    +0.060 A 
ATOM     35  N   UNL     1       5.926  -3.988   0.547  0.00  0.00    -0.363 N 
ATOM     36  H   UNL     1       5.276  -6.849  -0.945  0.00  0.00    +0.162 HD
ATOM     37  H   UNL     1       5.775  -3.085   0.867  0.00  0.00    +0.162 HD
ENDBRANCH  26  27
ENDBRANCH  25  26
ENDBRANCH   8  25
TORSDOF 7
