REMARK  Name = ZINC09692161
REMARK  11 active torsions:
REMARK  status: ('A' for Active; 'I' for Inactive)
REMARK    1  A    between atoms: C_1  and  C_2
REMARK    2  A    between atoms: C_2  and  C_3
REMARK    3  A    between atoms: C_12  and  S_14
REMARK    4  A    between atoms: S_14  and  N_17
REMARK    5  A    between atoms: N_17  and  C_18
REMARK    6  A    between atoms: C_18  and  C_20
REMARK    7  A    between atoms: C_18  and  C_23
REMARK    8  A    between atoms: C_20  and  C_21
REMARK    9  A    between atoms: C_20  and  C_22
REMARK   10  A    between atoms: N_25  and  C_26
REMARK   11  A    between atoms: C_26  and  C_27
REMARK                            x       y       z     vdW  Elec       q    Type
REMARK                         _______ _______ _______ _____ _____    ______ ____
ROOT
ATOM      1  N   UNL     1       1.316  -3.005  -2.052  0.00  0.00    -0.178 NA
ATOM      2  H   UNL     1       1.264  -2.705  -2.974  0.00  0.00    +0.149 HD
ENDROOT
BRANCH   1   3
ATOM      3  S   UNL     1       2.330  -4.248  -1.641  0.00  0.00    +0.059 S 
ATOM      4  O   UNL     1       2.909  -4.717  -2.852  0.00  0.00    -0.153 OA
ATOM      5  O   UNL     1       3.115  -3.788  -0.550  0.00  0.00    -0.153 OA
BRANCH   3  15
ATOM      6  C   UNL     1      -1.549  -9.041   1.450  0.00  0.00    +0.220 C 
ATOM      7  O   UNL     1      -1.311  -8.324   2.398  0.00  0.00    -0.275 OA
ATOM      8  N   UNL     1      -1.055  -8.737   0.233  0.00  0.00    -0.271 N 
ATOM      9  C   UNL     1      -1.273  -9.524  -0.983  0.00  0.00    +0.118 C 
ATOM     10  C   UNL     1      -0.515  -8.774  -2.091  0.00  0.00    +0.056 C 
ATOM     11  C   UNL     1       0.095  -7.579  -1.392  0.00  0.00    -0.023 A 
ATOM     12  C   UNL     1      -0.259  -7.623  -0.053  0.00  0.00    +0.040 A 
ATOM     13  C   UNL     1       0.192  -6.615   0.801  0.00  0.00    +0.026 A 
ATOM     14  C   UNL     1       0.983  -5.595   0.315  0.00  0.00    +0.030 A 
ATOM     15  C   UNL     1       1.325  -5.557  -1.024  0.00  0.00    +0.106 A 
ATOM     16  C   UNL     1       0.882  -6.552  -1.875  0.00  0.00    +0.034 A 
BRANCH   6  18
ATOM     17  C   UNL     1      -2.826 -10.386   3.096  0.00  0.00    +0.013 C 
ATOM     18  C   UNL     1      -2.397 -10.274   1.632  0.00  0.00    +0.093 C 
ENDBRANCH   6  18
ENDBRANCH   3  15
ENDBRANCH   1   3
BRANCH   1  19
ATOM     19  C   UNL     1       0.498  -2.357  -1.024  0.00  0.00    +0.165 C 
BRANCH  19  20
ATOM     20  C   UNL     1       1.204  -1.124  -0.523  0.00  0.00    +0.232 C 
ATOM     21  O   UNL     1       2.076  -0.611  -1.192  0.00  0.00    -0.274 OA
ATOM     22  N   UNL     1       0.866  -0.591   0.668  0.00  0.00    -0.310 N 
ATOM     23  H   UNL     1       0.121  -0.958   1.169  0.00  0.00    +0.149 HD
BRANCH  22  24
ATOM     24  C   UNL     1       1.624   0.542   1.205  0.00  0.00    +0.139 C 
BRANCH  24  25
ATOM     25  C   UNL     1       1.049   0.944   2.538  0.00  0.00    -0.030 A 
ATOM     26  C   UNL     1       0.045   1.892   2.600  0.00  0.00    +0.006 A 
ATOM     27  C   UNL     1      -0.487   2.257   3.822  0.00  0.00    +0.020 A 
ATOM     28  C   UNL     1      -0.007   1.683   4.985  0.00  0.00    +0.041 A 
ATOM     29  C   UNL     1       1.002   0.738   4.923  0.00  0.00    +0.020 A 
ATOM     30  C   UNL     1       1.530   0.369   3.700  0.00  0.00    +0.006 A 
ATOM     31 CL   UNL     1      -0.670   2.146   6.521  0.00  0.00    -0.084 Cl
ENDBRANCH  24  25
ENDBRANCH  22  24
ENDBRANCH  19  20
BRANCH  19  32
ATOM     32  C   UNL     1      -0.854  -1.963  -1.623  0.00  0.00    +0.010 C 
ATOM     33  C   UNL     1      -0.634  -1.004  -2.794  0.00  0.00    +0.009 C 
ATOM     34  C   UNL     1      -1.577  -3.217  -2.119  0.00  0.00    +0.009 C 
ENDBRANCH  19  32
ENDBRANCH   1  19
TORSDOF 8
