REMARK  Name = ZINC39448662
REMARK  5 active torsions:
REMARK  status: ('A' for Active; 'I' for Inactive)
REMARK    1  A    between atoms: C_4  and  C_7
REMARK    2  A    between atoms: C_7  and  C_10
REMARK    3  A    between atoms: N_8  and  O_9
REMARK    4  A    between atoms: N_11  and  O_12
REMARK    5  A    between atoms: C_18  and  C_20
REMARK                            x       y       z     vdW  Elec       q    Type
REMARK                         _______ _______ _______ _____ _____    ______ ____
ROOT
ATOM      1  C   UNL     1       3.708  -2.168   0.067  0.00  0.00    +0.193 C 
ATOM      2  N   UNL     1       2.586  -2.825   0.074  0.00  0.00    -0.069 NA
ATOM      3  N   UNL     1       4.912  -2.852   0.161  0.00  0.00    -0.264 N 
ATOM      4  C   UNL     1       4.919  -4.234   0.263  0.00  0.00    +0.221 A 
ATOM      5  N   UNL     1       3.766  -4.887   0.263  0.00  0.00    -0.223 NA
ATOM      6  C   UNL     1       3.728  -6.207   0.358  0.00  0.00    +0.116 A 
ATOM      7  C   UNL     1       4.912  -6.913   0.458  0.00  0.00    +0.049 A 
ATOM      8  C   UNL     1       6.116  -6.197   0.455  0.00  0.00    +0.083 A 
ATOM      9  N   UNL     1       6.077  -4.868   0.351  0.00  0.00    -0.214 NA
ATOM     10  H   UNL     1       5.750  -2.362   0.156  0.00  0.00    +0.157 HD
ENDROOT
BRANCH   8  11
ATOM     11  C   UNL     1       7.407  -6.903   0.560  0.00  0.00    +0.039 A 
ATOM     12  C   UNL     1       8.676  -6.384   0.580  0.00  0.00    +0.019 A 
ATOM     13  C   UNL     1       9.742  -7.247   0.685  0.00  0.00    +0.023 A 
ATOM     14  C   UNL     1       9.506  -8.585   0.766  0.00  0.00    +0.056 A 
ATOM     15  S   UNL     1       7.723  -8.655   0.701  0.00  0.00    -0.080 S 
ATOM     16 BR   UNL     1      10.747 -10.004   0.917  0.00  0.00    -0.043 Br
ENDBRANCH   8  11
BRANCH   1  17
ATOM     17  C   UNL     1       3.701  -0.693  -0.042  0.00  0.00    +0.153 C 
ATOM     18  N   UNL     1       4.824  -0.043  -0.157  0.00  0.00    -0.083 NA
BRANCH  17  22
ATOM     19  C   UNL     1       0.017   1.427   0.023  0.00  0.00    +0.000 A 
ATOM     20  C   UNL     1       0.636   1.085   1.212  0.00  0.00    +0.001 A 
ATOM     21  C   UNL     1       1.832   0.397   1.198  0.00  0.00    +0.010 A 
ATOM     22  C   UNL     1       2.416   0.046  -0.019  0.00  0.00    +0.007 A 
ATOM     23  C   UNL     1       1.787   0.392  -1.214  0.00  0.00    +0.010 A 
ATOM     24  C   UNL     1       0.591   1.081  -1.187  0.00  0.00    +0.001 A 
ENDBRANCH  17  22
BRANCH  18  25
ATOM     25  O   UNL     1       4.825   1.373  -0.153  0.00  0.00    -0.409 OA
ATOM     26  H   UNL     1       5.705   1.765  -0.244  0.00  0.00    +0.328 HD
ENDBRANCH  18  25
ENDBRANCH   1  17
BRANCH   2  27
ATOM     27  O   UNL     1       1.355  -2.124   0.088  0.00  0.00    -0.408 OA
ATOM     28  H   UNL     1       0.579  -2.695   0.170  0.00  0.00    +0.328 HD
ENDBRANCH   2  27
TORSDOF 5
