REMARK  Name = ZINC51284797
REMARK  10 active torsions:
REMARK  status: ('A' for Active; 'I' for Inactive)
REMARK    1  A    between atoms: C_1  and  C_2
REMARK    2  A    between atoms: C_2  and  C_3
REMARK    3  A    between atoms: C_4  and  C_29
REMARK    4  A    between atoms: C_5  and  C_28
REMARK    5  A    between atoms: C_8  and  C_9
REMARK    6  A    between atoms: C_14  and  C_17
REMARK    7  A    between atoms: C_17  and  N_18
REMARK    8  A    between atoms: C_20  and  C_27
REMARK    9  A    between atoms: C_23  and  C_26
REMARK   10  A    between atoms: C_29  and  C_31
REMARK                            x       y       z     vdW  Elec       q    Type
REMARK                         _______ _______ _______ _____ _____    ______ ____
ROOT
ATOM      1  C   UNL     1      -1.694  -0.939  -2.487  0.00  0.00    +0.266 C 
ATOM      2  O   UNL     1      -0.544  -0.655  -2.767  0.00  0.00    -0.268 OA
ATOM      3  N   UNL     1      -2.564  -1.266  -3.463  0.00  0.00    -0.259 N 
ATOM      4  C   UNL     1      -2.149  -1.280  -4.788  0.00  0.00    +0.165 A 
ATOM      5  N   UNL     1      -2.853  -1.565  -5.862  0.00  0.00    -0.228 NA
ATOM      6  C   UNL     1      -2.307  -1.533  -7.064  0.00  0.00    +0.064 A 
ATOM      7  C   UNL     1      -0.997  -1.193  -7.136  0.00  0.00    +0.073 A 
ATOM      8  S   UNL     1      -0.626  -0.927  -5.410  0.00  0.00    -0.060 S 
ATOM      9  H   UNL     1      -3.481  -1.492  -3.239  0.00  0.00    +0.157 HD
ENDROOT
BRANCH   1  15
ATOM     10  C   UNL     1      -1.356  -0.613  -0.011  0.00  0.00    -0.007 A 
ATOM     11  C   UNL     1      -2.178  -0.719   1.137  0.00  0.00    +0.041 A 
ATOM     12  C   UNL     1      -3.436  -1.102   0.700  0.00  0.00    +0.024 A 
ATOM     13  N   UNL     1      -3.400  -1.226  -0.635  0.00  0.00    -0.354 N 
ATOM     14  H   UNL     1      -4.148  -1.484  -1.195  0.00  0.00    +0.166 HD
ATOM     15  C   UNL     1      -2.133  -0.924  -1.086  0.00  0.00    +0.106 A 
ATOM     16  C   UNL     1      -4.640  -1.339   1.575  0.00  0.00    +0.064 C 
BRANCH  11  17
ATOM     17  C   UNL     1      -1.774  -0.471   2.525  0.00  0.00    +0.162 C 
ATOM     18  O   UNL     1      -1.947   0.622   3.021  0.00  0.00    -0.292 OA
ATOM     19  C   UNL     1      -1.146  -1.576   3.335  0.00  0.00    +0.091 C 
ENDBRANCH  11  17
BRANCH  10  21
ATOM     20  C   UNL     1       0.218   1.296  -0.180  0.00  0.00    +0.009 C 
ATOM     21  C   UNL     1       0.099  -0.223  -0.038  0.00  0.00    +0.035 C 
ENDBRANCH  10  21
ENDBRANCH   1  15
BRANCH   6  22
ATOM     22  C   UNL     1      -3.105  -1.859  -8.300  0.00  0.00    +0.140 C 
BRANCH  22  23
ATOM     23  N   UNL     1      -3.110  -3.313  -8.509  0.00  0.00    -0.292 NA
ATOM     24  C   UNL     1      -3.845  -3.997  -7.436  0.00  0.00    +0.116 C 
ATOM     25  C   UNL     1      -3.776  -5.510  -7.661  0.00  0.00    +0.130 C 
ATOM     26  O   UNL     1      -4.297  -5.819  -8.956  0.00  0.00    -0.371 OA
ATOM     27  C   UNL     1      -3.604  -5.170 -10.025  0.00  0.00    +0.130 C 
ATOM     28  C   UNL     1      -3.672  -3.654  -9.825  0.00  0.00    +0.116 C 
ATOM     29  C   UNL     1      -4.259  -5.539 -11.358  0.00  0.00    +0.039 C 
ATOM     30  C   UNL     1      -4.605  -6.224  -6.591  0.00  0.00    +0.039 C 
ENDBRANCH  22  23
ENDBRANCH   6  22
TORSDOF 5
