REMARK  Name = ZINC23040188
REMARK  10 active torsions:
REMARK  status: ('A' for Active; 'I' for Inactive)
REMARK    1  A    between atoms: C_1  and  C_2
REMARK    2  A    between atoms: C_2  and  C_4
REMARK    3  A    between atoms: C_2  and  N_11
REMARK    4  A    between atoms: C_12  and  C_14
REMARK    5  A    between atoms: C_14  and  N_15
REMARK    6  A    between atoms: N_15  and  C_16
REMARK    7  A    between atoms: N_15  and  C_29
REMARK    8  A    between atoms: C_16  and  C_17
REMARK    9  A    between atoms: C_20  and  C_23
REMARK   10  A    between atoms: N_25  and  C_26
REMARK                            x       y       z     vdW  Elec       q    Type
REMARK                         _______ _______ _______ _____ _____    ______ ____
ROOT
ATOM      1  N   UNL     1       1.162   4.008   1.373  0.00  0.00    +0.390 N 
ATOM      2  H   UNL     1       2.052   3.587   1.864  0.00  0.00    -0.080 HD
ENDROOT
BRANCH   1   3
ATOM      3  C   UNL     1      -0.024   3.485   2.064  0.00  0.00    -0.068 C 
ATOM      4  C   UNL     1      -1.087   4.493   2.506  0.00  0.00    -0.017 C 
ATOM      5  C   UNL     1      -0.186   3.826   3.547  0.00  0.00    -0.017 C 
ENDBRANCH   1   3
BRANCH   1   6
ATOM      6  C   UNL     1       1.234   5.471   1.486  0.00  0.00    +0.019 C 
BRANCH   6   8
ATOM      7  N   UNL     1       2.971   7.227   1.359  0.00  0.00    -0.310 N 
ATOM      8  C   UNL     1       2.646   5.927   1.221  0.00  0.00    +0.197 C 
ATOM      9  O   UNL     1       3.489   5.123   0.884  0.00  0.00    -0.278 OA
ATOM     10  H   UNL     1       2.207   7.956   1.664  0.00  0.00    +0.149 HD
BRANCH   7  12
ATOM     11  C   UNL     1       5.188   7.476   2.363  0.00  0.00    +0.033 C 
ATOM     12  C   UNL     1       4.344   7.670   1.101  0.00  0.00    +0.100 C 
BRANCH  12  13
ATOM     13  C   UNL     1       4.338   9.127   0.719  0.00  0.00    -0.027 A 
ATOM     14  C   UNL     1       3.495  10.009   1.370  0.00  0.00    +0.006 A 
ATOM     15  C   UNL     1       3.493  11.347   1.023  0.00  0.00    +0.015 A 
ATOM     16  C   UNL     1       4.327  11.802   0.018  0.00  0.00    +0.018 A 
ATOM     17  C   UNL     1       5.167  10.919  -0.637  0.00  0.00    +0.015 A 
ATOM     18  C   UNL     1       5.172   9.582  -0.286  0.00  0.00    +0.006 A 
ATOM     19 BR   UNL     1       4.320  13.631  -0.463  0.00  0.00    -0.050 Br
ENDBRANCH  12  13
ENDBRANCH   7  12
ENDBRANCH   6   8
ENDBRANCH   1   6
BRANCH   1  20
ATOM     20  C   UNL     1       1.180   3.587  -0.034  0.00  0.00    -0.042 C 
BRANCH  20  21
ATOM     21  C   UNL     1       1.352   2.092  -0.108  0.00  0.00    -0.064 A 
ATOM     22  C   UNL     1       0.239   1.270  -0.116  0.00  0.00    +0.002 A 
ATOM     23  C   UNL     1       0.390  -0.100  -0.185  0.00  0.00    +0.013 A 
ATOM     24  C   UNL     1       1.669  -0.656  -0.246  0.00  0.00    +0.037 A 
ATOM     25  C   UNL     1       2.788   0.179  -0.238  0.00  0.00    +0.013 A 
ATOM     26  C   UNL     1       2.623   1.547  -0.169  0.00  0.00    +0.002 A 
BRANCH  24  27
ATOM     27  C   UNL     1       1.838  -2.123  -0.320  0.00  0.00    +0.244 C 
ATOM     28  O   UNL     1       0.862  -2.847  -0.326  0.00  0.00    -0.270 OA
ATOM     29  N   UNL     1       3.074  -2.656  -0.379  0.00  0.00    -0.308 N 
ATOM     30  H   UNL     1       3.957  -2.001  -0.373  0.00  0.00    +0.149 HD
BRANCH  29  31
ATOM     31  C   UNL     1       3.242  -4.110  -0.451  0.00  0.00    +0.073 C 
ATOM     32  C   UNL     1       4.324  -4.741   0.427  0.00  0.00    +0.024 C 
ATOM     33  C   UNL     1       4.528  -4.642  -1.086  0.00  0.00    +0.024 C 
ENDBRANCH  29  31
ENDBRANCH  24  27
ENDBRANCH  20  21
ENDBRANCH   1  20
TORSDOF 9
