REMARK  Name = ZINC42538504
REMARK  9 active torsions:
REMARK  status: ('A' for Active; 'I' for Inactive)
REMARK    1  A    between atoms: C_1  and  C_2
REMARK    2  A    between atoms: C_5  and  N_9
REMARK    3  A    between atoms: C_10  and  C_12
REMARK    4  A    between atoms: C_12  and  C_14
REMARK    5  A    between atoms: C_12  and  N_15
REMARK    6  A    between atoms: C_21  and  C_23
REMARK    7  A    between atoms: N_25  and  C_26
REMARK    8  A    between atoms: C_26  and  C_27
REMARK    9  A    between atoms: C_26  and  C_28
REMARK                            x       y       z     vdW  Elec       q    Type
REMARK                         _______ _______ _______ _____ _____    ______ ____
ROOT
ATOM      1  N   UNL     1      -0.143  -6.876  -2.530  0.00  0.00    +0.389 N 
ATOM      2  C   UNL     1      -1.360  -6.414  -3.209  0.00  0.00    -0.058 C 
ATOM      3  C   UNL     1      -1.286  -6.784  -4.694  0.00  0.00    +0.089 C 
ATOM      4  N   UNL     1      -1.041  -8.230  -4.803  0.00  0.00    -0.297 N 
ATOM      5  C   UNL     1       0.065  -8.807  -4.022  0.00  0.00    +0.089 C 
ATOM      6  C   UNL     1      -0.073  -8.342  -2.569  0.00  0.00    -0.058 C 
ATOM      7  C   UNL     1      -1.807  -9.005  -5.596  0.00  0.00    +0.301 C 
ATOM      8  O   UNL     1      -1.670 -10.211  -5.581  0.00  0.00    -0.265 OA
ATOM      9  H   UNL     1       0.665  -6.489  -2.993  0.00  0.00    -0.081 HD
ENDROOT
BRANCH   7  10
ATOM     10  C   UNL     1      -2.826  -8.380  -6.493  0.00  0.00    +0.299 C 
ATOM     11  O   UNL     1      -2.889  -7.172  -6.590  0.00  0.00    -0.265 OA
ATOM     12  N   UNL     1      -3.674  -9.157  -7.195  0.00  0.00    -0.305 N 
ATOM     13  H   UNL     1      -3.623 -10.123  -7.118  0.00  0.00    +0.149 HD
BRANCH  12  14
ATOM     14  C   UNL     1      -4.672  -8.544  -8.075  0.00  0.00    +0.067 C 
ATOM     15  C   UNL     1      -4.042  -8.255  -9.438  0.00  0.00    +0.027 C 
ATOM     16  C   UNL     1      -5.852  -9.502  -8.252  0.00  0.00    +0.027 C 
ENDBRANCH  12  14
ENDBRANCH   7  10
BRANCH   1  17
ATOM     17  C   UNL     1      -0.165  -6.426  -1.131  0.00  0.00    +0.017 C 
ATOM     18  C   UNL     1       1.068  -6.965  -0.403  0.00  0.00    -0.004 C 
BRANCH  17  20
ATOM     19  N   UNL     1      -0.717  -4.271  -0.049  0.00  0.00    -0.286 N 
ATOM     20  C   UNL     1      -0.154  -4.919  -1.088  0.00  0.00    +0.203 C 
ATOM     21  O   UNL     1       0.360  -4.290  -1.989  0.00  0.00    -0.277 OA
ATOM     22  H   UNL     1      -1.071  -4.773   0.701  0.00  0.00    +0.155 HD
BRANCH  19  27
ATOM     23  C   UNL     1      -1.012   1.396  -0.067  0.00  0.00    +0.044 C 
ATOM     24  C   UNL     1      -0.933  -0.109  -0.062  0.00  0.00    -0.049 A 
ATOM     25  C   UNL     1       0.100  -0.749  -0.722  0.00  0.00    +0.005 A 
ATOM     26  C   UNL     1       0.174  -2.128  -0.720  0.00  0.00    +0.025 A 
ATOM     27  C   UNL     1      -0.789  -2.873  -0.053  0.00  0.00    +0.052 A 
ATOM     28  C   UNL     1      -1.826  -2.228   0.610  0.00  0.00    +0.062 A 
ATOM     29  C   UNL     1      -1.892  -0.847   0.608  0.00  0.00    +0.025 A 
ATOM     30 CL   UNL     1      -3.034  -3.154   1.445  0.00  0.00    -0.082 Cl
ENDBRANCH  19  27
ENDBRANCH  17  20
ENDBRANCH   1  17
TORSDOF 5
