REMARK  Name = ZINC36206704
REMARK  21 active torsions:
REMARK  status: ('A' for Active; 'I' for Inactive)
REMARK    1  A    between atoms: C_1  and  C_2
REMARK    2  A    between atoms: C_2  and  O_3
REMARK    3  A    between atoms: O_3  and  C_4
REMARK    4  A    between atoms: C_4  and  C_6
REMARK    5  A    between atoms: C_7  and  C_32
REMARK    6  A    between atoms: C_13  and  C_17
REMARK    7  A    between atoms: C_17  and  N_18
REMARK    8  A    between atoms: N_18  and  C_19
REMARK    9  A    between atoms: N_18  and  C_28
REMARK   10  A    between atoms: C_19  and  C_20
REMARK   11  A    between atoms: C_20  and  C_22
REMARK   12  A    between atoms: C_20  and  O_27
REMARK   13  A    between atoms: C_22  and  O_23
REMARK   14  A    between atoms: O_23  and  C_24
REMARK   15  A    between atoms: C_24  and  C_25
REMARK   16  A    between atoms: C_24  and  C_26
REMARK   17  A    between atoms: C_28  and  C_29
REMARK   18  A    between atoms: C_29  and  C_30
REMARK   19  A    between atoms: C_29  and  C_31
REMARK   20  A    between atoms: C_32  and  C_33
REMARK   21  A    between atoms: C_32  and  C_34
REMARK                            x       y       z     vdW  Elec       q    Type
REMARK                         _______ _______ _______ _____ _____    ______ ____
ROOT
ATOM      1  C   UNL     1     -10.370  -5.003  -5.779  0.00  0.00    +0.102 A 
ATOM      2  C   UNL     1      -9.567  -6.089  -5.581  0.00  0.00    -0.009 A 
ATOM      3  C   UNL     1      -9.010  -6.321  -4.322  0.00  0.00    +0.076 A 
ATOM      4  C   UNL     1      -8.121  -7.420  -3.880  0.00  0.00    +0.260 A 
ATOM      5  O   UNL     1      -7.772  -8.292  -4.656  0.00  0.00    -0.267 OA
ATOM      6  N   UNL     1      -7.709  -7.430  -2.597  0.00  0.00    -0.312 N 
ATOM      7  H   UNL     1      -7.127  -8.143  -2.292  0.00  0.00    +0.170 HD
ATOM      8  C   UNL     1      -8.091  -6.465  -1.726  0.00  0.00    +0.094 A 
ATOM      9  N   UNL     1      -8.873  -5.483  -2.082  0.00  0.00    -0.229 NA
ATOM     10  C   UNL     1      -9.337  -5.378  -3.321  0.00  0.00    +0.116 A 
ATOM     11  S   UNL     1     -10.383  -4.224  -4.173  0.00  0.00    -0.062 S 
ENDROOT
BRANCH   2  12
ATOM     12  C   UNL     1      -9.283  -7.036  -6.719  0.00  0.00    +0.015 C 
ATOM     13  C   UNL     1      -7.779  -7.055  -7.002  0.00  0.00    +0.012 C 
ATOM     14  C   UNL     1      -9.749  -8.443  -6.340  0.00  0.00    +0.012 C 
ENDBRANCH   2  12
BRANCH   1  15
ATOM     15  C   UNL     1     -11.048  -4.579  -7.006  0.00  0.00    +0.346 C 
ATOM     16  O   UNL     1     -10.851  -5.176  -8.047  0.00  0.00    -0.244 OA
BRANCH  15  17
ATOM     17  O   UNL     1     -11.891  -3.526  -6.982  0.00  0.00    -0.461 OA
BRANCH  17  19
ATOM     18  C   UNL     1     -13.431  -1.961  -7.991  0.00  0.00    +0.048 C 
ATOM     19  C   UNL     1     -12.517  -3.168  -8.215  0.00  0.00    +0.229 C 
ENDBRANCH  17  19
ENDBRANCH  15  17
ENDBRANCH   1  15
BRANCH   8  20
ATOM     20  C   UNL     1      -7.598  -6.528  -0.303  0.00  0.00    -0.003 C 
BRANCH  20  21
ATOM     21  N   UNL     1      -8.245  -5.471   0.486  0.00  0.00    +0.386 N 
ATOM     22  H   UNL     1      -8.099  -4.579   0.037  0.00  0.00    -0.081 HD
BRANCH  21  23
ATOM     23  C   UNL     1      -9.685  -5.742   0.581  0.00  0.00    -0.044 C 
BRANCH  23  24
ATOM     24  C   UNL     1     -10.377  -4.580   1.295  0.00  0.00    +0.124 C 
BRANCH  24  25
ATOM     25  O   UNL     1     -10.267  -3.398   0.499  0.00  0.00    -0.391 OA
ATOM     26  H   UNL     1     -10.669  -3.475  -0.377  0.00  0.00    +0.210 HD
ENDBRANCH  24  25
BRANCH  24  27
ATOM     27  C   UNL     1     -11.855  -4.917   1.505  0.00  0.00    +0.189 C 
BRANCH  27  28
ATOM     28  O   UNL     1     -12.475  -3.884   2.274  0.00  0.00    -0.375 OA
BRANCH  28  29
ATOM     29  C   UNL     1     -13.864  -4.103   2.528  0.00  0.00    +0.112 C 
ATOM     30  C   UNL     1     -14.027  -4.884   3.833  0.00  0.00    +0.037 C 
ATOM     31  C   UNL     1     -14.579  -2.755   2.648  0.00  0.00    +0.037 C 
ENDBRANCH  28  29
ENDBRANCH  27  28
ENDBRANCH  24  27
ENDBRANCH  23  24
ENDBRANCH  21  23
BRANCH  21  32
ATOM     32  C   UNL     1      -7.662  -5.441   1.835  0.00  0.00    -0.075 C 
BRANCH  32  33
ATOM     33  C   UNL     1      -6.195  -5.017   1.747  0.00  0.00    -0.034 C 
ATOM     34  C   UNL     1      -6.106  -3.596   1.186  0.00  0.00    +0.005 C 
ATOM     35  C   UNL     1      -5.569  -5.054   3.143  0.00  0.00    +0.005 C 
ENDBRANCH  32  33
ENDBRANCH  21  32
ENDBRANCH  20  21
ENDBRANCH   8  20
TORSDOF 14
