REMARK  Name = ZINC66272665
REMARK  9 active torsions:
REMARK  status: ('A' for Active; 'I' for Inactive)
REMARK    1  A    between atoms: C_1  and  C_2
REMARK    2  A    between atoms: C_2  and  C_4
REMARK    3  A    between atoms: C_2  and  N_19
REMARK    4  A    between atoms: C_4  and  C_5
REMARK    5  A    between atoms: N_7  and  C_8
REMARK    6  A    between atoms: N_12  and  C_13
REMARK    7  A    between atoms: C_13  and  C_15
REMARK    8  A    between atoms: C_13  and  C_16
REMARK    9  A    between atoms: C_20  and  C_22
REMARK                            x       y       z     vdW  Elec       q    Type
REMARK                         _______ _______ _______ _____ _____    ______ ____
ROOT
ATOM      1  C   UNL     1       0.657  -2.014   1.298  0.00  0.00    +0.220 C 
ATOM      2  O   UNL     1       0.062  -2.621   0.432  0.00  0.00    -0.275 OA
ATOM      3  N   UNL     1       1.241  -2.685   2.311  0.00  0.00    -0.271 N 
ATOM      4  H   UNL     1       1.716  -2.200   3.003  0.00  0.00    +0.156 HD
ENDROOT
BRANCH   3   5
ATOM      5  C   UNL     1       1.162  -4.077   2.362  0.00  0.00    +0.123 A 
ATOM      6  C   UNL     1       0.536  -4.881   1.460  0.00  0.00    +0.065 A 
ATOM      7  C   UNL     1       0.694  -6.203   1.883  0.00  0.00    +0.136 A 
ATOM      8  N   UNL     1       1.386  -6.200   2.994  0.00  0.00    -0.178 NA
ATOM      9  N   UNL     1       1.698  -4.872   3.316  0.00  0.00    -0.247 N 
BRANCH   9  10
ATOM     10  C   UNL     1       2.466  -4.425   4.480  0.00  0.00    +0.109 C 
ATOM     11  C   UNL     1       3.867  -5.039   4.433  0.00  0.00    +0.033 C 
BRANCH  10  12
ATOM     12  C   UNL     1       1.758  -4.871   5.761  0.00  0.00    +0.013 C 
ATOM     13  C   UNL     1       1.134  -3.783   6.638  0.00  0.00    +0.006 C 
ATOM     14  C   UNL     1       2.408  -4.497   7.094  0.00  0.00    +0.006 C 
ENDBRANCH  10  12
ENDBRANCH   9  10
ENDBRANCH   3   5
BRANCH   1  15
ATOM     15  C   UNL     1       0.742  -0.511   1.242  0.00  0.00    +0.118 C 
BRANCH  15  17
ATOM     16  C   UNL     1      -0.019   1.526   0.010  0.00  0.00    +0.028 C 
ATOM     17  C   UNL     1       0.002  -0.004   0.002  0.00  0.00    +0.079 C 
BRANCH  17  18
ATOM     18  N   UNL     1       0.688  -0.476  -1.203  0.00  0.00    -0.312 N 
ATOM     19  C   UNL     1       0.006  -0.608  -2.358  0.00  0.00    +0.216 C 
ATOM     20  O   UNL     1      -1.175  -0.336  -2.400  0.00  0.00    -0.276 OA
ATOM     21  H   UNL     1       1.632  -0.695  -1.170  0.00  0.00    +0.149 HD
BRANCH  19  22
ATOM     22  C   UNL     1       0.712  -1.094  -3.598  0.00  0.00    +0.075 C 
ATOM     23  C   UNL     1       1.849  -0.133  -3.948  0.00  0.00    +0.013 C 
ATOM     24  C   UNL     1       2.565  -0.626  -5.207  0.00  0.00    +0.001 C 
ATOM     25  C   UNL     1       1.572  -0.685  -6.369  0.00  0.00    +0.000 C 
ATOM     26  C   UNL     1       0.434  -1.646  -6.019  0.00  0.00    +0.001 C 
ATOM     27  C   UNL     1      -0.282  -1.153  -4.761  0.00  0.00    +0.013 C 
ENDBRANCH  19  22
ENDBRANCH  17  18
ENDBRANCH  15  17
ENDBRANCH   1  15
TORSDOF 7
