REMARK  Name = ZINC39674125
REMARK  6 active torsions:
REMARK  status: ('A' for Active; 'I' for Inactive)
REMARK    1  A    between atoms: C_1  and  C_2
REMARK    2  A    between atoms: C_4  and  C_12
REMARK    3  A    between atoms: C_12  and  C_13
REMARK    4  A    between atoms: C_13  and  N_14
REMARK    5  A    between atoms: C_15  and  C_17
REMARK    6  A    between atoms: C_28  and  C_30
REMARK                            x       y       z     vdW  Elec       q    Type
REMARK                         _______ _______ _______ _____ _____    ______ ____
ROOT
ATOM      1  C   UNL     1      -5.411   3.612   3.667  0.00  0.00    +0.100 C 
ATOM      2  C   UNL     1      -4.990   2.443   4.585  0.00  0.00    +0.121 C 
ATOM      3  N   UNL     1      -4.247   3.086   5.694  0.00  0.00    -0.296 N 
ATOM      4  C   UNL     1      -5.004   4.330   5.972  0.00  0.00    +0.115 C 
ATOM      5  C   UNL     1      -5.422   4.848   4.582  0.00  0.00    -0.004 C 
ATOM      6  C   UNL     1      -4.420   5.884   4.082  0.00  0.00    -0.010 C 
ATOM      7  C   UNL     1      -4.490   7.127   4.974  0.00  0.00    -0.082 C 
ATOM      8  N   UNL     1      -5.850   7.678   4.942  0.00  0.00    +0.379 N 
ATOM      9  C   UNL     1      -6.796   6.710   5.511  0.00  0.00    -0.082 C 
ATOM     10  C   UNL     1      -6.823   5.449   4.641  0.00  0.00    -0.010 C 
ATOM     11  C   UNL     1      -3.134   2.641   6.310  0.00  0.00    +0.252 C 
ATOM     12  O   UNL     1      -2.638   3.289   7.212  0.00  0.00    -0.270 OA
ATOM     13  H   UNL     1      -5.879   8.530   5.482  0.00  0.00    -0.086 HD
ATOM     14  H   UNL     1      -6.109   7.878   3.988  0.00  0.00    -0.086 HD
ENDROOT
BRANCH  11  15
ATOM     15  C   UNL     1      -2.517   1.369   5.891  0.00  0.00    +0.108 A 
ATOM     16  C   UNL     1      -1.536   1.357   4.893  0.00  0.00    +0.138 A 
ATOM     17  C   UNL     1      -0.963   0.161   4.505  0.00  0.00    +0.041 A 
ATOM     18  C   UNL     1      -1.356  -1.024   5.101  0.00  0.00    +0.026 A 
ATOM     19  C   UNL     1      -2.325  -1.022   6.090  0.00  0.00    +0.077 A 
ATOM     20  C   UNL     1      -2.905   0.167   6.493  0.00  0.00    +0.156 A 
ATOM     21  F   UNL     1      -3.846   0.168   7.462  0.00  0.00    -0.203 F 
ATOM     22 CL   UNL     1      -2.810  -2.516   6.829  0.00  0.00    -0.081 Cl
ATOM     23  F   UNL     1      -1.152   2.513   4.308  0.00  0.00    -0.205 F 
ENDBRANCH  11  15
BRANCH   1  25
ATOM     24  N   UNL     1      -4.804   4.305   1.372  0.00  0.00    -0.315 N 
ATOM     25  C   UNL     1      -4.411   3.791   2.554  0.00  0.00    +0.218 C 
ATOM     26  O   UNL     1      -3.253   3.473   2.722  0.00  0.00    -0.275 OA
ATOM     27  H   UNL     1      -5.730   4.560   1.237  0.00  0.00    +0.149 HD
BRANCH  24  28
ATOM     28  C   UNL     1      -3.831   4.480   0.290  0.00  0.00    +0.109 C 
BRANCH  28  29
ATOM     29  C   UNL     1      -4.531   5.077  -0.933  0.00  0.00    +0.056 C 
BRANCH  29  33
ATOM     30  C   UNL     1      -3.831   2.986  -3.117  0.00  0.00    +0.063 C 
ATOM     31  C   UNL     1      -3.222   4.358  -2.994  0.00  0.00    +0.017 A 
ATOM     32  H   UNL     1      -1.883   4.406  -4.590  0.00  0.00    +0.166 HD
ATOM     33  C   UNL     1      -3.531   5.256  -2.046  0.00  0.00    -0.018 A 
ATOM     34  C   UNL     1      -2.712   6.445  -2.298  0.00  0.00    +0.003 A 
ATOM     35  C   UNL     1      -2.582   7.685  -1.671  0.00  0.00    +0.010 A 
ATOM     36  C   UNL     1      -1.702   8.607  -2.165  0.00  0.00    +0.001 A 
ATOM     37  C   UNL     1      -0.937   8.320  -3.287  0.00  0.00    +0.002 A 
ATOM     38  C   UNL     1      -1.049   7.102  -3.922  0.00  0.00    +0.026 A 
ATOM     39  C   UNL     1      -1.938   6.149  -3.436  0.00  0.00    +0.047 A 
ATOM     40  N   UNL     1      -2.268   4.872  -3.830  0.00  0.00    -0.358 N 
ENDBRANCH  29  33
ENDBRANCH  28  29
ENDBRANCH  24  28
ENDBRANCH   1  25
TORSDOF 5
