REMARK  Name = ZINC13998917
REMARK  11 active torsions:
REMARK  status: ('A' for Active; 'I' for Inactive)
REMARK    1  A    between atoms: C_1  and  C_2
REMARK    2  A    between atoms: C_4  and  C_27
REMARK    3  A    between atoms: C_9  and  C_14
REMARK    4  A    between atoms: C_14  and  N_52
REMARK    5  A    between atoms: C_15  and  C_16
REMARK    6  A    between atoms: C_15  and  N_52
REMARK    7  A    between atoms: C_16  and  C_17
REMARK    8  A    between atoms: C_20  and  O_25
REMARK    9  A    between atoms: C_21  and  O_23
REMARK   10  A    between atoms: O_23  and  C_24
REMARK   11  A    between atoms: O_25  and  C_26
REMARK                            x       y       z     vdW  Elec       q    Type
REMARK                         _______ _______ _______ _____ _____    ______ ____
ROOT
ATOM      1  C   UNL     1      -1.332   7.432   0.056  0.00  0.00    -0.041 C 
ENDROOT
BRANCH   1  10
ATOM      2  C   UNL     1       2.491   1.029  -0.016  0.00  0.00    +0.044 C 
ATOM      3  C   UNL     1       1.185   1.779   0.000  0.00  0.00    -0.050 A 
ATOM      4  C   UNL     1      -0.013   1.076   0.008  0.00  0.00    +0.008 A 
ATOM      5  C   UNL     1      -1.219   1.741   0.017  0.00  0.00    -0.026 A 
ATOM      6  C   UNL     1      -1.240   3.132   0.031  0.00  0.00    +0.052 A 
ATOM      7  C   UNL     1      -0.025   3.842   0.023  0.00  0.00    -0.001 A 
ATOM      8  C   UNL     1       1.188   3.145   0.008  0.00  0.00    +0.013 A 
ATOM      9  C   UNL     1      -0.057   5.306   0.032  0.00  0.00    +0.017 A 
ATOM     10  C   UNL     1      -1.263   5.926   0.047  0.00  0.00    +0.001 A 
ATOM     11  C   UNL     1      -2.453   5.168   0.054  0.00  0.00    +0.251 A 
ATOM     12  O   UNL     1      -3.526   5.746   0.067  0.00  0.00    -0.268 OA
ATOM     13  N   UNL     1      -2.433   3.824   0.046  0.00  0.00    -0.322 N 
ATOM     14  H   UNL     1      -3.270   3.333   0.051  0.00  0.00    +0.169 HD
ATOM     15  C   UNL     1      -2.511   0.965   0.019  0.00  0.00    +0.046 C 
ENDBRANCH   1  10
BRANCH   1  16
ATOM     16  N   UNL     1      -1.489   7.917  -1.328  0.00  0.00    +0.382 N 
ATOM     17  H   UNL     1      -2.353   7.531  -1.726  0.00  0.00    -0.085 HD
ATOM     18  H   UNL     1      -0.685   7.608  -1.888  0.00  0.00    -0.085 HD
BRANCH  16  19
ATOM     19  C   UNL     1      -1.559   9.390  -1.349  0.00  0.00    -0.077 C 
BRANCH  19  20
ATOM     20  C   UNL     1      -1.722   9.864  -2.795  0.00  0.00    +0.016 C 
BRANCH  20  21
ATOM     21  C   UNL     1      -1.794  11.368  -2.826  0.00  0.00    -0.045 A 
ATOM     22  C   UNL     1      -3.020  12.002  -2.730  0.00  0.00    +0.007 A 
ATOM     23  C   UNL     1      -3.091  13.382  -2.752  0.00  0.00    +0.049 A 
ATOM     24  C   UNL     1      -1.934  14.134  -2.882  0.00  0.00    +0.161 A 
ATOM     25  C   UNL     1      -0.702  13.496  -2.984  0.00  0.00    +0.162 A 
ATOM     26  C   UNL     1      -0.637  12.112  -2.956  0.00  0.00    +0.053 A 
BRANCH  25  27
ATOM     27  O   UNL     1       0.436  14.230  -3.111  0.00  0.00    -0.491 OA
ATOM     28  C   UNL     1       1.666  13.508  -3.211  0.00  0.00    +0.277 C 
ENDBRANCH  25  27
BRANCH  24  29
ATOM     29  O   UNL     1      -2.004  15.492  -2.909  0.00  0.00    -0.491 OA
ATOM     30  C   UNL     1      -3.302  16.078  -2.799  0.00  0.00    +0.277 C 
ENDBRANCH  24  29
ENDBRANCH  20  21
ENDBRANCH  19  20
ENDBRANCH  16  19
ENDBRANCH   1  16
TORSDOF 7
