REMARK  Name = ZINC09975002
REMARK  8 active torsions:
REMARK  status: ('A' for Active; 'I' for Inactive)
REMARK    1  A    between atoms: C_1  and  N_2
REMARK    2  A    between atoms: N_7  and  C_10
REMARK    3  A    between atoms: C_10  and  C_11
REMARK    4  A    between atoms: C_20  and  O_22
REMARK    5  A    between atoms: O_22  and  C_23
REMARK    6  A    between atoms: C_23  and  C_24
REMARK    7  A    between atoms: C_24  and  O_25
REMARK    8  A    between atoms: O_25  and  C_26
REMARK                            x       y       z     vdW  Elec       q    Type
REMARK                         _______ _______ _______ _____ _____    ______ ____
ROOT
ATOM      1  C   UNL     1      -1.131   5.513   0.043  0.00  0.00    +0.155 C 
ATOM      2  N   UNL     1      -1.593   4.122   0.040  0.00  0.00    -0.279 N 
ATOM      3  C   UNL     1      -0.672   3.087   0.025  0.00  0.00    +0.171 A 
ATOM      4  C   UNL     1      -1.136   1.777   0.016  0.00  0.00    +0.152 A 
ATOM      5  C   UNL     1      -2.523   1.540   0.021  0.00  0.00    +0.283 A 
ATOM      6  O   UNL     1      -2.953   0.400   0.017  0.00  0.00    -0.265 OA
ATOM      7  N   UNL     1      -3.372   2.588   0.030  0.00  0.00    -0.255 N 
ATOM      8  C   UNL     1      -2.912   3.851   0.035  0.00  0.00    +0.334 A 
ATOM      9  O   UNL     1      -3.706   4.772   0.043  0.00  0.00    -0.246 OA
ATOM     10  N   UNL     1      -0.011   0.966   0.007  0.00  0.00    -0.302 N 
ATOM     11  H   UNL     1       0.003  -0.034   0.006  0.00  0.00    +0.171 HD
ATOM     12  C   UNL     1       1.064   1.786   0.002  0.00  0.00    +0.298 A 
ATOM     13  N   UNL     1       0.662   3.038   0.012  0.00  0.00    -0.177 NA
ENDROOT
BRANCH   7  14
ATOM     14  C   UNL     1      -4.817   2.347   0.035  0.00  0.00    +0.165 C 
BRANCH  14  15
ATOM     15  C   UNL     1      -5.306   2.256   1.457  0.00  0.00    -0.027 A 
ATOM     16  C   UNL     1      -5.339   1.033   2.100  0.00  0.00    +0.008 A 
ATOM     17  C   UNL     1      -5.783   0.949   3.406  0.00  0.00    +0.038 A 
ATOM     18  C   UNL     1      -6.206   2.090   4.067  0.00  0.00    +0.123 A 
ATOM     19  C   UNL     1      -6.178   3.314   3.420  0.00  0.00    +0.038 A 
ATOM     20  C   UNL     1      -5.728   3.396   2.116  0.00  0.00    +0.008 A 
ATOM     21  F   UNL     1      -6.645   2.009   5.342  0.00  0.00    -0.205 F 
ENDBRANCH  14  15
ENDBRANCH   7  14
BRANCH  12  22
ATOM     22  O   UNL     1       2.353   1.381  -0.012  0.00  0.00    -0.460 OA
BRANCH  22  23
ATOM     23  C   UNL     1       3.353   2.402  -0.017  0.00  0.00    +0.273 C 
BRANCH  23  24
ATOM     24  C   UNL     1       4.741   1.756  -0.032  0.00  0.00    +0.270 C 
BRANCH  24  25
ATOM     25  O   UNL     1       4.921   1.045  -1.259  0.00  0.00    -0.487 OA
BRANCH  25  26
ATOM     26  C   UNL     1       6.110   0.409  -1.434  0.00  0.00    +0.139 A 
ATOM     27  C   UNL     1       7.082   0.468  -0.446  0.00  0.00    +0.048 A 
ATOM     28  C   UNL     1       8.289  -0.179  -0.626  0.00  0.00    +0.023 A 
ATOM     29  C   UNL     1       8.529  -0.886  -1.791  0.00  0.00    +0.043 A 
ATOM     30  C   UNL     1       7.562  -0.947  -2.778  0.00  0.00    +0.043 A 
ATOM     31  C   UNL     1       6.350  -0.306  -2.599  0.00  0.00    +0.084 A 
ATOM     32 CL   UNL     1       5.133  -0.389  -3.834  0.00  0.00    -0.080 Cl
ATOM     33 CL   UNL     1      10.047  -1.698  -2.014  0.00  0.00    -0.083 Cl
ENDBRANCH  25  26
ENDBRANCH  24  25
ENDBRANCH  23  24
ENDBRANCH  22  23
ENDBRANCH  12  22
TORSDOF 7
