REMARK  Name = ZINC19939166
REMARK  8 active torsions:
REMARK  status: ('A' for Active; 'I' for Inactive)
REMARK    1  A    between atoms: C_1  and  C_2
REMARK    2  A    between atoms: C_2  and  C_3
REMARK    3  A    between atoms: N_6  and  C_16
REMARK    4  A    between atoms: C_16  and  C_17
REMARK    5  A    between atoms: N_19  and  C_20
REMARK    6  A    between atoms: C_20  and  C_21
REMARK    7  A    between atoms: C_21  and  C_22
REMARK    8  A    between atoms: C_25  and  C_28
REMARK                            x       y       z     vdW  Elec       q    Type
REMARK                         _______ _______ _______ _____ _____    ______ ____
ROOT
ATOM      1  C   UNL     1      -0.729   1.579   1.267  0.00  0.00    +0.157 C 
ATOM      2  C   UNL     1       0.090   1.208   2.484  0.00  0.00    -0.033 C 
ATOM      3  N   UNL     1      -0.442   1.745   3.733  0.00  0.00    +0.391 N 
ATOM      4  C   UNL     1      -1.713   1.122   4.119  0.00  0.00    -0.038 C 
ATOM      5  C   UNL     1      -2.843   1.831   3.397  0.00  0.00    -0.022 A 
ATOM      6  C   UNL     1      -3.759   2.577   4.109  0.00  0.00    +0.007 A 
ATOM      7  C   UNL     1      -4.815   3.178   3.448  0.00  0.00    +0.020 A 
ATOM      8  C   UNL     1      -4.951   3.030   2.078  0.00  0.00    +0.044 A 
ATOM      9  C   UNL     1      -4.025   2.292   1.364  0.00  0.00    +0.065 A 
ATOM     10  C   UNL     1      -2.961   1.697   2.027  0.00  0.00    +0.124 A 
ATOM     11  O   UNL     1      -2.032   0.987   1.331  0.00  0.00    -0.490 OA
ATOM     12 CL   UNL     1      -6.285   3.775   1.255  0.00  0.00    -0.083 Cl
ATOM     13  H   UNL     1      -0.650   2.809   3.551  0.00  0.00    -0.081 HD
ENDROOT
BRANCH   1  15
ATOM     14  C   UNL     1      -0.753   1.593  -1.232  0.00  0.00    +0.007 C 
ATOM     15  C   UNL     1      -0.013   1.086   0.008  0.00  0.00    +0.039 C 
ENDBRANCH   1  15
BRANCH   3  16
ATOM     16  C   UNL     1       0.546   1.638   4.815  0.00  0.00    +0.019 C 
BRANCH  16  17
ATOM     17  C   UNL     1       0.089   2.456   5.996  0.00  0.00    +0.196 C 
ATOM     18  O   UNL     1      -0.957   3.067   5.941  0.00  0.00    -0.278 OA
ATOM     19  N   UNL     1       0.843   2.507   7.112  0.00  0.00    -0.316 N 
ATOM     20  H   UNL     1       1.791   1.952   7.162  0.00  0.00    +0.149 HD
BRANCH  19  21
ATOM     21  C   UNL     1       0.398   3.302   8.259  0.00  0.00    +0.112 C 
BRANCH  21  22
ATOM     22  C   UNL     1       1.427   3.191   9.386  0.00  0.00    +0.097 C 
BRANCH  22  23
ATOM     23  C   UNL     1       0.970   4.009  10.567  0.00  0.00    +0.152 A 
ATOM     24  N   UNL     1       0.801   3.563  11.835  0.00  0.00    -0.216 NA
ATOM     25  H   UNL     1      -0.011   6.631  12.108  0.00  0.00    +0.190 HD
ATOM     26  C   UNL     1       0.378   4.631  12.554  0.00  0.00    +0.122 A 
ATOM     27  N   UNL     1       0.312   5.647  11.737  0.00  0.00    -0.263 N 
ATOM     28  N   UNL     1       0.663   5.277  10.556  0.00  0.00    -0.157 NA
ATOM     29  C   UNL     1       0.051   4.645  14.025  0.00  0.00    +0.087 C 
ENDBRANCH  22  23
ENDBRANCH  21  22
ENDBRANCH  19  21
ENDBRANCH  16  17
ENDBRANCH   3  16
TORSDOF 6
