REMARK  Name = ZINC63108164
REMARK  10 active torsions:
REMARK  status: ('A' for Active; 'I' for Inactive)
REMARK    1  A    between atoms: C_1  and  C_2
REMARK    2  A    between atoms: C_2  and  C_4
REMARK    3  A    between atoms: C_2  and  N_20
REMARK    4  A    between atoms: N_6  and  C_7
REMARK    5  A    between atoms: C_10  and  S_13
REMARK    6  A    between atoms: S_13  and  N_16
REMARK    7  A    between atoms: N_16  and  C_17
REMARK    8  A    between atoms: C_17  and  C_18
REMARK    9  A    between atoms: C_17  and  C_19
REMARK   10  A    between atoms: C_23  and  C_26
REMARK                            x       y       z     vdW  Elec       q    Type
REMARK                         _______ _______ _______ _____ _____    ______ ____
ROOT
ATOM      1  C   UNL     1      -0.191   1.521  -0.210  0.00  0.00    -0.004 C 
ATOM      2  C   UNL     1       0.002   0.010  -0.065  0.00  0.00    +0.016 C 
ENDROOT
BRANCH   2   3
ATOM      3  N   UNL     1      -1.300  -0.662  -0.169  0.00  0.00    +0.387 N 
ATOM      4  C   UNL     1      -1.961  -0.256  -1.415  0.00  0.00    -0.077 C 
ATOM      5  C   UNL     1      -3.352  -0.889  -1.490  0.00  0.00    -0.011 C 
ATOM      6  C   UNL     1      -3.215  -2.414  -1.458  0.00  0.00    +0.014 C 
ATOM      7  C   UNL     1      -2.459  -2.821  -0.189  0.00  0.00    -0.011 C 
ATOM      8  C   UNL     1      -1.101  -2.116  -0.163  0.00  0.00    -0.077 C 
ATOM      9  H   UNL     1      -1.877  -0.399   0.616  0.00  0.00    -0.081 HD
BRANCH   6  10
ATOM     10  C   UNL     1      -4.584  -3.043  -1.452  0.00  0.00    -0.039 C 
ATOM     11  C   UNL     1      -5.090  -3.897  -2.371  0.00  0.00    -0.001 A 
ATOM     12  C   UNL     1      -4.538  -4.474  -3.603  0.00  0.00    +0.010 A 
ATOM     13  C   UNL     1      -5.303  -5.319  -4.331  0.00  0.00    +0.001 A 
ATOM     14  C   UNL     1      -6.606  -5.657  -3.940  0.00  0.00    +0.002 A 
ATOM     15  C   UNL     1      -7.181  -5.168  -2.821  0.00  0.00    +0.026 A 
ATOM     16  C   UNL     1      -6.468  -4.271  -1.979  0.00  0.00    +0.043 A 
ATOM     17  N   UNL     1      -6.801  -3.670  -0.863  0.00  0.00    -0.380 N 
ATOM     18  C   UNL     1      -5.668  -2.852  -0.415  0.00  0.00    +0.145 C 
ATOM     19  H   UNL     1      -7.653  -3.756  -0.406  0.00  0.00    +0.160 HD
ENDBRANCH   6  10
ENDBRANCH   2   3
BRANCH   2  20
ATOM     20  C   UNL     1       0.616  -0.292   1.278  0.00  0.00    +0.203 C 
ATOM     21  O   UNL     1      -0.057  -0.790   2.155  0.00  0.00    -0.277 OA
ATOM     22  N   UNL     1       1.914  -0.008   1.504  0.00  0.00    -0.287 N 
ATOM     23  H   UNL     1       2.433   0.459   0.830  0.00  0.00    +0.155 HD
BRANCH  22  24
ATOM     24  C   UNL     1       2.513  -0.386   2.710  0.00  0.00    +0.033 A 
ATOM     25  C   UNL     1       3.844  -0.784   2.732  0.00  0.00    +0.025 A 
ATOM     26  C   UNL     1       4.432  -1.156   3.925  0.00  0.00    +0.030 A 
ATOM     27  C   UNL     1       3.698  -1.133   5.097  0.00  0.00    +0.105 A 
ATOM     28  C   UNL     1       2.373  -0.737   5.078  0.00  0.00    +0.030 A 
ATOM     29  C   UNL     1       1.781  -0.357   3.890  0.00  0.00    +0.025 A 
BRANCH  27  30
ATOM     30  S   UNL     1       4.452  -1.609   6.616  0.00  0.00    +0.059 S 
ATOM     31  O   UNL     1       3.402  -2.022   7.479  0.00  0.00    -0.153 OA
ATOM     32  O   UNL     1       5.541  -2.458   6.281  0.00  0.00    -0.153 OA
BRANCH  30  33
ATOM     33  N   UNL     1       5.107  -0.243   7.287  0.00  0.00    -0.187 NA
ATOM     34  H   UNL     1       6.068  -0.168   7.393  0.00  0.00    +0.148 HD
BRANCH  33  35
ATOM     35  C   UNL     1       4.234   0.851   7.720  0.00  0.00    +0.070 C 
ATOM     36  C   UNL     1       4.819   1.505   8.973  0.00  0.00    +0.025 C 
ATOM     37  C   UNL     1       4.128   1.891   6.603  0.00  0.00    +0.025 C 
ENDBRANCH  33  35
ENDBRANCH  30  33
ENDBRANCH  27  30
ENDBRANCH  22  24
ENDBRANCH   2  20
TORSDOF 7
