REMARK  Name = ZINC09237273
REMARK  6 active torsions:
REMARK  status: ('A' for Active; 'I' for Inactive)
REMARK    1  A    between atoms: C_1  and  C_2
REMARK    2  A    between atoms: C_5  and  C_8
REMARK    3  A    between atoms: C_10  and  C_20
REMARK    4  A    between atoms: C_16  and  C_19
REMARK    5  A    between atoms: N_22  and  C_23
REMARK    6  A    between atoms: C_27  and  C_29
REMARK                            x       y       z     vdW  Elec       q    Type
REMARK                         _______ _______ _______ _____ _____    ______ ____
ROOT
ATOM      1  C   UNL     1      -0.822   3.518   0.515  0.00  0.00    +0.140 C 
ATOM      2  C   UNL     1       0.250   4.206  -0.340  0.00  0.00    +0.166 C 
ATOM      3  S   UNL     1       1.849   3.426   0.036  0.00  0.00    -0.069 S 
ATOM      4  C   UNL     1       1.311   1.745   0.010  0.00  0.00    +0.209 A 
ATOM      5  N   UNL     1       2.043   0.665  -0.009  0.00  0.00    -0.121 NA
ATOM      6  N   UNL     1       1.278  -0.371  -0.009  0.00  0.00    -0.132 NA
ATOM      7  C   UNL     1       0.025  -0.005   0.008  0.00  0.00    +0.148 A 
ATOM      8  N   UNL     1       0.001   1.360   0.013  0.00  0.00    -0.225 N 
ATOM      9  N   UNL     1      -1.090   2.170   0.012  0.00  0.00    -0.272 N 
ATOM     10  C   UNL     1      -1.173  -0.920   0.019  0.00  0.00    +0.090 C 
ATOM     11  H   UNL     1      -1.514   2.203  -0.903  0.00  0.00    +0.167 HD
ENDROOT
BRANCH   1  16
ATOM     12  C   UNL     1      -5.691   6.625   0.338  0.00  0.00    +0.044 C 
ATOM     13  C   UNL     1      -4.421   5.815   0.384  0.00  0.00    -0.050 A 
ATOM     14  C   UNL     1      -3.574   5.918   1.471  0.00  0.00    +0.004 A 
ATOM     15  C   UNL     1      -2.410   5.175   1.514  0.00  0.00    +0.006 A 
ATOM     16  C   UNL     1      -2.092   4.328   0.469  0.00  0.00    -0.024 A 
ATOM     17  C   UNL     1      -2.936   4.229  -0.622  0.00  0.00    +0.006 A 
ATOM     18  C   UNL     1      -4.103   4.968  -0.662  0.00  0.00    +0.004 A 
ENDBRANCH   1  16
BRANCH   2  19
ATOM     19  C   UNL     1       0.307   5.674  -0.003  0.00  0.00    +0.233 C 
ATOM     20  O   UNL     1       0.085   6.045   1.130  0.00  0.00    -0.274 OA
ATOM     21  N   UNL     1       0.603   6.574  -0.961  0.00  0.00    -0.285 N 
ATOM     22  H   UNL     1       0.846   6.274  -1.851  0.00  0.00    +0.155 HD
BRANCH  21  23
ATOM     23  C   UNL     1       0.561   7.943  -0.672  0.00  0.00    +0.034 A 
ATOM     24  C   UNL     1       0.148   8.847  -1.643  0.00  0.00    +0.024 A 
ATOM     25  C   UNL     1       0.103  10.196  -1.353  0.00  0.00    +0.017 A 
ATOM     26  C   UNL     1       0.479  10.649  -0.101  0.00  0.00    +0.021 A 
ATOM     27  C   UNL     1       0.896   9.752   0.866  0.00  0.00    -0.035 A 
ATOM     28  C   UNL     1       0.938   8.400   0.584  0.00  0.00    +0.027 A 
ATOM     29  C   UNL     1       1.304  10.249   2.229  0.00  0.00    +0.045 C 
ATOM     30 BR   UNL     1       0.421  12.499   0.290  0.00  0.00    -0.050 Br
ENDBRANCH  21  23
ENDBRANCH   2  19
TORSDOF 3
