REMARK  Name = ZINC24715993
REMARK  12 active torsions:
REMARK  status: ('A' for Active; 'I' for Inactive)
REMARK    1  A    between atoms: C_1  and  C_2
REMARK    2  A    between atoms: C_3  and  C_32
REMARK    3  A    between atoms: C_4  and  C_31
REMARK    4  A    between atoms: C_5  and  S_10
REMARK    5  A    between atoms: C_6  and  C_9
REMARK    6  A    between atoms: C_7  and  C_8
REMARK    7  A    between atoms: S_10  and  N_13
REMARK    8  A    between atoms: N_13  and  C_14
REMARK    9  A    between atoms: C_17  and  S_20
REMARK   10  A    between atoms: S_20  and  N_23
REMARK   11  A    between atoms: N_23  and  C_24
REMARK   12  A    between atoms: C_27  and  O_30
REMARK                            x       y       z     vdW  Elec       q    Type
REMARK                         _______ _______ _______ _____ _____    ______ ____
ROOT
ATOM      1  C   UNL     1      -4.116   4.588   5.198  0.00  0.00    +0.048 A 
ATOM      2  C   UNL     1      -4.094   4.718   3.816  0.00  0.00    +0.026 A 
ATOM      3  C   UNL     1      -5.017   5.529   3.185  0.00  0.00    +0.030 A 
ATOM      4  C   UNL     1      -5.955   6.221   3.929  0.00  0.00    +0.105 A 
ATOM      5  C   UNL     1      -5.976   6.098   5.307  0.00  0.00    +0.030 A 
ATOM      6  C   UNL     1      -5.059   5.285   5.943  0.00  0.00    +0.026 A 
ENDROOT
BRANCH   4   7
ATOM      7  S   UNL     1      -7.125   7.261   3.121  0.00  0.00    +0.059 S 
ATOM      8  O   UNL     1      -7.245   6.779   1.790  0.00  0.00    -0.153 OA
ATOM      9  O   UNL     1      -8.241   7.371   3.994  0.00  0.00    -0.153 OA
BRANCH   7  10
ATOM     10  N   UNL     1      -6.452   8.770   3.020  0.00  0.00    -0.187 NA
ATOM     11  H   UNL     1      -6.809   9.564   3.693  0.00  0.00    +0.148 HD
BRANCH  10  12
ATOM     12  C   UNL     1      -5.254   8.984   2.205  0.00  0.00    +0.077 C 
ATOM     13  C   UNL     1      -4.010   8.888   3.091  0.00  0.00    +0.023 C 
ATOM     14  C   UNL     1      -2.759   9.112   2.240  0.00  0.00    +0.033 C 
ATOM     15  C   UNL     1      -2.821  10.499   1.597  0.00  0.00    +0.115 C 
ATOM     16  C   UNL     1      -4.064  10.595   0.711  0.00  0.00    +0.033 C 
ATOM     17  C   UNL     1      -5.316  10.371   1.562  0.00  0.00    +0.023 C 
BRANCH  15  18
ATOM     18  O   UNL     1      -1.652  10.708   0.802  0.00  0.00    -0.392 OA
ATOM     19  H   UNL     1      -1.518  11.655   0.259  0.00  0.00    +0.210 HD
ENDBRANCH  15  18
ENDBRANCH  10  12
ENDBRANCH   7  10
ENDBRANCH   4   7
BRANCH   1  20
ATOM     20  N   UNL     1      -3.188   3.765   5.839  0.00  0.00    -0.216 N 
ATOM     21  H   UNL     1      -2.336   4.209   6.375  0.00  0.00    +0.174 HD
BRANCH  20  22
ATOM     22  S   UNL     1      -3.368   2.119   5.791  0.00  0.00    +0.073 S 
ATOM     23  O   UNL     1      -4.715   1.848   6.156  0.00  0.00    -0.150 OA
ATOM     24  O   UNL     1      -2.263   1.569   6.494  0.00  0.00    -0.150 OA
BRANCH  22  29
ATOM     25  C   UNL     1      -2.769   0.424   0.032  0.00  0.00    +0.044 C 
ATOM     26  C   UNL     1      -2.918   0.848   1.470  0.00  0.00    -0.044 A 
ATOM     27  C   UNL     1      -1.813   0.880   2.300  0.00  0.00    -0.043 A 
ATOM     28  C   UNL     1      -1.950   1.273   3.618  0.00  0.00    -0.020 A 
ATOM     29  C   UNL     1      -3.193   1.625   4.109  0.00  0.00    +0.115 A 
ATOM     30  C   UNL     1      -4.299   1.588   3.281  0.00  0.00    -0.020 A 
ATOM     31  C   UNL     1      -4.162   1.200   1.961  0.00  0.00    -0.043 A 
ATOM     32  C   UNL     1      -5.368   1.159   1.058  0.00  0.00    +0.044 C 
ATOM     33  C   UNL     1      -5.655   1.971   3.816  0.00  0.00    +0.046 C 
ATOM     34  C   UNL     1      -0.744   1.313   4.521  0.00  0.00    +0.046 C 
ATOM     35  C   UNL     1      -0.459   0.490   1.766  0.00  0.00    +0.044 C 
ENDBRANCH  22  29
ENDBRANCH  20  22
ENDBRANCH   1  20
TORSDOF 7
