REMARK  Name = ZINC64580142
REMARK  8 active torsions:
REMARK  status: ('A' for Active; 'I' for Inactive)
REMARK    1  A    between atoms: C_1  and  C_2
REMARK    2  A    between atoms: C_5  and  C_9
REMARK    3  A    between atoms: C_7  and  C_8
REMARK    4  A    between atoms: C_13  and  S_21
REMARK    5  A    between atoms: N_14  and  C_15
REMARK    6  A    between atoms: S_21  and  C_22
REMARK    7  A    between atoms: C_22  and  C_23
REMARK    8  A    between atoms: N_25  and  C_26
REMARK                            x       y       z     vdW  Elec       q    Type
REMARK                         _______ _______ _______ _____ _____    ______ ____
ROOT
ATOM      1  C   UNL     1       0.068  -4.288  -0.022  0.00  0.00    +0.213 C 
ATOM      2  N   UNL     1      -0.578  -4.814   1.192  0.00  0.00    -0.242 N 
ATOM      3  N   UNL     1      -1.686  -5.551   0.757  0.00  0.00    -0.162 NA
ATOM      4  C   UNL     1      -1.788  -5.536  -0.529  0.00  0.00    +0.180 C 
ATOM      5  N   UNL     1      -0.769  -4.797  -1.121  0.00  0.00    -0.254 N 
ATOM      6  H   UNL     1      -0.293  -4.677   2.110  0.00  0.00    +0.170 HD
ENDROOT
BRANCH   1  11
ATOM      7  C   UNL     1       0.064   1.491   0.020  0.00  0.00    +0.044 C 
ATOM      8  C   UNL     1       0.065  -0.016   0.009  0.00  0.00    -0.048 A 
ATOM      9  C   UNL     1       0.085  -0.699  -1.193  0.00  0.00    +0.004 A 
ATOM     10  C   UNL     1       0.086  -2.081  -1.203  0.00  0.00    +0.007 A 
ATOM     11  C   UNL     1       0.068  -2.781  -0.011  0.00  0.00    -0.007 A 
ATOM     12  C   UNL     1       0.049  -2.099   1.191  0.00  0.00    +0.010 A 
ATOM     13  C   UNL     1       0.052  -0.716   1.201  0.00  0.00    -0.047 A 
ATOM     14  C   UNL     1       0.037   0.028   2.511  0.00  0.00    +0.044 C 
ENDBRANCH   1  11
BRANCH   5  15
ATOM     15  C   UNL     1      -0.578  -4.578  -2.488  0.00  0.00    +0.038 A 
ATOM     16  C   UNL     1       0.553  -5.077  -3.121  0.00  0.00    +0.023 A 
ATOM     17  C   UNL     1       0.739  -4.859  -4.472  0.00  0.00    +0.002 A 
ATOM     18  C   UNL     1      -0.199  -4.145  -5.195  0.00  0.00    +0.000 A 
ATOM     19  C   UNL     1      -1.326  -3.646  -4.567  0.00  0.00    +0.002 A 
ATOM     20  C   UNL     1      -1.521  -3.865  -3.218  0.00  0.00    +0.023 A 
ENDBRANCH   5  15
BRANCH   4  21
ATOM     21  S   UNL     1      -3.061  -6.357  -1.428  0.00  0.00    -0.079 S 
BRANCH  21  22
ATOM     22  C   UNL     1      -4.073  -7.139  -0.141  0.00  0.00    +0.173 C 
BRANCH  22  23
ATOM     23  C   UNL     1      -5.214  -7.885  -0.784  0.00  0.00    +0.226 C 
ATOM     24  O   UNL     1      -5.333  -7.889  -1.990  0.00  0.00    -0.275 OA
ATOM     25  N   UNL     1      -6.102  -8.548  -0.017  0.00  0.00    -0.278 N 
ATOM     26  H   UNL     1      -6.007  -8.545   0.949  0.00  0.00    +0.152 HD
BRANCH  25  27
ATOM     27  C   UNL     1      -7.211  -9.274  -0.641  0.00  0.00    +0.269 C 
ATOM     28  N   UNL     1      -8.266  -8.334  -1.042  0.00  0.00    -0.348 N 
ATOM     29  C   UNL     1      -9.346  -8.660  -0.393  0.00  0.00    +0.061 A 
ATOM     30  C   UNL     1     -10.706  -8.103  -0.373  0.00  0.00    +0.027 A 
ATOM     31  C   UNL     1     -11.643  -8.664   0.417  0.00  0.00    +0.002 A 
ATOM     32  C   UNL     1     -11.377  -9.775   1.237  0.00  0.00    +0.002 A 
ATOM     33  C   UNL     1     -10.165 -10.363   1.294  0.00  0.00    +0.027 A 
ATOM     34  C   UNL     1      -9.065  -9.837   0.474  0.00  0.00    +0.061 A 
ATOM     35  N   UNL     1      -7.821 -10.192   0.328  0.00  0.00    -0.348 N 
ATOM     36  H   UNL     1      -8.174  -7.604  -1.673  0.00  0.00    +0.163 HD
ATOM     37  H   UNL     1      -7.379 -10.930   0.778  0.00  0.00    +0.163 HD
ENDBRANCH  25  27
ENDBRANCH  22  23
ENDBRANCH  21  22
ENDBRANCH   4  21
TORSDOF 6
