REMARK  Name = ZINC28727423
REMARK  11 active torsions:
REMARK  status: ('A' for Active; 'I' for Inactive)
REMARK    1  A    between atoms: C_1  and  C_2
REMARK    2  A    between atoms: C_2  and  C_3
REMARK    3  A    between atoms: C_2  and  N_13
REMARK    4  A    between atoms: C_6  and  S_9
REMARK    5  A    between atoms: S_9  and  N_12
REMARK    6  A    between atoms: N_13  and  C_14
REMARK    7  A    between atoms: N_13  and  C_15
REMARK    8  A    between atoms: C_15  and  C_16
REMARK    9  A    between atoms: C_18  and  N_24
REMARK   10  A    between atoms: C_21  and  O_22
REMARK   11  A    between atoms: O_22  and  C_23
REMARK                            x       y       z     vdW  Elec       q    Type
REMARK                         _______ _______ _______ _____ _____    ______ ____
ROOT
ATOM      1  C   UNL     1      -0.019   1.526   0.010  0.00  0.00    +0.029 C 
ATOM      2  C   UNL     1       0.002  -0.004   0.002  0.00  0.00    +0.084 C 
ENDROOT
BRANCH   2   3
ATOM      3  C   UNL     1       0.707  -0.490  -1.238  0.00  0.00    -0.030 A 
ATOM      4  C   UNL     1       2.089  -0.511  -1.284  0.00  0.00    +0.007 A 
ATOM      5  C   UNL     1       2.736  -0.957  -2.421  0.00  0.00    +0.029 A 
ATOM      6  C   UNL     1       2.002  -1.382  -3.512  0.00  0.00    +0.105 A 
ATOM      7  C   UNL     1       0.620  -1.362  -3.466  0.00  0.00    +0.029 A 
ATOM      8  C   UNL     1      -0.027  -0.920  -2.327  0.00  0.00    +0.007 A 
BRANCH   6   9
ATOM      9  S   UNL     1       2.826  -1.949  -4.962  0.00  0.00    +0.056 S 
ATOM     10  O   UNL     1       1.916  -1.778  -6.040  0.00  0.00    -0.153 OA
ATOM     11  O   UNL     1       4.117  -1.356  -4.954  0.00  0.00    -0.153 OA
BRANCH   9  12
ATOM     12  N   UNL     1       3.054  -3.580  -4.790  0.00  0.00    -0.204 NA
ATOM     13  H   UNL     1       2.745  -4.031  -3.989  0.00  0.00    +0.144 HD
ATOM     14  H   UNL     1       3.497  -4.085  -5.490  0.00  0.00    +0.144 HD
ENDBRANCH   9  12
ENDBRANCH   6   9
ENDBRANCH   2   3
BRANCH   2  15
ATOM     15  N   UNL     1       0.713  -0.491   1.192  0.00  0.00    -0.294 NA
ATOM     16  C   UNL     1       0.834  -1.954   1.171  0.00  0.00    +0.105 C 
BRANCH  15  17
ATOM     17  C   UNL     1       0.052  -0.035   2.423  0.00  0.00    +0.123 C 
BRANCH  17  18
ATOM     18  C   UNL     1       0.932  -0.339   3.607  0.00  0.00    +0.010 A 
ATOM     19  C   UNL     1       0.682  -1.452   4.387  0.00  0.00    +0.041 A 
ATOM     20  C   UNL     1       1.489  -1.731   5.474  0.00  0.00    +0.127 A 
ATOM     21  C   UNL     1       2.548  -0.898   5.784  0.00  0.00    +0.036 A 
ATOM     22  C   UNL     1       2.803   0.215   5.008  0.00  0.00    +0.048 A 
ATOM     23  C   UNL     1       1.998   0.495   3.913  0.00  0.00    +0.125 A 
BRANCH  20  24
ATOM     24  N   UNL     1       1.218  -2.924   6.309  0.00  0.00    +0.056 N 
ATOM     25  O   UNL     1       0.292  -3.652   6.039  0.00  0.00    -0.126 OA
ATOM     26  O   UNL     1       1.923  -3.169   7.259  0.00  0.00    -0.126 OA
ENDBRANCH  20  24
BRANCH  23  27
ATOM     27  O   UNL     1       2.249   1.587   3.144  0.00  0.00    -0.495 OA
ATOM     28  C   UNL     1       3.363   2.401   3.517  0.00  0.00    +0.277 C 
ENDBRANCH  23  27
ENDBRANCH  17  18
ENDBRANCH  15  17
ENDBRANCH   2  15
TORSDOF 8
