REMARK  Name = ZINC14274670
REMARK  5 active torsions:
REMARK  status: ('A' for Active; 'I' for Inactive)
REMARK    1  A    between atoms: C_10  and  C_12
REMARK    2  A    between atoms: N_14  and  C_15
REMARK    3  A    between atoms: C_15  and  N_17
REMARK    4  A    between atoms: N_17  and  C_18
REMARK    5  A    between atoms: C_25  and  C_27
REMARK                            x       y       z     vdW  Elec       q    Type
REMARK                         _______ _______ _______ _____ _____    ______ ____
ROOT
ATOM      1  N   UNL     1      -2.477   3.813   0.087  0.00  0.00    -0.297 N 
ATOM      2  H   UNL     1      -2.503   4.777   0.191  0.00  0.00    +0.154 HD
ENDROOT
BRANCH   1   3
ATOM      3  C   UNL     1      -1.247   3.144   0.059  0.00  0.00    +0.035 A 
ATOM      4  C   UNL     1      -1.043   2.105  -0.847  0.00  0.00    +0.027 A 
ATOM      5  C   UNL     1       0.162   1.435  -0.881  0.00  0.00    +0.050 A 
ATOM      6  C   UNL     1       1.183   1.802  -0.018  0.00  0.00    +0.156 A 
ATOM      7  C   UNL     1       0.988   2.852   0.893  0.00  0.00    +0.112 A 
ATOM      8  C   UNL     1      -0.238   3.522   0.925  0.00  0.00    +0.054 A 
ATOM      9  N   UNL     1       2.144   2.981   1.594  0.00  0.00    -0.209 NA
ATOM     10  C   UNL     1       2.999   2.088   1.163  0.00  0.00    +0.228 A 
ATOM     11  O   UNL     1       2.444   1.355   0.180  0.00  0.00    -0.435 OA
BRANCH  10  12
ATOM     12  C   UNL     1       4.372   1.913   1.679  0.00  0.00    +0.037 A 
ATOM     13  C   UNL     1       4.848   2.738   2.700  0.00  0.00    +0.014 A 
ATOM     14  C   UNL     1       6.129   2.565   3.182  0.00  0.00    +0.021 A 
ATOM     15  C   UNL     1       6.947   1.584   2.647  0.00  0.00    +0.041 A 
ATOM     16  C   UNL     1       6.482   0.766   1.630  0.00  0.00    +0.021 A 
ATOM     17  C   UNL     1       5.202   0.926   1.144  0.00  0.00    +0.014 A 
ATOM     18 CL   UNL     1       8.560   1.378   3.252  0.00  0.00    -0.084 Cl
ENDBRANCH  10  12
ENDBRANCH   1   3
BRANCH   1  19
ATOM     19  C   UNL     1      -3.625   3.116  -0.028  0.00  0.00    +0.141 C 
ATOM     20  S   UNL     1      -3.589   1.405  -0.065  0.00  0.00    -0.018 S 
BRANCH  19  23
ATOM     21  C   UNL     1      -5.950   3.071  -0.232  0.00  0.00    +0.250 C 
ATOM     22  O   UNL     1      -5.924   1.856  -0.257  0.00  0.00    -0.270 OA
ATOM     23  N   UNL     1      -4.802   3.767  -0.116  0.00  0.00    -0.264 N 
ATOM     24  H   UNL     1      -4.823   4.737  -0.095  0.00  0.00    +0.157 HD
BRANCH  21  34
ATOM     25  C   UNL     1      -8.489   5.835  -0.520  0.00  0.00    +0.001 A 
ATOM     26  C   UNL     1      -9.677   5.170  -0.510  0.00  0.00    +0.010 A 
ATOM     27  C   UNL     1      -9.714   3.770  -0.409  0.00  0.00    +0.001 A 
ATOM     28  C   UNL     1      -8.499   3.047  -0.315  0.00  0.00    -0.004 A 
ATOM     29  C   UNL     1      -8.531   1.651  -0.212  0.00  0.00    +0.009 A 
ATOM     30  C   UNL     1      -9.731   1.003  -0.203  0.00  0.00    +0.002 A 
ATOM     31  C   UNL     1     -10.927   1.710  -0.295  0.00  0.00    +0.020 A 
ATOM     32  C   UNL     1     -10.933   3.069  -0.397  0.00  0.00    +0.049 A 
ATOM     33 CL   UNL     1     -12.437   3.929  -0.510  0.00  0.00    -0.083 Cl
ATOM     34  C   UNL     1      -7.237   3.783  -0.327  0.00  0.00    +0.045 A 
ATOM     35  C   UNL     1      -7.276   5.168  -0.425  0.00  0.00    +0.014 A 
ENDBRANCH  21  34
ENDBRANCH  19  23
ENDBRANCH   1  19
TORSDOF 5
