REMARK  Name = ZINC36297046
REMARK  8 active torsions:
REMARK  status: ('A' for Active; 'I' for Inactive)
REMARK    1  A    between atoms: C_1  and  C_2
REMARK    2  A    between atoms: C_2  and  O_3
REMARK    3  A    between atoms: O_3  and  C_4
REMARK    4  A    between atoms: C_7  and  C_10
REMARK    5  A    between atoms: C_11  and  C_24
REMARK    6  A    between atoms: C_13  and  C_18
REMARK    7  A    between atoms: C_24  and  C_25
REMARK    8  A    between atoms: C_25  and  N_26
REMARK                            x       y       z     vdW  Elec       q    Type
REMARK                         _______ _______ _______ _____ _____    ______ ____
ROOT
ATOM      1  C   UNL     1       1.079  -6.042   1.953  0.00  0.00    +0.093 A 
ATOM      2  C   UNL     1       2.230  -6.706   2.218  0.00  0.00    +0.050 A 
ATOM      3  N   UNL     1       1.988  -8.061   2.018  0.00  0.00    -0.290 N 
ATOM      4  C   UNL     1       2.687  -9.253   2.102  0.00  0.00    +0.063 A 
ATOM      5  C   UNL     1       2.075 -10.420   1.814  0.00  0.00    +0.075 A 
ATOM      6  S   UNL     1       0.426  -9.879   1.395  0.00  0.00    -0.057 S 
ATOM      7  C   UNL     1       0.675  -8.135   1.635  0.00  0.00    +0.179 A 
ATOM      8  N   UNL     1       0.143  -6.948   1.604  0.00  0.00    -0.221 NA
ENDROOT
BRANCH   1  12
ATOM      9  C   UNL     1       0.509  -1.833   2.200  0.00  0.00    +0.121 A 
ATOM     10  C   UNL     1       0.009  -2.537   1.114  0.00  0.00    +0.046 A 
ATOM     11  C   UNL     1       0.192  -3.902   1.031  0.00  0.00    +0.013 A 
ATOM     12  C   UNL     1       0.881  -4.574   2.039  0.00  0.00    +0.002 A 
ATOM     13  C   UNL     1       1.382  -3.864   3.129  0.00  0.00    +0.013 A 
ATOM     14  C   UNL     1       1.200  -2.499   3.204  0.00  0.00    +0.046 A 
BRANCH   9  15
ATOM     15  O   UNL     1       0.327  -0.489   2.280  0.00  0.00    -0.492 OA
BRANCH  15  17
ATOM     16  C   UNL     1      -0.497   1.636   1.475  0.00  0.00    +0.048 C 
ATOM     17  C   UNL     1      -0.393   0.132   1.213  0.00  0.00    +0.225 C 
ENDBRANCH  15  17
ENDBRANCH   9  15
ENDBRANCH   1  12
BRANCH   4  18
ATOM     18  C   UNL     1       4.107  -9.248   2.508  0.00  0.00    +0.002 A 
ATOM     19  C   UNL     1       4.486  -8.846   3.796  0.00  0.00    +0.029 A 
ATOM     20  C   UNL     1       5.823  -8.856   4.132  0.00  0.00    +0.111 A 
ATOM     21  N   UNL     1       6.738  -9.236   3.261  0.00  0.00    -0.263 NA
ATOM     22  C   UNL     1       6.425  -9.622   2.038  0.00  0.00    +0.111 A 
ATOM     23  C   UNL     1       5.112  -9.649   1.619  0.00  0.00    +0.029 A 
ENDBRANCH   4  18
BRANCH   2  24
ATOM     24  C   UNL     1       3.535  -6.089   2.651  0.00  0.00    +0.036 C 
BRANCH  24  25
ATOM     25  C   UNL     1       4.427  -5.872   1.427  0.00  0.00    -0.080 C 
BRANCH  25  26
ATOM     26  N   UNL     1       5.699  -5.270   1.849  0.00  0.00    +0.378 N 
ATOM     27  H   UNL     1       6.287  -5.128   1.042  0.00  0.00    -0.090 HD
ATOM     28  H   UNL     1       5.520  -4.384   2.295  0.00  0.00    -0.090 HD
ATOM     29  H   UNL     1       6.163  -5.887   2.499  0.00  0.00    -0.090 HD
ENDBRANCH  25  26
ENDBRANCH  24  25
ENDBRANCH   2  24
TORSDOF 7
