REMARK  Name = ZINC08880066
REMARK  7 active torsions:
REMARK  status: ('A' for Active; 'I' for Inactive)
REMARK    1  A    between atoms: C_1  and  C_2
REMARK    2  A    between atoms: C_2  and  O_3
REMARK    3  A    between atoms: O_3  and  C_4
REMARK    4  A    between atoms: C_4  and  C_6
REMARK    5  A    between atoms: C_7  and  C_29
REMARK    6  A    between atoms: C_15  and  C_17
REMARK    7  A    between atoms: C_21  and  N_26
REMARK                            x       y       z     vdW  Elec       q    Type
REMARK                         _______ _______ _______ _____ _____    ______ ____
ROOT
ATOM      1  C   UNL     1       0.762  -6.882  -0.042  0.00  0.00    +0.102 A 
ATOM      2  C   UNL     1       1.867  -6.052  -0.048  0.00  0.00    -0.013 A 
ATOM      3  C   UNL     1       1.681  -4.688  -0.038  0.00  0.00    +0.052 A 
ATOM      4  C   UNL     1       0.359  -4.204  -0.024  0.00  0.00    +0.119 A 
ATOM      5  S   UNL     1      -0.591  -5.721  -0.023  0.00  0.00    -0.061 S 
ATOM      6  N   UNL     1       0.184  -2.889  -0.009  0.00  0.00    -0.217 NA
ATOM      7  C   UNL     1       1.197  -2.045  -0.020  0.00  0.00    +0.166 A 
ATOM      8  S   UNL     1       2.600  -3.150  -0.039  0.00  0.00    -0.051 S 
ATOM      9  N   UNL     1       1.178  -0.662  -0.012  0.00  0.00    -0.260 N 
ATOM     10  C   UNL     1       0.002  -0.004   0.002  0.00  0.00    +0.256 C 
ATOM     11  O   UNL     1      -1.043  -0.627   0.008  0.00  0.00    -0.269 OA
ATOM     12  C   UNL     1       3.258  -6.633  -0.064  0.00  0.00    +0.046 C 
ATOM     13  H   UNL     1       2.012  -0.166  -0.017  0.00  0.00    +0.157 HD
ENDROOT
BRANCH  10  14
ATOM     14  C   UNL     1      -0.018   1.465   0.010  0.00  0.00    +0.075 A 
ATOM     15  C   UNL     1      -1.093   2.298   0.019  0.00  0.00    +0.029 A 
ATOM     16  C   UNL     1      -0.901   3.691   0.030  0.00  0.00    -0.008 A 
ATOM     17  C   UNL     1      -1.885   4.713   0.044  0.00  0.00    +0.041 A 
ATOM     18  C   UNL     1      -1.526   6.023   0.048  0.00  0.00    +0.127 A 
ATOM     19  C   UNL     1      -0.193   6.413   0.037  0.00  0.00    +0.034 A 
ATOM     20  C   UNL     1       0.797   5.451   0.023  0.00  0.00    +0.018 A 
ATOM     21  C   UNL     1       0.448   4.117   0.019  0.00  0.00    +0.020 A 
ATOM     22  S   UNL     1       1.363   2.596   0.003  0.00  0.00    -0.084 S 
BRANCH  18  23
ATOM     23  N   UNL     1      -2.582   7.060   0.063  0.00  0.00    +0.056 N 
ATOM     24  O   UNL     1      -3.756   6.735   0.072  0.00  0.00    -0.126 OA
ATOM     25  O   UNL     1      -2.277   8.239   0.066  0.00  0.00    -0.126 OA
ENDBRANCH  18  23
ENDBRANCH  10  14
BRANCH   1  26
ATOM     26  C   UNL     1       0.715  -8.298  -0.049  0.00  0.00    +0.346 C 
ATOM     27  O   UNL     1       1.749  -8.941  -0.061  0.00  0.00    -0.244 OA
BRANCH  26  28
ATOM     28  O   UNL     1      -0.475  -8.934  -0.041  0.00  0.00    -0.461 OA
BRANCH  28  30
ATOM     29  C   UNL     1      -1.879 -10.901  -0.038  0.00  0.00    +0.048 C 
ATOM     30  C   UNL     1      -0.447 -10.363  -0.048  0.00  0.00    +0.229 C 
ENDBRANCH  28  30
ENDBRANCH  26  28
ENDBRANCH   1  26
TORSDOF 5
