REMARK  Name = ZINC54368588
REMARK  7 active torsions:
REMARK  status: ('A' for Active; 'I' for Inactive)
REMARK    1  A    between atoms: C_1  and  C_2
REMARK    2  A    between atoms: C_8  and  C_10
REMARK    3  A    between atoms: N_13  and  C_16
REMARK    4  A    between atoms: C_16  and  C_18
REMARK    5  A    between atoms: C_16  and  C_19
REMARK    6  A    between atoms: N_21  and  C_22
REMARK    7  A    between atoms: C_22  and  C_23
REMARK                            x       y       z     vdW  Elec       q    Type
REMARK                         _______ _______ _______ _____ _____    ______ ____
ROOT
ATOM      1  C   UNL     1      -3.764  -5.324   1.200  0.00  0.00    +0.072 C 
ATOM      2  C   UNL     1      -3.397  -5.533  -0.272  0.00  0.00    -0.006 C 
ATOM      3  C   UNL     1      -4.328  -6.586  -0.879  0.00  0.00    -0.077 C 
ATOM      4  N   UNL     1      -5.719  -6.130  -0.779  0.00  0.00    +0.387 N 
ATOM      5  C   UNL     1      -6.100  -5.996   0.632  0.00  0.00    -0.077 C 
ATOM      6  C   UNL     1      -5.238  -4.920   1.296  0.00  0.00    -0.006 C 
ATOM      7  H   UNL     1      -5.813  -5.236  -1.238  0.00  0.00    -0.081 HD
ENDROOT
BRANCH   1  15
ATOM      8  C   UNL     1      -0.189  -0.083   3.961  0.00  0.00    +0.089 C 
ATOM      9  C   UNL     1      -0.157  -1.442   3.309  0.00  0.00    +0.136 A 
ATOM     10  C   UNL     1      -1.227  -2.145   2.900  0.00  0.00    +0.091 A 
ATOM     11  C   UNL     1      -0.766  -3.360   2.345  0.00  0.00    +0.168 A 
ATOM     12  N   UNL     1       0.539  -3.370   2.426  0.00  0.00    -0.063 NA
ATOM     13  O   UNL     1       0.945  -2.156   3.032  0.00  0.00    -0.358 OA
ATOM     14  N   UNL     1      -1.563  -4.371   1.805  0.00  0.00    -0.267 N 
ATOM     15  C   UNL     1      -2.903  -4.232   1.783  0.00  0.00    +0.221 C 
ATOM     16  O   UNL     1      -3.417  -3.230   2.232  0.00  0.00    -0.275 OA
ATOM     17  H   UNL     1      -1.152  -5.173   1.446  0.00  0.00    +0.156 HD
ENDBRANCH   1  15
BRANCH   4  18
ATOM     18  C   UNL     1      -6.601  -7.107  -1.432  0.00  0.00    +0.016 C 
ATOM     19  C   UNL     1      -6.216  -7.236  -2.907  0.00  0.00    -0.004 C 
BRANCH  18  20
ATOM     20  C   UNL     1      -8.031  -6.643  -1.325  0.00  0.00    +0.199 C 
ATOM     21  O   UNL     1      -8.281  -5.458  -1.261  0.00  0.00    -0.278 OA
ATOM     22  N   UNL     1      -9.032  -7.545  -1.301  0.00  0.00    -0.316 N 
ATOM     23  H   UNL     1      -8.832  -8.493  -1.352  0.00  0.00    +0.149 HD
BRANCH  22  24
ATOM     24  C   UNL     1     -10.422  -7.094  -1.197  0.00  0.00    +0.107 C 
BRANCH  24  25
ATOM     25  C   UNL     1     -11.353  -8.309  -1.189  0.00  0.00    +0.006 C 
ATOM     26  C   UNL     1     -11.261  -9.030  -2.536  0.00  0.00    +0.005 C 
ATOM     27  C   UNL     1     -12.192 -10.244  -2.528  0.00  0.00    +0.000 C 
ATOM     28  C   UNL     1     -13.631  -9.782  -2.295  0.00  0.00    +0.000 C 
ATOM     29  C   UNL     1     -13.723  -9.060  -0.949  0.00  0.00    +0.000 C 
ATOM     30  C   UNL     1     -12.793  -7.846  -0.956  0.00  0.00    +0.005 C 
ENDBRANCH  24  25
ENDBRANCH  22  24
ENDBRANCH  18  20
ENDBRANCH   4  18
TORSDOF 5
