REMARK  Name = ZINC06401398
REMARK  7 active torsions:
REMARK  status: ('A' for Active; 'I' for Inactive)
REMARK    1  A    between atoms: C_1  and  C_2
REMARK    2  A    between atoms: C_2  and  N_3
REMARK    3  A    between atoms: C_8  and  S_10
REMARK    4  A    between atoms: S_10  and  C_11
REMARK    5  A    between atoms: N_20  and  C_21
REMARK    6  A    between atoms: C_21  and  C_22
REMARK    7  A    between atoms: C_21  and  C_23
REMARK                            x       y       z     vdW  Elec       q    Type
REMARK                         _______ _______ _______ _____ _____    ______ ____
ROOT
ATOM      1  N   UNL     1       0.882   5.904   0.025  0.00  0.00    -0.314 N 
ATOM      2  C   UNL     1       2.180   5.435   0.010  0.00  0.00    +0.220 A 
ATOM      3  N   UNL     1       3.197   6.291   0.005  0.00  0.00    -0.181 NA
ATOM      4  C   UNL     1       4.447   5.839  -0.010  0.00  0.00    +0.221 A 
ATOM      5  N   UNL     1       4.680   4.530  -0.019  0.00  0.00    -0.188 NA
ATOM      6  C   UNL     1       3.663   3.674  -0.014  0.00  0.00    +0.201 A 
ATOM      7  N   UNL     1       2.413   4.126  -0.004  0.00  0.00    -0.188 NA
ATOM      8  N   UNL     1       5.503   6.728  -0.016  0.00  0.00    -0.311 N 
ATOM      9  H   UNL     1       0.712   6.859   0.031  0.00  0.00    +0.149 HD
ATOM     10  H   UNL     1       5.332   7.683  -0.009  0.00  0.00    +0.149 HD
ENDROOT
BRANCH   8  11
ATOM     11  C   UNL     1       6.880   6.229  -0.032  0.00  0.00    +0.067 C 
ATOM     12  C   UNL     1       7.302   5.945  -1.475  0.00  0.00    +0.027 C 
ATOM     13  C   UNL     1       7.811   7.281   0.574  0.00  0.00    +0.027 C 
ENDBRANCH   8  11
BRANCH   1  15
ATOM     14  C   UNL     1      -1.558   5.736   0.047  0.00  0.00    +0.024 C 
ATOM     15  C   UNL     1      -0.238   4.961   0.031  0.00  0.00    +0.101 C 
ENDBRANCH   1  15
BRANCH   6  16
ATOM     16  S   UNL     1       3.972   1.939  -0.026  0.00  0.00    -0.023 S 
BRANCH  16  17
ATOM     17  C   UNL     1       2.317   1.333  -0.013  0.00  0.00    +0.143 A 
ATOM     18  N   UNL     1       1.192   2.011   0.002  0.00  0.00    -0.232 NA
ATOM     19  C   UNL     1      -0.017   1.409   0.010  0.00  0.00    +0.079 A 
ATOM     20  C   UNL     1      -1.294   2.016   0.031  0.00  0.00    +0.029 A 
ATOM     21  C   UNL     1      -2.432   1.253   0.033  0.00  0.00    +0.002 A 
ATOM     22  C   UNL     1      -2.376  -0.133   0.025  0.00  0.00    +0.001 A 
ATOM     23  C   UNL     1      -1.143  -0.760   0.009  0.00  0.00    +0.017 A 
ATOM     24  C   UNL     1       0.002  -0.004   0.002  0.00  0.00    +0.040 A 
ATOM     25  S   UNL     1       1.743  -0.359  -0.017  0.00  0.00    -0.061 S 
ENDBRANCH  16  17
ENDBRANCH   6  16
TORSDOF 4
