REMARK  Name = ZINC01078464
REMARK  7 active torsions:
REMARK  status: ('A' for Active; 'I' for Inactive)
REMARK    1  A    between atoms: C_3  and  O_24
REMARK    2  A    between atoms: C_6  and  N_7
REMARK    3  A    between atoms: C_8  and  C_10
REMARK    4  A    between atoms: C_10  and  S_11
REMARK    5  A    between atoms: S_11  and  C_12
REMARK    6  A    between atoms: N_16  and  C_17
REMARK    7  A    between atoms: O_24  and  C_25
REMARK                            x       y       z     vdW  Elec       q    Type
REMARK                         _______ _______ _______ _____ _____    ______ ____
ROOT
ATOM      1  N   UNL     1      -1.202  -0.721   0.010  0.00  0.00    -0.285 N 
ATOM      2  C   UNL     1      -1.186  -2.065  -0.099  0.00  0.00    +0.227 C 
ATOM      3  O   UNL     1      -0.129  -2.660  -0.113  0.00  0.00    -0.275 OA
ATOM      4  H   UNL     1      -2.046  -0.252   0.098  0.00  0.00    +0.155 HD
ENDROOT
BRANCH   1  10
ATOM      5  C   UNL     1       1.071  -0.455  -0.766  0.00  0.00    +0.027 A 
ATOM      6  C   UNL     1       2.256   0.254  -0.780  0.00  0.00    +0.048 A 
ATOM      7  C   UNL     1       2.379   1.415  -0.032  0.00  0.00    +0.129 A 
ATOM      8  C   UNL     1       1.311   1.866   0.730  0.00  0.00    +0.048 A 
ATOM      9  C   UNL     1       0.126   1.159   0.745  0.00  0.00    +0.027 A 
ATOM     10  C   UNL     1       0.002  -0.004  -0.004  0.00  0.00    +0.034 A 
BRANCH   7  11
ATOM     11  O   UNL     1       3.547   2.112  -0.045  0.00  0.00    -0.420 OA
BRANCH  11  12
ATOM     12  C   UNL     1       3.603   3.299   0.748  0.00  0.00    +0.489 C 
ATOM     13  F   UNL     1       2.624   4.198   0.313  0.00  0.00    -0.149 F 
ATOM     14  F   UNL     1       3.375   2.974   2.090  0.00  0.00    -0.149 F 
ATOM     15 CL   UNL     1       5.231   4.056   0.582  0.00  0.00    +0.000 Cl
ENDBRANCH  11  12
ENDBRANCH   7  11
ENDBRANCH   1  10
BRANCH   2  16
ATOM     16  C   UNL     1      -2.482  -2.827  -0.204  0.00  0.00    +0.173 C 
BRANCH  16  17
ATOM     17  S   UNL     1      -2.130  -4.602  -0.337  0.00  0.00    -0.075 S 
BRANCH  17  18
ATOM     18  C   UNL     1      -3.724  -5.345  -0.450  0.00  0.00    +0.214 A 
ATOM     19  N   UNL     1      -4.881  -4.718  -0.443  0.00  0.00    -0.101 NA
ATOM     20  N   UNL     1      -5.848  -5.558  -0.542  0.00  0.00    -0.022 NA
ATOM     21  N   UNL     1      -5.392  -6.761  -0.619  0.00  0.00    -0.038 NA
ATOM     22  N   UNL     1      -3.990  -6.670  -0.567  0.00  0.00    -0.187 N 
BRANCH  22  23
ATOM     23  C   UNL     1      -3.065  -7.723  -0.622  0.00  0.00    +0.070 A 
ATOM     24  C   UNL     1      -1.842  -7.542  -1.253  0.00  0.00    +0.029 A 
ATOM     25  C   UNL     1      -0.933  -8.580  -1.306  0.00  0.00    +0.016 A 
ATOM     26  C   UNL     1      -1.240  -9.800  -0.730  0.00  0.00    +0.014 A 
ATOM     27  C   UNL     1      -2.458  -9.983  -0.100  0.00  0.00    +0.016 A 
ATOM     28  C   UNL     1      -3.368  -8.946  -0.040  0.00  0.00    +0.029 A 
ATOM     29  I   UNL     1       0.142 -11.372  -0.812  0.00  0.00    -0.044 I 
ENDBRANCH  22  23
ENDBRANCH  17  18
ENDBRANCH  16  17
ENDBRANCH   2  16
TORSDOF 7
