REMARK  Name = ZINC15672273
REMARK  2 active torsions:
REMARK  status: ('A' for Active; 'I' for Inactive)
REMARK    1  A    between atoms: C_4  and  N_7
REMARK    2  A    between atoms: C_13  and  C_15
REMARK                            x       y       z     vdW  Elec       q    Type
REMARK                         _______ _______ _______ _____ _____    ______ ____
ROOT
ATOM      1  C   UNL     1       6.087   0.919  -1.443  0.00  0.00    +0.161 C 
ATOM      2  C   UNL     1       6.619   2.260  -1.981  0.00  0.00    +0.033 C 
ATOM      3  C   UNL     1       8.143   2.056  -2.139  0.00  0.00    +0.021 C 
ATOM      4  C   UNL     1       8.278   0.515  -2.235  0.00  0.00    +0.108 C 
ATOM      5  N   UNL     1       7.253   0.024  -1.279  0.00  0.00    -0.297 N 
ATOM      6  C   UNL     1       6.911  -1.294  -1.550  0.00  0.00    +0.186 A 
ATOM      7  N   UNL     1       5.747  -1.799  -1.911  0.00  0.00    -0.124 NA
ATOM      8  N   UNL     1       5.626  -3.151  -2.131  0.00  0.00    -0.124 NA
ATOM      9  C   UNL     1       6.674  -3.937  -1.981  0.00  0.00    +0.192 A 
ATOM     10  S   UNL     1       7.932  -2.760  -1.510  0.00  0.00    -0.015 S 
ATOM     11  N   UNL     1       6.774  -5.316  -2.150  0.00  0.00    -0.249 N 
ATOM     12  C   UNL     1       5.661  -6.185  -2.549  0.00  0.00    +0.116 C 
ATOM     13  C   UNL     1       6.106  -7.619  -2.186  0.00  0.00    +0.029 C 
ATOM     14  C   UNL     1       7.646  -7.490  -2.227  0.00  0.00    +0.098 C 
ATOM     15  C   UNL     1       7.904  -6.021  -1.973  0.00  0.00    +0.221 C 
ATOM     16  O   UNL     1       8.975  -5.549  -1.653  0.00  0.00    -0.275 OA
ENDROOT
BRANCH   1  23
ATOM     17  N   UNL     1       1.365   1.594  -0.002  0.00  0.00    -0.296 NA
ATOM     18  C   UNL     1       2.053   1.225  -1.247  0.00  0.00    +0.103 C 
ATOM     19  C   UNL     1       3.417   1.923  -1.299  0.00  0.00    +0.123 C 
ATOM     20  N   UNL     1       4.151   1.605  -0.065  0.00  0.00    -0.298 N 
ATOM     21  C   UNL     1       3.474   1.820   1.223  0.00  0.00    +0.123 C 
ATOM     22  C   UNL     1       2.108   1.127   1.176  0.00  0.00    +0.103 C 
ATOM     23  C   UNL     1       5.412   1.131  -0.113  0.00  0.00    +0.236 C 
ATOM     24  O   UNL     1       6.003   0.875   0.915  0.00  0.00    -0.274 OA
BRANCH  17  28
ATOM     25  C   UNL     1      -2.904   1.556   0.038  0.00  0.00    +0.000 C 
ATOM     26  C   UNL     1      -2.188   1.063  -1.221  0.00  0.00    +0.002 C 
ATOM     27  C   UNL     1      -0.753   1.593  -1.232  0.00  0.00    +0.019 C 
ATOM     28  C   UNL     1      -0.013   1.086   0.008  0.00  0.00    +0.057 C 
ATOM     29  C   UNL     1      -0.729   1.579   1.267  0.00  0.00    +0.019 C 
ATOM     30  C   UNL     1      -2.164   1.050   1.278  0.00  0.00    +0.002 C 
ENDBRANCH  17  28
ENDBRANCH   1  23
TORSDOF 2
