REMARK  Name = ZINC67373017
REMARK  6 active torsions:
REMARK  status: ('A' for Active; 'I' for Inactive)
REMARK    1  A    between atoms: C_6  and  C_11
REMARK    2  A    between atoms: C_11  and  C_13
REMARK    3  A    between atoms: C_11  and  O_26
REMARK    4  A    between atoms: C_13  and  N_14
REMARK    5  A    between atoms: N_14  and  C_15
REMARK    6  A    between atoms: C_16  and  N_23
REMARK                            x       y       z     vdW  Elec       q    Type
REMARK                         _______ _______ _______ _____ _____    ______ ____
ROOT
ATOM      1  C   UNL     1       5.380  -3.049  -1.503  0.00  0.00    +0.139 C 
ENDROOT
BRANCH   1   2
ATOM      2  N   UNL     1       6.665  -3.753  -1.519  0.00  0.00    -0.323 N 
ATOM      3  H   UNL     1       7.134  -3.926  -0.688  0.00  0.00    +0.148 HD
BRANCH   2   4
ATOM      4  C   UNL     1       7.217  -4.177  -2.738  0.00  0.00    +0.170 A 
ATOM      5  C   UNL     1       8.384  -4.836  -2.889  0.00  0.00    +0.242 A 
ATOM      6  N   UNL     1       8.563  -5.069  -4.256  0.00  0.00    -0.273 N 
ATOM      7  C   UNL     1       9.490  -5.662  -5.084  0.00  0.00    +0.102 A 
ATOM      8  C   UNL     1       9.307  -5.690  -6.404  0.00  0.00    +0.067 A 
ATOM      9  S   UNL     1       7.744  -4.843  -6.577  0.00  0.00    -0.058 S 
ATOM     10  C   UNL     1       7.460  -4.519  -4.852  0.00  0.00    +0.181 A 
ATOM     11  N   UNL     1       6.671  -4.001  -3.953  0.00  0.00    -0.204 NA
BRANCH   5  12
ATOM     12  N   UNL     1       9.312  -5.242  -1.800  0.00  0.00    +0.077 N 
ATOM     13  O   UNL     1      10.194  -4.493  -1.447  0.00  0.00    -0.125 OA
ATOM     14  O   UNL     1       9.185  -6.320  -1.268  0.00  0.00    -0.125 OA
ENDBRANCH   5  12
ENDBRANCH   2   4
ENDBRANCH   1   2
BRANCH   1  15
ATOM     15  C   UNL     1       5.008  -2.700  -0.060  0.00  0.00    +0.161 C 
BRANCH  15  21
ATOM     16  C   UNL     1      -0.016   1.357   0.009  0.00  0.00    +0.001 A 
ATOM     17  C   UNL     1       1.169   2.091   0.002  0.00  0.00    +0.001 A 
ATOM     18  C   UNL     1       2.378   1.468  -0.013  0.00  0.00    +0.008 A 
ATOM     19  C   UNL     1       2.438   0.063  -0.021  0.00  0.00    -0.018 A 
ATOM     20  C   UNL     1       3.668  -0.615  -0.036  0.00  0.00    +0.014 A 
ATOM     21  C   UNL     1       3.687  -1.976  -0.043  0.00  0.00    -0.017 A 
ATOM     22  C   UNL     1       2.502  -2.710  -0.036  0.00  0.00    +0.007 A 
ATOM     23  C   UNL     1       1.292  -2.087  -0.021  0.00  0.00    +0.009 A 
ATOM     24  C   UNL     1       1.233  -0.683  -0.013  0.00  0.00    -0.018 A 
ATOM     25  C   UNL     1       0.002  -0.004   0.002  0.00  0.00    +0.008 A 
ENDBRANCH  15  21
BRANCH  15  26
ATOM     26  O   UNL     1       4.903  -3.901   0.708  0.00  0.00    -0.386 OA
ATOM     27  H   UNL     1       4.234  -4.519   0.382  0.00  0.00    +0.210 HD
ENDBRANCH  15  26
ENDBRANCH   1  15
TORSDOF 6
