REMARK  Name = ZINC06515058
REMARK  10 active torsions:
REMARK  status: ('A' for Active; 'I' for Inactive)
REMARK    1  A    between atoms: C_1  and  C_2
REMARK    2  A    between atoms: C_2  and  C_28
REMARK    3  A    between atoms: C_4  and  N_10
REMARK    4  A    between atoms: C_6  and  C_8
REMARK    5  A    between atoms: C_6  and  C_9
REMARK    6  A    between atoms: N_10  and  C_11
REMARK    7  A    between atoms: N_10  and  C_18
REMARK    8  A    between atoms: C_11  and  C_12
REMARK    9  A    between atoms: C_18  and  N_20
REMARK   10  A    between atoms: N_20  and  C_21
REMARK                            x       y       z     vdW  Elec       q    Type
REMARK                         _______ _______ _______ _____ _____    ______ ____
ROOT
ATOM      1  N   UNL     1      -3.012  -1.015   0.866  0.00  0.00    -0.305 N 
ENDROOT
BRANCH   1   5
ATOM      2  C   UNL     1       0.723  -1.768   3.074  0.00  0.00    -0.010 C 
ATOM      3  C   UNL     1       0.017  -0.408   3.069  0.00  0.00    -0.072 C 
ATOM      4  C   UNL     1      -1.451  -0.591   2.697  0.00  0.00    +0.009 C 
ATOM      5  C   UNL     1      -1.590  -0.875   1.202  0.00  0.00    +0.073 C 
ATOM      6  C   UNL     1      -1.006   0.312   0.435  0.00  0.00    +0.009 C 
ATOM      7  C   UNL     1       0.465   0.502   0.790  0.00  0.00    -0.072 C 
ATOM      8  N   UNL     1       0.711   0.544   2.220  0.00  0.00    +0.386 N 
ATOM      9  C   UNL     1       0.912   1.858   0.196  0.00  0.00    -0.010 C 
ATOM     10  C   UNL     1       1.306  -0.584   0.112  0.00  0.00    -0.010 C 
ATOM     11  C   UNL     1       0.063   0.132   4.518  0.00  0.00    -0.010 C 
ATOM     12  H   UNL     1       0.494   1.488   2.555  0.00  0.00    -0.084 HD
ATOM     13  H   UNL     1       1.718   0.439   2.376  0.00  0.00    -0.084 HD
ENDBRANCH   1   5
BRANCH   1  14
ATOM     14  C   UNL     1      -3.463  -2.156   0.309  0.00  0.00    +0.138 C 
ATOM     15  S   UNL     1      -5.101  -2.285  -0.172  0.00  0.00    -0.018 S 
BRANCH  14  16
ATOM     16  N   UNL     1      -2.625  -3.196   0.130  0.00  0.00    -0.297 N 
ATOM     17  H   UNL     1      -2.712  -3.990   0.680  0.00  0.00    +0.154 HD
BRANCH  16  18
ATOM     18  C   UNL     1      -1.628  -3.131  -0.851  0.00  0.00    +0.033 A 
ATOM     19  C   UNL     1      -1.518  -2.005  -1.657  0.00  0.00    +0.025 A 
ATOM     20  C   UNL     1      -0.533  -1.943  -2.623  0.00  0.00    +0.022 A 
ATOM     21  C   UNL     1       0.343  -3.001  -2.788  0.00  0.00    +0.041 A 
ATOM     22  C   UNL     1       0.236  -4.123  -1.987  0.00  0.00    +0.022 A 
ATOM     23  C   UNL     1      -0.744  -4.189  -1.015  0.00  0.00    +0.025 A 
ATOM     24 CL   UNL     1       1.580  -2.920  -4.004  0.00  0.00    -0.084 Cl
ENDBRANCH  16  18
ENDBRANCH  14  16
ENDBRANCH   1  14
BRANCH   1  25
ATOM     25  C   UNL     1      -3.941   0.085   1.137  0.00  0.00    +0.142 C 
BRANCH  25  26
ATOM     26  C   UNL     1      -4.063   0.952  -0.089  0.00  0.00    -0.027 A 
ATOM     27  C   UNL     1      -3.312   2.111  -0.217  0.00  0.00    +0.025 A 
ATOM     28  C   UNL     1      -3.451   2.881  -1.356  0.00  0.00    +0.111 A 
ATOM     29  N   UNL     1      -4.286   2.526  -2.313  0.00  0.00    -0.263 NA
ATOM     30  C   UNL     1      -5.016   1.431  -2.226  0.00  0.00    +0.111 A 
ATOM     31  C   UNL     1      -4.926   0.608  -1.119  0.00  0.00    +0.025 A 
ENDBRANCH  25  26
ENDBRANCH   1  25
TORSDOF 6
