REMARK  Name = ZINC33119763
REMARK  6 active torsions:
REMARK  status: ('A' for Active; 'I' for Inactive)
REMARK    1  A    between atoms: C_1  and  C_2
REMARK    2  A    between atoms: C_2  and  C_4
REMARK    3  A    between atoms: C_2  and  N_15
REMARK    4  A    between atoms: C_16  and  C_18
REMARK    5  A    between atoms: C_21  and  S_24
REMARK    6  A    between atoms: S_24  and  C_25
REMARK                            x       y       z     vdW  Elec       q    Type
REMARK                         _______ _______ _______ _____ _____    ______ ____
ROOT
ATOM      1  C   UNL     1       4.412  -0.030  -5.115  0.00  0.00    +0.033 C 
ATOM      2  C   UNL     1       4.848  -0.386  -3.692  0.00  0.00    +0.100 C 
ENDROOT
BRANCH   2   3
ATOM      3  C   UNL     1       3.905   0.252  -2.704  0.00  0.00    -0.025 A 
ATOM      4  C   UNL     1       4.049   1.588  -2.378  0.00  0.00    +0.009 A 
ATOM      5  C   UNL     1       3.188   2.181  -1.472  0.00  0.00    +0.048 A 
ATOM      6  C   UNL     1       2.179   1.435  -0.891  0.00  0.00    +0.142 A 
ATOM      7  C   UNL     1       2.034   0.088  -1.219  0.00  0.00    +0.076 A 
ATOM      8  C   UNL     1       2.899  -0.500  -2.126  0.00  0.00    +0.032 A 
ATOM      9  N   UNL     1       1.007  -0.657  -0.621  0.00  0.00    -0.280 N 
ATOM     10  C   UNL     1       0.002  -0.004   0.002  0.00  0.00    +0.255 C 
ATOM     11  O   UNL     1      -0.881  -0.628   0.552  0.00  0.00    -0.272 OA
ATOM     12  C   UNL     1      -0.018   1.503   0.010  0.00  0.00    +0.325 C 
ATOM     13  O   UNL     1       1.322   2.002   0.000  0.00  0.00    -0.481 OA
ATOM     14  H   UNL     1       1.028  -1.756  -0.664  0.00  0.00    +0.155 HD
ENDBRANCH   2   3
BRANCH   2  15
ATOM     15  N   UNL     1       6.207   0.108  -3.459  0.00  0.00    -0.305 N 
ATOM     16  C   UNL     1       7.267  -0.636  -3.832  0.00  0.00    +0.245 C 
ATOM     17  O   UNL     1       7.096  -1.717  -4.361  0.00  0.00    -0.270 OA
ATOM     18  H   UNL     1       6.362   1.087  -2.981  0.00  0.00    +0.150 HD
BRANCH  16  19
ATOM     19  C   UNL     1       8.636  -0.138  -3.597  0.00  0.00    +0.037 A 
ATOM     20  C   UNL     1       8.835   1.107  -2.994  0.00  0.00    +0.014 A 
ATOM     21  C   UNL     1      10.108   1.565  -2.773  0.00  0.00    +0.015 A 
ATOM     22  C   UNL     1      11.203   0.795  -3.158  0.00  0.00    +0.013 A 
ATOM     23  C   UNL     1      11.008  -0.444  -3.764  0.00  0.00    +0.015 A 
ATOM     24  C   UNL     1       9.737  -0.909  -3.983  0.00  0.00    +0.014 A 
BRANCH  22  25
ATOM     25  S   UNL     1      12.838   1.389  -2.879  0.00  0.00    -0.056 S 
BRANCH  25  26
ATOM     26  C   UNL     1      12.589   3.002  -2.087  0.00  0.00    +0.404 C 
ATOM     27  F   UNL     1      11.865   3.836  -2.945  0.00  0.00    -0.197 F 
ATOM     28  F   UNL     1      11.880   2.831  -0.893  0.00  0.00    -0.197 F 
ENDBRANCH  25  26
ENDBRANCH  22  25
ENDBRANCH  16  19
ENDBRANCH   2  15
TORSDOF 5
