REMARK  Name = ZINC08825412
REMARK  8 active torsions:
REMARK  status: ('A' for Active; 'I' for Inactive)
REMARK    1  A    between atoms: C_1  and  C_2
REMARK    2  A    between atoms: C_4  and  C_37
REMARK    3  A    between atoms: C_6  and  S_11
REMARK    4  A    between atoms: C_7  and  C_8
REMARK    5  A    between atoms: S_11  and  C_12
REMARK    6  A    between atoms: C_12  and  C_13
REMARK    7  A    between atoms: C_16  and  C_31
REMARK    8  A    between atoms: C_19  and  C_21
REMARK                            x       y       z     vdW  Elec       q    Type
REMARK                         _______ _______ _______ _____ _____    ______ ____
ROOT
ATOM      1  C   UNL     1      -1.217   3.852  -5.282  0.00  0.00    +0.246 C 
ATOM      2  O   UNL     1      -1.200   2.658  -5.498  0.00  0.00    -0.273 OA
ATOM      3  N   UNL     1      -1.228   4.722  -6.311  0.00  0.00    -0.184 N 
ATOM      4  C   UNL     1      -1.217   4.362  -7.738  0.00  0.00    +0.137 C 
ATOM      5  C   UNL     1      -1.241   5.726  -8.456  0.00  0.00    +0.087 C 
ATOM      6  C   UNL     1      -1.255   6.731  -7.327  0.00  0.00    +0.069 C 
ATOM      7  N   UNL     1      -1.247   6.111  -6.198  0.00  0.00    -0.181 NA
ENDROOT
BRANCH   6   8
ATOM      8  C   UNL     1      -1.273   8.196  -7.493  0.00  0.00    -0.002 A 
ATOM      9  C   UNL     1      -1.280   8.753  -8.786  0.00  0.00    +0.010 A 
ATOM     10  C   UNL     1      -1.297  10.098  -8.964  0.00  0.00    +0.009 A 
ATOM     11  C   UNL     1      -1.310  10.956  -7.848  0.00  0.00    -0.018 A 
ATOM     12  C   UNL     1      -1.329  12.351  -8.009  0.00  0.00    +0.008 A 
ATOM     13  C   UNL     1      -1.341  13.157  -6.911  0.00  0.00    +0.001 A 
ATOM     14  C   UNL     1      -1.335  12.618  -5.625  0.00  0.00    +0.001 A 
ATOM     15  C   UNL     1      -1.316  11.272  -5.431  0.00  0.00    +0.008 A 
ATOM     16  C   UNL     1      -1.303  10.408  -6.541  0.00  0.00    -0.017 A 
ATOM     17  C   UNL     1      -1.290   9.015  -6.375  0.00  0.00    +0.018 A 
ENDBRANCH   6   8
BRANCH   4  18
ATOM     18  C   UNL     1       0.037   3.600  -8.082  0.00  0.00    -0.025 A 
ATOM     19  C   UNL     1       1.244   3.963  -7.515  0.00  0.00    +0.005 A 
ATOM     20  C   UNL     1       2.393   3.261  -7.828  0.00  0.00    +0.000 A 
ATOM     21  C   UNL     1       2.337   2.203  -8.715  0.00  0.00    +0.000 A 
ATOM     22  C   UNL     1       1.131   1.843  -9.287  0.00  0.00    +0.000 A 
ATOM     23  C   UNL     1      -0.020   2.542  -8.970  0.00  0.00    +0.005 A 
ENDBRANCH   4  18
BRANCH   1  24
ATOM     24  C   UNL     1      -1.224   4.362  -3.864  0.00  0.00    +0.173 C 
BRANCH  24  25
ATOM     25  S   UNL     1      -1.205   2.960  -2.719  0.00  0.00    -0.096 S 
BRANCH  25  31
ATOM     26  C   UNL     1      -1.195   3.076   2.552  0.00  0.00    +0.044 C 
ATOM     27  C   UNL     1      -1.211   3.804   1.233  0.00  0.00    -0.034 A 
ATOM     28  C   UNL     1      -1.230   5.186   1.186  0.00  0.00    +0.027 A 
ATOM     29  C   UNL     1      -1.245   5.827  -0.040  0.00  0.00    +0.040 A 
ATOM     30  N   UNL     1      -1.240   5.145  -1.168  0.00  0.00    -0.245 NA
ATOM     31  C   UNL     1      -1.217   3.820  -1.182  0.00  0.00    +0.110 A 
ATOM     32  C   UNL     1      -1.207   3.098   0.025  0.00  0.00    +0.071 A 
ATOM     33  C   UNL     1      -1.266   7.333  -0.087  0.00  0.00    +0.065 C 
BRANCH  32  34
ATOM     34  C   UNL     1      -1.187   1.624   0.017  0.00  0.00    +0.244 C 
ATOM     35  O   UNL     1      -2.232   1.002   0.018  0.00  0.00    -0.270 OA
ATOM     36  N   UNL     1      -0.011   0.966   0.007  0.00  0.00    -0.325 N 
ATOM     37  H   UNL     1       0.002  -0.004   0.002  0.00  0.00    +0.145 HD
ATOM     38  H   UNL     1       0.822   1.462   0.002  0.00  0.00    +0.145 HD
ENDBRANCH  32  34
ENDBRANCH  25  31
ENDBRANCH  24  25
ENDBRANCH   1  24
TORSDOF 6
