REMARK  Name = ZINC15054350
REMARK  7 active torsions:
REMARK  status: ('A' for Active; 'I' for Inactive)
REMARK    1  A    between atoms: C_3  and  O_35
REMARK    2  A    between atoms: C_6  and  N_7
REMARK    3  A    between atoms: N_9  and  C_28
REMARK    4  A    between atoms: C_12  and  C_15
REMARK    5  A    between atoms: C_15  and  C_16
REMARK    6  A    between atoms: C_16  and  C_18
REMARK    7  A    between atoms: C_31  and  O_34
REMARK                            x       y       z     vdW  Elec       q    Type
REMARK                         _______ _______ _______ _____ _____    ______ ____
ROOT
ATOM      1  N   UNL     1      -0.006  -8.078   6.814  0.00  0.00    -0.225 NA
ATOM      2  C   UNL     1       0.732  -7.252   6.111  0.00  0.00    +0.168 C 
ATOM      3  N   UNL     1       2.055  -6.910   6.311  0.00  0.00    -0.218 N 
ATOM      4  C   UNL     1       2.690  -6.057   5.525  0.00  0.00    +0.239 C 
ATOM      5  O   UNL     1       3.852  -5.759   5.704  0.00  0.00    -0.274 OA
ATOM      6  C   UNL     1       1.873  -5.473   4.384  0.00  0.00    +0.148 C 
ATOM      7  S   UNL     1       0.261  -6.304   4.672  0.00  0.00    -0.076 S 
ENDROOT
BRANCH   1  13
ATOM      8  C   UNL     1      -2.140  -7.219   6.142  0.00  0.00    +0.031 A 
ATOM      9  C   UNL     1      -3.454  -7.443   5.786  0.00  0.00    +0.047 A 
ATOM     10  C   UNL     1      -3.957  -8.737   5.759  0.00  0.00    +0.117 A 
ATOM     11  C   UNL     1      -3.139  -9.810   6.083  0.00  0.00    +0.047 A 
ATOM     12  C   UNL     1      -1.823  -9.595   6.435  0.00  0.00    +0.031 A 
ATOM     13  C   UNL     1      -1.313  -8.296   6.464  0.00  0.00    +0.067 A 
BRANCH  10  14
ATOM     14  O   UNL     1      -5.254  -8.953   5.412  0.00  0.00    -0.507 OA
ATOM     15  H   UNL     1      -5.867  -8.941   6.160  0.00  0.00    +0.292 HD
ENDBRANCH  10  14
ENDBRANCH   1  13
BRANCH   3  16
ATOM     16  C   UNL     1       2.750  -7.487   7.385  0.00  0.00    +0.043 A 
ATOM     17  C   UNL     1       2.754  -6.863   8.625  0.00  0.00    +0.027 A 
ATOM     18  C   UNL     1       3.432  -7.435   9.683  0.00  0.00    +0.047 A 
ATOM     19  C   UNL     1       4.119  -8.627   9.504  0.00  0.00    +0.117 A 
ATOM     20  C   UNL     1       4.121  -9.248   8.263  0.00  0.00    +0.047 A 
ATOM     21  C   UNL     1       3.438  -8.680   7.206  0.00  0.00    +0.027 A 
BRANCH  19  22
ATOM     22  O   UNL     1       4.791  -9.187  10.544  0.00  0.00    -0.507 OA
ATOM     23  H   UNL     1       5.711  -8.897  10.620  0.00  0.00    +0.292 HD
ENDBRANCH  19  22
ENDBRANCH   3  16
BRANCH   6  24
ATOM     24  C   UNL     1       1.745  -3.954   4.516  0.00  0.00    +0.103 C 
BRANCH  24  25
ATOM     25  C   UNL     1       0.877  -3.425   3.403  0.00  0.00    +0.165 C 
ATOM     26  O   UNL     1       0.409  -4.187   2.585  0.00  0.00    -0.292 OA
BRANCH  25  27
ATOM     27  C   UNL     1       0.600  -1.982   3.308  0.00  0.00    +0.018 A 
ATOM     28  C   UNL     1       1.137  -1.097   4.249  0.00  0.00    +0.011 A 
ATOM     29  C   UNL     1       0.866   0.247   4.148  0.00  0.00    +0.004 A 
ATOM     30  C   UNL     1       0.064   0.738   3.123  0.00  0.00    -0.044 A 
ATOM     31  C   UNL     1      -0.466  -0.128   2.190  0.00  0.00    -0.044 A 
ATOM     32  C   UNL     1      -0.203  -1.486   2.281  0.00  0.00    +0.015 A 
ATOM     33  C   UNL     1      -1.336   0.339   1.052  0.00  0.00    +0.035 C 
ATOM     34  C   UNL     1      -1.876   1.740   1.329  0.00  0.00    +0.005 C 
ATOM     35  C   UNL     1      -0.699   2.646   1.709  0.00  0.00    +0.005 C 
ATOM     36  C   UNL     1      -0.191   2.222   3.086  0.00  0.00    +0.035 C 
ENDBRANCH  25  27
ENDBRANCH  24  25
ENDBRANCH   6  24
TORSDOF 7
