REMARK  Name = ZINC06074493
REMARK  12 active torsions:
REMARK  status: ('A' for Active; 'I' for Inactive)
REMARK    1  A    between atoms: C_1  and  C_2
REMARK    2  A    between atoms: C_2  and  C_3
REMARK    3  A    between atoms: C_2  and  C_4
REMARK    4  A    between atoms: C_2  and  N_5
REMARK    5  A    between atoms: C_6  and  C_8
REMARK    6  A    between atoms: C_8  and  C_10
REMARK    7  A    between atoms: C_8  and  N_17
REMARK    8  A    between atoms: N_17  and  C_18
REMARK    9  A    between atoms: C_18  and  C_19
REMARK   10  A    between atoms: C_25  and  C_27
REMARK   11  A    between atoms: C_27  and  N_28
REMARK   12  A    between atoms: C_30  and  C_33
REMARK                            x       y       z     vdW  Elec       q    Type
REMARK                         _______ _______ _______ _____ _____    ______ ____
ROOT
ATOM      1  N   UNL     1      -0.898   5.711  -0.498  0.00  0.00    -0.282 N 
ATOM      2  C   UNL     1      -0.358   6.739  -1.183  0.00  0.00    +0.240 C 
ATOM      3  O   UNL     1       0.847   6.865  -1.236  0.00  0.00    -0.273 OA
ENDROOT
BRANCH   1   4
ATOM      4  C   UNL     1      -0.030   4.747   0.182  0.00  0.00    +0.192 C 
BRANCH   4   5
ATOM      5  C   UNL     1       0.086   3.498  -0.654  0.00  0.00    -0.018 A 
ATOM      6  C   UNL     1       1.328   2.939  -0.891  0.00  0.00    +0.009 A 
ATOM      7  C   UNL     1       1.435   1.794  -1.658  0.00  0.00    +0.038 A 
ATOM      8  C   UNL     1       0.299   1.207  -2.188  0.00  0.00    +0.123 A 
ATOM      9  C   UNL     1      -0.944   1.771  -1.954  0.00  0.00    +0.038 A 
ATOM     10  C   UNL     1      -1.049   2.913  -1.183  0.00  0.00    +0.009 A 
ATOM     11  F   UNL     1       0.403   0.088  -2.938  0.00  0.00    -0.205 F 
ENDBRANCH   4   5
BRANCH   4  13
ATOM     12  N   UNL     1       0.095   3.675   2.407  0.00  0.00    -0.309 N 
ATOM     13  C   UNL     1      -0.620   4.399   1.524  0.00  0.00    +0.238 C 
ATOM     14  O   UNL     1      -1.738   4.772   1.810  0.00  0.00    -0.273 OA
ATOM     15  H   UNL     1       0.963   3.323   2.156  0.00  0.00    +0.149 HD
BRANCH  12  17
ATOM     16  C   UNL     1      -1.742   2.624   3.634  0.00  0.00    +0.031 C 
ATOM     17  C   UNL     1      -0.439   3.418   3.747  0.00  0.00    +0.026 C 
ATOM     18  C   UNL     1       0.580   2.614   4.557  0.00  0.00    +0.031 C 
ATOM     19  C   UNL     1      -0.713   4.749   4.451  0.00  0.00    +0.031 C 
ENDBRANCH  12  17
ENDBRANCH   4  13
ENDBRANCH   1   4
BRANCH   1  20
ATOM     20  C   UNL     1      -2.354   5.558  -0.435  0.00  0.00    +0.140 C 
BRANCH  20  21
ATOM     21  C   UNL     1      -2.962   6.761   0.290  0.00  0.00    +0.136 C 
ATOM     22  C   UNL     1      -4.430   6.467   0.653  0.00  0.00    +0.035 C 
ATOM     23  C   UNL     1      -4.478   6.616   2.193  0.00  0.00    +0.031 C 
ATOM     24  C   UNL     1      -3.226   7.485   2.474  0.00  0.00    +0.160 C 
ATOM     25  O   UNL     1      -2.257   6.998   1.520  0.00  0.00    -0.375 OA
ENDBRANCH  20  21
ENDBRANCH   1  20
BRANCH   2  26
ATOM     26  C   UNL     1      -1.251   7.730  -1.883  0.00  0.00    +0.264 C 
BRANCH  26  27
ATOM     27  N   UNL     1      -0.429   8.743  -2.549  0.00  0.00    -0.154 N 
ATOM     28  N   UNL     1       0.014   8.667  -3.757  0.00  0.00    -0.130 NA
ATOM     29  C   UNL     1       0.710   9.759  -4.001  0.00  0.00    +0.205 A 
ATOM     30  N   UNL     1       0.668  10.499  -2.884  0.00  0.00    -0.108 NA
ATOM     31  N   UNL     1      -0.039   9.851  -2.022  0.00  0.00    -0.045 NA
BRANCH  29  32
ATOM     32  C   UNL     1       1.405  10.103  -5.267  0.00  0.00    +0.023 A 
ATOM     33  C   UNL     1       1.364   9.225  -6.348  0.00  0.00    +0.013 A 
ATOM     34  C   UNL     1       2.007   9.552  -7.524  0.00  0.00    +0.021 A 
ATOM     35  C   UNL     1       2.703  10.744  -7.628  0.00  0.00    +0.041 A 
ATOM     36  C   UNL     1       2.752  11.617  -6.554  0.00  0.00    +0.021 A 
ATOM     37  C   UNL     1       2.107  11.302  -5.376  0.00  0.00    +0.013 A 
ATOM     38 CL   UNL     1       3.515  11.147  -9.108  0.00  0.00    -0.084 Cl
ENDBRANCH  29  32
ENDBRANCH  26  27
ENDBRANCH   2  26
TORSDOF 9
