REMARK  Name = ZINC35268907
REMARK  15 active torsions:
REMARK  status: ('A' for Active; 'I' for Inactive)
REMARK    1  A    between atoms: C_1  and  C_2
REMARK    2  A    between atoms: C_2  and  O_4
REMARK    3  A    between atoms: O_4  and  C_5
REMARK    4  A    between atoms: C_9  and  C_45
REMARK    5  A    between atoms: C_14  and  O_41
REMARK    6  A    between atoms: C_21  and  O_37
REMARK    7  A    between atoms: C_23  and  C_36
REMARK    8  A    between atoms: C_28  and  C_30
REMARK    9  A    between atoms: C_30  and  C_31
REMARK   10  A    between atoms: C_31  and  C_32
REMARK   11  A    between atoms: C_32  and  C_33
REMARK   12  A    between atoms: O_37  and  C_38
REMARK   13  A    between atoms: C_38  and  C_40
REMARK   14  A    between atoms: O_41  and  C_42
REMARK   15  A    between atoms: C_42  and  C_44
REMARK                            x       y       z     vdW  Elec       q    Type
REMARK                         _______ _______ _______ _____ _____    ______ ____
ROOT
ATOM      1  C   UNL     1       0.137  -2.056  -1.047  0.00  0.00    +0.177 C 
ATOM      2  C   UNL     1       1.589  -2.541  -1.072  0.00  0.00    +0.045 C 
ATOM      3  C   UNL     1       1.609  -4.065  -0.971  0.00  0.00    +0.011 C 
ATOM      4  C   UNL     1       0.858  -4.692  -2.150  0.00  0.00    -0.026 C 
ATOM      5  C   UNL     1      -0.583  -4.177  -2.176  0.00  0.00    +0.002 C 
ATOM      6  C   UNL     1      -0.607  -2.649  -2.242  0.00  0.00    +0.049 C 
ATOM      7  C   UNL     1      -1.344  -4.726  -3.382  0.00  0.00    +0.049 C 
ATOM      8  C   UNL     1      -0.630  -4.361  -4.692  0.00  0.00    +0.180 C 
ATOM      9  C   UNL     1       0.781  -4.929  -4.643  0.00  0.00    +0.037 C 
ATOM     10  C   UNL     1       1.536  -4.316  -3.462  0.00  0.00    +0.006 C 
ATOM     11  C   UNL     1       3.000  -4.727  -3.526  0.00  0.00    +0.049 C 
ATOM     12  C   UNL     1       3.692  -4.046  -4.723  0.00  0.00    +0.183 C 
ATOM     13  C   UNL     1       2.712  -3.766  -5.828  0.00  0.00    +0.011 C 
ATOM     14  C   UNL     1       1.580  -4.806  -5.904  0.00  0.00    +0.006 C 
ATOM     15  C   UNL     1       0.836  -4.371  -7.175  0.00  0.00    +0.005 C 
ATOM     16  C   UNL     1       1.978  -3.933  -8.133  0.00  0.00    +0.004 C 
ATOM     17  C   UNL     1       3.262  -3.830  -7.267  0.00  0.00    -0.001 C 
ATOM     18  C   UNL     1       2.152  -2.339  -5.677  0.00  0.00    +0.015 C 
ATOM     19  C   UNL     1       0.861  -6.210  -1.950  0.00  0.00    +0.012 C 
ENDROOT
BRANCH   1  20
ATOM     20  O   UNL     1       0.111  -0.629  -1.127  0.00  0.00    -0.462 OA
BRANCH  20  22
ATOM     21  C   UNL     1       0.117   1.554   0.025  0.00  0.00    +0.136 C 
ATOM     22  C   UNL     1       0.141   0.047   0.032  0.00  0.00    +0.304 C 
ATOM     23  O   UNL     1       0.188  -0.552   1.080  0.00  0.00    -0.251 OA
ENDBRANCH  20  22
ENDBRANCH   1  20
BRANCH  17  24
ATOM     24  C   UNL     1       4.144  -5.051  -7.493  0.00  0.00    +0.005 C 
BRANCH  24  25
ATOM     25  C   UNL     1       4.753  -4.987  -8.895  0.00  0.00    +0.012 C 
BRANCH  25  26
ATOM     26  C   UNL     1       5.640  -6.213  -9.123  0.00  0.00    +0.125 C 
BRANCH  26  27
ATOM     27  C   UNL     1       6.240  -6.150 -10.504  0.00  0.00    +0.356 C 
ATOM     28  O   UNL     1       5.982  -5.212 -11.238  0.00  0.00    -0.246 OA
ATOM     29  O   UNL     1       6.983  -7.038 -10.887  0.00  0.00    -0.246 OA
ENDBRANCH  26  27
ENDBRANCH  25  26
ENDBRANCH  24  25
ENDBRANCH  17  24
BRANCH  12  30
ATOM     30  O   UNL     1       4.279  -2.810  -4.278  0.00  0.00    -0.461 OA
BRANCH  30  31
ATOM     31  C   UNL     1       5.543  -2.863  -3.830  0.00  0.00    +0.304 C 
ATOM     32  O   UNL     1       6.135  -3.916  -3.814  0.00  0.00    -0.251 OA
ATOM     33  C   UNL     1       6.225  -1.608  -3.348  0.00  0.00    +0.136 C 
ENDBRANCH  30  31
ENDBRANCH  12  30
BRANCH   8  34
ATOM     34  O   UNL     1      -1.357  -4.947  -5.777  0.00  0.00    -0.461 OA
BRANCH  34  35
ATOM     35  C   UNL     1      -2.334  -4.208  -6.327  0.00  0.00    +0.304 C 
ATOM     36  O   UNL     1      -2.565  -3.101  -5.902  0.00  0.00    -0.251 OA
ATOM     37  C   UNL     1      -3.142  -4.760  -7.473  0.00  0.00    +0.136 C 
ENDBRANCH  34  35
ENDBRANCH   8  34
TORSDOF 10
