REMARK  Name = ZINC34971692
REMARK  7 active torsions:
REMARK  status: ('A' for Active; 'I' for Inactive)
REMARK    1  A    between atoms: C_6  and  N_7
REMARK    2  A    between atoms: N_7  and  C_8
REMARK    3  A    between atoms: C_8  and  C_9
REMARK    4  A    between atoms: C_9  and  N_10
REMARK    5  A    between atoms: N_10  and  S_11
REMARK    6  A    between atoms: S_11  and  C_14
REMARK    7  A    between atoms: N_23  and  C_24
REMARK                            x       y       z     vdW  Elec       q    Type
REMARK                         _______ _______ _______ _____ _____    ______ ____
ROOT
ATOM      1  N   UNL     1      -1.288  -0.849  -0.429  0.00  0.00    -0.254 N 
ATOM      2  C   UNL     1      -2.422  -0.147  -0.235  0.00  0.00    +0.311 C 
ATOM      3  O   UNL     1      -2.451   1.042  -0.486  0.00  0.00    -0.252 OA
ATOM      4  N   UNL     1      -3.524  -0.764   0.236  0.00  0.00    -0.269 N 
ATOM      5  H   UNL     1      -3.467  -1.675   0.565  0.00  0.00    +0.156 HD
ENDROOT
BRANCH   4   6
ATOM      6  C   UNL     1      -4.750  -0.090   0.252  0.00  0.00    +0.036 A 
ATOM      7  C   UNL     1      -4.781   1.299   0.255  0.00  0.00    +0.025 A 
ATOM      8  C   UNL     1      -5.992   1.962   0.270  0.00  0.00    +0.023 A 
ATOM      9  C   UNL     1      -7.175   1.245   0.283  0.00  0.00    +0.059 A 
ATOM     10  C   UNL     1      -7.148  -0.139   0.281  0.00  0.00    +0.061 A 
ATOM     11  C   UNL     1      -5.938  -0.808   0.260  0.00  0.00    +0.044 A 
ATOM     12 CL   UNL     1      -8.635  -1.036   0.297  0.00  0.00    -0.082 Cl
ATOM     13 CL   UNL     1      -8.696   2.083   0.303  0.00  0.00    -0.082 Cl
ENDBRANCH   4   6
BRANCH   1  19
ATOM     14  C   UNL     1       0.456   0.736   0.104  0.00  0.00    +0.026 A 
ATOM     15  C   UNL     1       1.624   1.389  -0.236  0.00  0.00    +0.040 A 
ATOM     16  C   UNL     1       2.238   1.126  -1.449  0.00  0.00    +0.124 A 
ATOM     17  C   UNL     1       1.683   0.208  -2.324  0.00  0.00    +0.040 A 
ATOM     18  C   UNL     1       0.514  -0.448  -1.988  0.00  0.00    +0.026 A 
ATOM     19  C   UNL     1      -0.103  -0.185  -0.772  0.00  0.00    +0.038 A 
ATOM     20  F   UNL     1       3.381   1.766  -1.780  0.00  0.00    -0.205 F 
ENDBRANCH   1  19
BRANCH   1  21
ATOM     21  C   UNL     1      -1.294  -2.307  -0.281  0.00  0.00    +0.132 C 
BRANCH  21  22
ATOM     22  C   UNL     1      -0.970  -2.674   1.168  0.00  0.00    +0.125 C 
BRANCH  22  23
ATOM     23  N   UNL     1      -0.977  -4.131   1.316  0.00  0.00    -0.188 NA
ATOM     24  H   UNL     1      -1.374  -4.687   0.627  0.00  0.00    +0.148 HD
BRANCH  23  25
ATOM     25  S   UNL     1      -0.306  -4.830   2.659  0.00  0.00    +0.058 S 
ATOM     26  O   UNL     1      -0.490  -6.232   2.522  0.00  0.00    -0.153 OA
ATOM     27  O   UNL     1       0.978  -4.243   2.824  0.00  0.00    -0.153 OA
BRANCH  25  28
ATOM     28  C   UNL     1      -1.271  -4.328   4.045  0.00  0.00    +0.105 A 
ATOM     29  C   UNL     1      -0.947  -3.172   4.730  0.00  0.00    +0.031 A 
ATOM     30  C   UNL     1      -1.703  -2.777   5.817  0.00  0.00    +0.040 A 
ATOM     31  C   UNL     1      -2.786  -3.539   6.220  0.00  0.00    +0.124 A 
ATOM     32  C   UNL     1      -3.110  -4.697   5.533  0.00  0.00    +0.040 A 
ATOM     33  C   UNL     1      -2.355  -5.088   4.443  0.00  0.00    +0.031 A 
ATOM     34  F   UNL     1      -3.526  -3.154   7.283  0.00  0.00    -0.205 F 
ENDBRANCH  25  28
ENDBRANCH  23  25
ENDBRANCH  22  23
ENDBRANCH  21  22
ENDBRANCH   1  21
TORSDOF 7
