REMARK  Name = ZINC40118746
REMARK  6 active torsions:
REMARK  status: ('A' for Active; 'I' for Inactive)
REMARK    1  A    between atoms: C_4  and  C_7
REMARK    2  A    between atoms: C_7  and  C_8
REMARK    3  A    between atoms: C_10  and  C_13
REMARK    4  A    between atoms: C_13  and  N_14
REMARK    5  A    between atoms: N_17  and  C_20
REMARK    6  A    between atoms: C_23  and  O_26
REMARK                            x       y       z     vdW  Elec       q    Type
REMARK                         _______ _______ _______ _____ _____    ______ ____
ROOT
ATOM      1  N   UNL     1       5.079   0.815   5.231  0.00  0.00    -0.291 NA
ATOM      2  C   UNL     1       4.098  -0.017   5.941  0.00  0.00    +0.104 C 
ATOM      3  C   UNL     1       3.086   0.888   6.654  0.00  0.00    +0.120 C 
ATOM      4  N   UNL     1       3.824   1.838   7.500  0.00  0.00    -0.327 N 
ATOM      5  C   UNL     1       4.917   2.610   6.889  0.00  0.00    +0.120 C 
ATOM      6  C   UNL     1       5.856   1.638   6.168  0.00  0.00    +0.104 C 
ENDROOT
BRANCH   4   7
ATOM      7  C   UNL     1       3.495   2.003   8.850  0.00  0.00    +0.030 A 
ATOM      8  C   UNL     1       4.274   2.819   9.660  0.00  0.00    +0.027 A 
ATOM      9  C   UNL     1       3.948   2.982  10.992  0.00  0.00    +0.047 A 
ATOM     10  C   UNL     1       2.844   2.330  11.521  0.00  0.00    +0.117 A 
ATOM     11  C   UNL     1       2.066   1.514  10.713  0.00  0.00    +0.047 A 
ATOM     12  C   UNL     1       2.387   1.355   9.379  0.00  0.00    +0.027 A 
BRANCH  10  13
ATOM     13  O   UNL     1       2.524   2.491  12.833  0.00  0.00    -0.507 OA
ATOM     14  H   UNL     1       1.923   3.229  13.004  0.00  0.00    +0.292 HD
ENDBRANCH  10  13
ENDBRANCH   4   7
BRANCH   1  15
ATOM     15  C   UNL     1       5.962  -0.009   4.396  0.00  0.00    +0.183 C 
BRANCH  15  18
ATOM     16  C   UNL     1       4.189  -0.973   1.385  0.00  0.00    +0.176 A 
ATOM     17  N   UNL     1       4.941  -0.140   2.113  0.00  0.00    -0.195 NA
ATOM     18  C   UNL     1       5.158  -0.649   3.294  0.00  0.00    +0.241 A 
ATOM     19  O   UNL     1       4.544  -1.837   3.357  0.00  0.00    -0.337 OA
ATOM     20  N   UNL     1       3.912  -2.025   2.100  0.00  0.00    -0.061 NA
BRANCH  16  21
ATOM     21  C   UNL     1       3.731  -0.730  -0.030  0.00  0.00    +0.114 C 
BRANCH  21  25
ATOM     22  C   UNL     1      -0.022   1.311   0.017  0.00  0.00    +0.000 A 
ATOM     23  C   UNL     1       1.157   2.033   0.005  0.00  0.00    +0.000 A 
ATOM     24  C   UNL     1       2.372   1.372  -0.010  0.00  0.00    +0.004 A 
ATOM     25  C   UNL     1       2.407  -0.010  -0.013  0.00  0.00    -0.040 A 
ATOM     26  C   UNL     1       1.228  -0.731  -0.001  0.00  0.00    +0.004 A 
ATOM     27  C   UNL     1       0.013  -0.071   0.013  0.00  0.00    +0.000 A 
ENDBRANCH  21  25
ENDBRANCH  16  21
ENDBRANCH  15  18
ENDBRANCH   1  15
TORSDOF 6
