REMARK  Name = ZINC10212355
REMARK  7 active torsions:
REMARK  status: ('A' for Active; 'I' for Inactive)
REMARK    1  A    between atoms: C_1  and  C_2
REMARK    2  A    between atoms: C_5  and  N_9
REMARK    3  A    between atoms: C_7  and  C_8
REMARK    4  A    between atoms: C_13  and  S_15
REMARK    5  A    between atoms: S_15  and  C_16
REMARK    6  A    between atoms: C_16  and  C_17
REMARK    7  A    between atoms: N_19  and  C_20
REMARK                            x       y       z     vdW  Elec       q    Type
REMARK                         _______ _______ _______ _____ _____    ______ ____
ROOT
ATOM      1  N   UNL     1       4.545 -10.579  -0.888  0.00  0.00    -0.292 N 
ATOM      2  C   UNL     1       4.207  -9.236  -0.761  0.00  0.00    +0.187 A 
ATOM      3  N   UNL     1       3.016  -8.681  -0.649  0.00  0.00    -0.125 NA
ATOM      4  N   UNL     1       2.905  -7.315  -0.527  0.00  0.00    -0.133 NA
ATOM      5  C   UNL     1       3.991  -6.566  -0.535  0.00  0.00    +0.160 A 
ATOM      6  S   UNL     1       5.270  -7.801  -0.706  0.00  0.00    -0.024 S 
ATOM      7  H   UNL     1       5.478 -10.846  -0.887  0.00  0.00    +0.154 HD
ENDROOT
BRANCH   1  12
ATOM      8  C   UNL     1       0.473 -14.491  -1.414  0.00  0.00    +0.044 C 
ATOM      9  C   UNL     1       1.555 -13.451  -1.274  0.00  0.00    -0.047 A 
ATOM     10  C   UNL     1       1.310 -12.145  -1.657  0.00  0.00    +0.005 A 
ATOM     11  C   UNL     1       2.300 -11.190  -1.530  0.00  0.00    +0.023 A 
ATOM     12  C   UNL     1       3.542 -11.542  -1.018  0.00  0.00    +0.033 A 
ATOM     13  C   UNL     1       3.786 -12.857  -0.639  0.00  0.00    +0.027 A 
ATOM     14  C   UNL     1       2.791 -13.806  -0.764  0.00  0.00    -0.046 A 
ATOM     15  C   UNL     1       3.053 -15.230  -0.348  0.00  0.00    +0.044 C 
ENDBRANCH   1  12
BRANCH   5  16
ATOM     16  S   UNL     1       4.141  -4.815  -0.403  0.00  0.00    -0.088 S 
BRANCH  16  17
ATOM     17  C   UNL     1       2.427  -4.238  -0.260  0.00  0.00    +0.172 C 
BRANCH  17  18
ATOM     18  C   UNL     1       2.411  -2.736  -0.139  0.00  0.00    +0.228 C 
ATOM     19  O   UNL     1       3.454  -2.116  -0.148  0.00  0.00    -0.275 OA
ATOM     20  N   UNL     1       1.239  -2.082  -0.020  0.00  0.00    -0.282 N 
ATOM     21  H   UNL     1       0.412  -2.581   0.069  0.00  0.00    +0.155 HD
BRANCH  20  22
ATOM     22  C   UNL     1       1.215  -0.680  -0.025  0.00  0.00    +0.072 A 
ATOM     23  C   UNL     1       2.235   0.030  -0.641  0.00  0.00    +0.029 A 
ATOM     24  C   UNL     1       2.211   1.411  -0.646  0.00  0.00    +0.043 A 
ATOM     25  C   UNL     1       1.169   2.090  -0.036  0.00  0.00    +0.161 A 
ATOM     26  C   UNL     1       0.148   1.384   0.581  0.00  0.00    +0.195 A 
ATOM     27  C   UNL     1       0.169  -0.000   0.588  0.00  0.00    +0.182 A 
ATOM     28  F   UNL     1      -0.826  -0.689   1.189  0.00  0.00    -0.200 F 
ATOM     29  F   UNL     1      -0.871   2.047   1.171  0.00  0.00    -0.199 F 
ATOM     30  F   UNL     1       1.148   3.440  -0.042  0.00  0.00    -0.202 F 
ENDBRANCH  20  22
ENDBRANCH  17  18
ENDBRANCH  16  17
ENDBRANCH   5  16
TORSDOF 5
