REMARK  Name = ZINC39689239
REMARK  6 active torsions:
REMARK  status: ('A' for Active; 'I' for Inactive)
REMARK    1  A    between atoms: C_5  and  C_7
REMARK    2  A    between atoms: C_10  and  C_12
REMARK    3  A    between atoms: C_16  and  C_25
REMARK    4  A    between atoms: N_27  and  C_28
REMARK    5  A    between atoms: C_28  and  C_29
REMARK    6  A    between atoms: N_32  and  C_35
REMARK                            x       y       z     vdW  Elec       q    Type
REMARK                         _______ _______ _______ _____ _____    ______ ____
ROOT
ATOM      1  C   UNL     1       2.204  -5.075  -1.305  0.00  0.00    +0.282 C 
ATOM      2  O   UNL     1       1.843  -6.168  -0.909  0.00  0.00    -0.267 OA
ATOM      3  N   UNL     1       3.094  -4.984  -2.314  0.00  0.00    -0.294 N 
ATOM      4  C   UNL     1       3.653  -3.754  -2.923  0.00  0.00    +0.121 C 
ATOM      5  C   UNL     1       5.138  -4.089  -3.184  0.00  0.00    +0.100 C 
ATOM      6  C   UNL     1       5.184  -5.623  -3.278  0.00  0.00    -0.004 C 
ATOM      7  C   UNL     1       3.738  -6.091  -3.060  0.00  0.00    +0.115 C 
ATOM      8  C   UNL     1       6.086  -6.192  -2.187  0.00  0.00    -0.010 C 
ATOM      9  C   UNL     1       6.161  -7.715  -2.336  0.00  0.00    -0.082 C 
ATOM     10  N   UNL     1       6.691  -8.053  -3.663  0.00  0.00    +0.379 N 
ATOM     11  C   UNL     1       5.770  -7.582  -4.704  0.00  0.00    -0.082 C 
ATOM     12  C   UNL     1       5.678  -6.054  -4.655  0.00  0.00    -0.010 C 
ATOM     13  H   UNL     1       7.590  -7.612  -3.787  0.00  0.00    -0.086 HD
ATOM     14  H   UNL     1       6.797  -9.053  -3.736  0.00  0.00    -0.086 HD
ENDROOT
BRANCH   1  18
ATOM     15  C   UNL     1       1.308  -1.737  -0.244  0.00  0.00    +0.139 A 
ATOM     16  C   UNL     1       0.536  -2.457   0.622  0.00  0.00    +0.051 A 
ATOM     17  C   UNL     1       0.762  -3.810   0.348  0.00  0.00    +0.055 A 
ATOM     18  C   UNL     1       1.672  -3.859  -0.685  0.00  0.00    +0.190 A 
ATOM     19  O   UNL     1       1.984  -2.592  -1.030  0.00  0.00    -0.450 OA
BRANCH  15  24
ATOM     20  C   UNL     1       0.289   1.871  -0.430  0.00  0.00    +0.001 A 
ATOM     21  C   UNL     1       1.522   2.501  -0.437  0.00  0.00    +0.003 A 
ATOM     22  C   UNL     1       2.686   1.756  -0.381  0.00  0.00    +0.039 A 
ATOM     23  C   UNL     1       2.626   0.377  -0.318  0.00  0.00    +0.134 A 
ATOM     24  C   UNL     1       1.383  -0.264  -0.311  0.00  0.00    +0.052 A 
ATOM     25  C   UNL     1       0.212   0.496  -0.367  0.00  0.00    +0.014 A 
ATOM     26  F   UNL     1       3.763  -0.350  -0.264  0.00  0.00    -0.205 F 
ENDBRANCH  15  24
ENDBRANCH   1  18
BRANCH   5  27
ATOM     27  C   UNL     1       5.994  -3.604  -2.042  0.00  0.00    +0.218 C 
ATOM     28  O   UNL     1       5.537  -3.556  -0.920  0.00  0.00    -0.275 OA
ATOM     29  N   UNL     1       7.268  -3.225  -2.268  0.00  0.00    -0.315 N 
ATOM     30  H   UNL     1       7.633  -3.264  -3.166  0.00  0.00    +0.149 HD
BRANCH  29  31
ATOM     31  C   UNL     1       8.100  -2.755  -1.158  0.00  0.00    +0.107 C 
BRANCH  31  32
ATOM     32  C   UNL     1       9.490  -2.390  -1.682  0.00  0.00    +0.003 C 
ATOM     33  C   UNL     1      10.191  -3.651  -2.195  0.00  0.00    -0.014 C 
ATOM     34  C   UNL     1      11.610  -3.292  -2.643  0.00  0.00    -0.078 C 
ATOM     35  N   UNL     1      12.361  -2.740  -1.509  0.00  0.00    +0.382 N 
ATOM     36  C   UNL     1      11.734  -1.492  -1.058  0.00  0.00    -0.078 C 
ATOM     37  C   UNL     1      10.321  -1.781  -0.548  0.00  0.00    -0.014 C 
ATOM     38  H   UNL     1      12.363  -3.407  -0.752  0.00  0.00    -0.081 HD
BRANCH  35  39
ATOM     39  C   UNL     1      13.744  -2.470  -1.924  0.00  0.00    -0.069 C 
ATOM     40  C   UNL     1      14.593  -2.010  -0.713  0.00  0.00    -0.015 C 
ATOM     41  C   UNL     1      16.036  -2.361  -1.155  0.00  0.00    -0.002 C 
ATOM     42  C   UNL     1      15.886  -3.700  -1.906  0.00  0.00    -0.002 C 
ATOM     43  C   UNL     1      14.429  -3.770  -2.395  0.00  0.00    -0.015 C 
ENDBRANCH  35  39
ENDBRANCH  31  32
ENDBRANCH  29  31
ENDBRANCH   5  27
TORSDOF 6
