REMARK  Name = ZINC06442520
REMARK  9 active torsions:
REMARK  status: ('A' for Active; 'I' for Inactive)
REMARK    1  A    between atoms: C_1  and  C_2
REMARK    2  A    between atoms: C_7  and  C_15
REMARK    3  A    between atoms: C_13  and  C_14
REMARK    4  A    between atoms: C_15  and  C_17
REMARK    5  A    between atoms: C_15  and  N_74
REMARK    6  A    between atoms: N_21  and  C_22
REMARK    7  A    between atoms: C_22  and  C_23
REMARK    8  A    between atoms: C_31  and  C_34
REMARK    9  A    between atoms: C_34  and  C_35
REMARK                            x       y       z     vdW  Elec       q    Type
REMARK                         _______ _______ _______ _____ _____    ______ ____
ROOT
ATOM      1  C   UNL     1       2.507   3.775  -0.004  0.00  0.00    +0.039 C 
ENDROOT
BRANCH   1   8
ATOM      2  C   UNL     1      -4.915   0.853   0.053  0.00  0.00    +0.044 C 
ATOM      3  C   UNL     1      -3.615   1.615   0.045  0.00  0.00    -0.046 A 
ATOM      4  C   UNL     1      -3.632   3.003   0.051  0.00  0.00    +0.004 A 
ATOM      5  C   UNL     1      -2.465   3.713   0.044  0.00  0.00    +0.010 A 
ATOM      6  C   UNL     1      -1.242   3.036   0.029  0.00  0.00    -0.001 A 
ATOM      7  C   UNL     1       0.028   3.765   0.021  0.00  0.00    +0.017 A 
ATOM      8  C   UNL     1       1.183   3.055   0.006  0.00  0.00    +0.011 A 
ATOM      9  C   UNL     1       1.150   1.644  -0.000  0.00  0.00    +0.251 A 
ATOM     10  O   UNL     1       2.200   1.025  -0.013  0.00  0.00    -0.268 OA
ATOM     11  N   UNL     1      -0.011   0.966   0.007  0.00  0.00    -0.322 N 
ATOM     12  H   UNL     1       0.002  -0.004   0.002  0.00  0.00    +0.169 HD
ATOM     13  C   UNL     1      -1.220   1.629   0.017  0.00  0.00    +0.052 A 
ATOM     14  C   UNL     1      -2.421   0.927   0.031  0.00  0.00    -0.024 A 
ATOM     15  C   UNL     1      -2.417  -0.580   0.025  0.00  0.00    +0.046 C 
ENDBRANCH   1   8
BRANCH   1  21
ATOM     16  C   UNL     1       2.619   3.473   2.396  0.00  0.00    -0.077 C 
ATOM     17  C   UNL     1       3.439   2.843   3.524  0.00  0.00    -0.015 C 
ATOM     18  C   UNL     1       4.812   3.519   3.589  0.00  0.00    -0.010 C 
ATOM     19  C   UNL     1       5.509   3.372   2.233  0.00  0.00    -0.015 C 
ATOM     20  C   UNL     1       4.628   3.987   1.143  0.00  0.00    -0.077 C 
ATOM     21  N   UNL     1       3.332   3.276   1.116  0.00  0.00    +0.389 N 
ATOM     22  H   UNL     1       3.505   2.273   0.982  0.00  0.00    -0.080 HD
BRANCH  18  23
ATOM     23  C   UNL     1       5.660   2.854   4.675  0.00  0.00    +0.038 C 
BRANCH  23  24
ATOM     24  C   UNL     1       5.035   3.104   6.023  0.00  0.00    -0.047 A 
ATOM     25  C   UNL     1       5.397   4.219   6.756  0.00  0.00    +0.003 A 
ATOM     26  C   UNL     1       4.821   4.452   7.991  0.00  0.00    +0.000 A 
ATOM     27  C   UNL     1       3.891   3.563   8.498  0.00  0.00    +0.000 A 
ATOM     28  C   UNL     1       3.533   2.446   7.767  0.00  0.00    +0.000 A 
ATOM     29  C   UNL     1       4.106   2.216   6.530  0.00  0.00    +0.003 A 
ENDBRANCH  23  24
ENDBRANCH  18  23
ENDBRANCH   1  21
BRANCH   1  30
ATOM     30  C   UNL     1       3.222   3.494  -1.300  0.00  0.00    +0.143 A 
ATOM     31  N   UNL     1       3.834   2.383  -1.631  0.00  0.00    -0.115 NA
ATOM     32  N   UNL     1       4.317   2.533  -2.816  0.00  0.00    -0.023 NA
ATOM     33  N   UNL     1       4.036   3.712  -3.246  0.00  0.00    -0.044 NA
ATOM     34  N   UNL     1       3.361   4.336  -2.340  0.00  0.00    -0.228 N 
BRANCH  34  35
ATOM     35  C   UNL     1       2.844   5.704  -2.428  0.00  0.00    +0.178 C 
BRANCH  35  36
ATOM     36  C   UNL     1       3.890   6.681  -1.889  0.00  0.00    +0.140 C 
ATOM     37  C   UNL     1       3.384   8.139  -2.022  0.00  0.00    +0.035 C 
ATOM     38  C   UNL     1       4.204   8.839  -0.905  0.00  0.00    +0.031 C 
ATOM     39  C   UNL     1       4.303   7.736   0.170  0.00  0.00    +0.160 C 
ATOM     40  O   UNL     1       4.082   6.478  -0.479  0.00  0.00    -0.375 OA
ENDBRANCH  35  36
ENDBRANCH  34  35
ENDBRANCH   1  30
TORSDOF 7
