REMARK  Name = ZINC32617766
REMARK  6 active torsions:
REMARK  status: ('A' for Active; 'I' for Inactive)
REMARK    1  A    between atoms: C_4  and  C_7
REMARK    2  A    between atoms: N_9  and  C_10
REMARK    3  A    between atoms: C_10  and  C_24
REMARK    4  A    between atoms: C_11  and  C_12
REMARK    5  A    between atoms: C_15  and  C_17
REMARK    6  A    between atoms: N_26  and  C_27
REMARK                            x       y       z     vdW  Elec       q    Type
REMARK                         _______ _______ _______ _____ _____    ______ ____
ROOT
ATOM      1  C   UNL     1       3.721   1.345   0.378  0.00  0.00    +0.100 C 
ATOM      2  C   UNL     1       4.587   0.350   0.717  0.00  0.00    +0.074 C 
ENDROOT
BRANCH   2   3
ATOM      3  C   UNL     1       5.981   0.556   0.600  0.00  0.00    +0.131 A 
ATOM      4  C   UNL     1       6.962  -0.393   0.813  0.00  0.00    +0.050 A 
ATOM      5  C   UNL     1       8.189   0.238   0.589  0.00  0.00    +0.050 A 
ATOM      6  C   UNL     1       7.919   1.534   0.251  0.00  0.00    +0.136 A 
ATOM      7  O   UNL     1       6.585   1.712   0.256  0.00  0.00    -0.455 OA
BRANCH   6   8
ATOM      8  C   UNL     1       8.924   2.566  -0.072  0.00  0.00    +0.017 A 
ATOM      9  C   UNL     1      10.280   2.234  -0.117  0.00  0.00    +0.012 A 
ATOM     10  C   UNL     1      11.213   3.203  -0.423  0.00  0.00    +0.016 A 
ATOM     11  C   UNL     1      10.809   4.503  -0.676  0.00  0.00    +0.018 A 
ATOM     12  C   UNL     1       9.466   4.839  -0.627  0.00  0.00    +0.016 A 
ATOM     13  C   UNL     1       8.523   3.880  -0.327  0.00  0.00    +0.012 A 
ATOM     14 BR   UNL     1      12.096   5.825  -1.088  0.00  0.00    -0.050 Br
ENDBRANCH   6   8
ENDBRANCH   2   3
BRANCH   1  17
ATOM     15  C   UNL     1       3.833   2.881  -1.435  0.00  0.00    +0.248 C 
ATOM     16  O   UNL     1       3.006   2.220  -2.033  0.00  0.00    -0.270 OA
ATOM     17  N   UNL     1       4.204   2.530  -0.188  0.00  0.00    -0.277 N 
ATOM     18  H   UNL     1       4.887   3.174   0.385  0.00  0.00    +0.155 HD
BRANCH  15  22
ATOM     19  C   UNL     1       5.552   6.299  -3.279  0.00  0.00    +0.000 A 
ATOM     20  C   UNL     1       4.706   5.478  -4.003  0.00  0.00    +0.001 A 
ATOM     21  C   UNL     1       4.145   4.366  -3.411  0.00  0.00    +0.013 A 
ATOM     22  C   UNL     1       4.431   4.071  -2.077  0.00  0.00    +0.037 A 
ATOM     23  C   UNL     1       5.281   4.906  -1.350  0.00  0.00    +0.013 A 
ATOM     24  C   UNL     1       5.841   6.012  -1.957  0.00  0.00    +0.001 A 
ENDBRANCH  15  22
ENDBRANCH   1  17
BRANCH   1  25
ATOM     25  C   UNL     1       2.284   1.174   0.605  0.00  0.00    +0.259 C 
ATOM     26  O   UNL     1       1.853   0.107   1.003  0.00  0.00    -0.269 OA
ATOM     27  N   UNL     1       1.439   2.198   0.374  0.00  0.00    -0.307 N 
ATOM     28  H   UNL     1       1.834   3.182   0.079  0.00  0.00    +0.149 HD
BRANCH  27  29
ATOM     29  C   UNL     1      -0.006   2.002   0.514  0.00  0.00    +0.073 C 
ATOM     30  C   UNL     1      -0.406   2.194   1.978  0.00  0.00    +0.022 C 
ATOM     31  C   UNL     1      -1.915   1.989   2.125  0.00  0.00    +0.002 C 
ATOM     32  C   UNL     1      -2.656   3.007   1.256  0.00  0.00    +0.000 C 
ATOM     33  C   UNL     1      -2.255   2.814  -0.208  0.00  0.00    +0.002 C 
ATOM     34  C   UNL     1      -0.746   3.020  -0.355  0.00  0.00    +0.022 C 
ENDBRANCH  27  29
ENDBRANCH   1  25
TORSDOF 6
