REMARK  Name = ZINC40116364
REMARK  7 active torsions:
REMARK  status: ('A' for Active; 'I' for Inactive)
REMARK    1  A    between atoms: C_1  and  C_2
REMARK    2  A    between atoms: C_2  and  C_21
REMARK    3  A    between atoms: N_5  and  C_9
REMARK    4  A    between atoms: C_9  and  C_10
REMARK    5  A    between atoms: C_10  and  O_11
REMARK    6  A    between atoms: O_11  and  C_12
REMARK    7  A    between atoms: C_16  and  N_18
REMARK                            x       y       z     vdW  Elec       q    Type
REMARK                         _______ _______ _______ _____ _____    ______ ____
ROOT
ATOM      1  C   UNL     1      -0.024   1.521  -0.112  0.00  0.00    +0.047 C 
ATOM      2  C   UNL     1       0.002  -0.004   0.002  0.00  0.00    +0.136 C 
ATOM      3  C   UNL     1       0.750  -0.614  -1.167  0.00  0.00    +0.251 C 
ATOM      4  O   UNL     1       0.464  -0.532  -2.342  0.00  0.00    -0.272 OA
ATOM      5  N   UNL     1       1.799  -1.266  -0.628  0.00  0.00    -0.221 N 
ATOM      6  C   UNL     1       1.818  -1.154   0.705  0.00  0.00    +0.310 C 
ATOM      7  O   UNL     1       2.668  -1.657   1.413  0.00  0.00    -0.252 OA
ATOM      8  N   UNL     1       0.791  -0.422   1.174  0.00  0.00    -0.281 N 
ATOM      9  H   UNL     1       0.606  -0.211   2.102  0.00  0.00    +0.152 HD
ENDROOT
BRANCH   2  10
ATOM     10  C   UNL     1      -1.399  -0.552   0.083  0.00  0.00    -0.008 A 
ATOM     11  C   UNL     1      -1.792  -1.269   1.172  0.00  0.00    +0.007 A 
ATOM     12  C   UNL     1      -3.083  -1.784   1.264  0.00  0.00    +0.001 A 
ATOM     13  C   UNL     1      -3.990  -1.585   0.269  0.00  0.00    +0.008 A 
ATOM     14  C   UNL     1      -3.622  -0.850  -0.870  0.00  0.00    -0.018 A 
ATOM     15  C   UNL     1      -2.310  -0.321  -0.962  0.00  0.00    -0.012 A 
ATOM     16  C   UNL     1      -1.943   0.420  -2.099  0.00  0.00    +0.009 A 
ATOM     17  C   UNL     1      -2.852   0.624  -3.091  0.00  0.00    +0.001 A 
ATOM     18  C   UNL     1      -4.144   0.109  -2.998  0.00  0.00    +0.001 A 
ATOM     19  C   UNL     1      -4.530  -0.624  -1.919  0.00  0.00    +0.008 A 
ENDBRANCH   2  10
BRANCH   5  20
ATOM     20  C   UNL     1       2.796  -2.006  -1.406  0.00  0.00    +0.159 C 
BRANCH  20  21
ATOM     21  C   UNL     1       3.943  -1.069  -1.790  0.00  0.00    +0.248 C 
BRANCH  21  22
ATOM     22  O   UNL     1       4.625  -0.644  -0.608  0.00  0.00    -0.490 OA
BRANCH  22  23
ATOM     23  C   UNL     1       5.678   0.199  -0.774  0.00  0.00    +0.123 A 
ATOM     24  C   UNL     1       6.043   0.613  -2.047  0.00  0.00    +0.046 A 
ATOM     25  C   UNL     1       7.114   1.470  -2.213  0.00  0.00    +0.006 A 
ATOM     26  C   UNL     1       7.821   1.916  -1.111  0.00  0.00    +0.033 A 
ATOM     27  C   UNL     1       7.460   1.505   0.158  0.00  0.00    +0.130 A 
ATOM     28  C   UNL     1       6.386   0.652   0.330  0.00  0.00    +0.078 A 
BRANCH  27  29
ATOM     29  N   UNL     1       8.219   1.983   1.335  0.00  0.00    +0.057 N 
ATOM     30  O   UNL     1       9.155   2.733   1.186  0.00  0.00    -0.126 OA
ATOM     31  O   UNL     1       7.903   1.624   2.445  0.00  0.00    -0.126 OA
ENDBRANCH  27  29
ENDBRANCH  22  23
ENDBRANCH  21  22
ENDBRANCH  20  21
ENDBRANCH   5  20
TORSDOF 6
