REMARK  Name = ZINC39945646
REMARK  7 active torsions:
REMARK  status: ('A' for Active; 'I' for Inactive)
REMARK    1  A    between atoms: C_4  and  C_7
REMARK    2  A    between atoms: C_9  and  C_17
REMARK    3  A    between atoms: N_18  and  N_19
REMARK    4  A    between atoms: C_20  and  C_22
REMARK    5  A    between atoms: C_25  and  N_28
REMARK    6  A    between atoms: N_28  and  S_29
REMARK    7  A    between atoms: S_29  and  C_32
REMARK                            x       y       z     vdW  Elec       q    Type
REMARK                         _______ _______ _______ _____ _____    ______ ____
ROOT
ATOM      1  N   UNL     1       4.630  -0.191  -4.883  0.00  0.00    -0.203 N 
ATOM      2  C   UNL     1       4.902  -0.777  -6.065  0.00  0.00    +0.263 C 
ATOM      3  O   UNL     1       4.998  -1.987  -6.136  0.00  0.00    -0.268 OA
ATOM      4  H   UNL     1       4.554   0.775  -4.826  0.00  0.00    +0.178 HD
ENDROOT
BRANCH   2   5
ATOM      5  C   UNL     1       5.085   0.048  -7.273  0.00  0.00    +0.038 A 
ATOM      6  C   UNL     1       4.981   1.441  -7.192  0.00  0.00    +0.015 A 
ATOM      7  C   UNL     1       5.152   2.206  -8.317  0.00  0.00    +0.027 A 
ATOM      8  C   UNL     1       5.427   1.598  -9.539  0.00  0.00    +0.074 A 
ATOM      9  C   UNL     1       5.530   0.212  -9.623  0.00  0.00    +0.027 A 
ATOM     10  C   UNL     1       5.367  -0.559  -8.501  0.00  0.00    +0.015 A 
BRANCH   8  11
ATOM     11  N   UNL     1       5.599   2.377 -10.678  0.00  0.00    -0.097 NA
BRANCH  11  12
ATOM     12  S   UNL     1       5.927   1.655 -12.132  0.00  0.00    +0.098 S 
ATOM     13  O   UNL     1       7.212   1.061 -12.010  0.00  0.00    -0.148 OA
ATOM     14  O   UNL     1       4.771   0.907 -12.484  0.00  0.00    -0.148 OA
BRANCH  12  15
ATOM     15  C   UNL     1       6.078   2.940 -13.328  0.00  0.00    +0.148 A 
ATOM     16  C   UNL     1       7.184   3.624 -13.712  0.00  0.00    +0.037 A 
ATOM     17  C   UNL     1       7.064   4.602 -14.681  0.00  0.00    +0.010 A 
ATOM     18  C   UNL     1       5.845   4.848 -15.220  0.00  0.00    +0.047 A 
ATOM     19  S   UNL     1       4.815   3.674 -14.356  0.00  0.00    -0.077 S 
ENDBRANCH  12  15
ENDBRANCH  11  12
ENDBRANCH   8  11
ENDBRANCH   2   5
BRANCH   1  21
ATOM     20  C   UNL     1       4.192  -0.405  -2.586  0.00  0.00    +0.137 C 
ATOM     21  N   UNL     1       4.457  -0.975  -3.735  0.00  0.00    -0.188 NA
BRANCH  20  23
ATOM     22  C   UNL     1       3.711  -0.707  -0.038  0.00  0.00    +0.142 C 
ATOM     23  C   UNL     1       4.019  -1.190  -1.438  0.00  0.00    +0.008 C 
ATOM     24  C   UNL     1       4.095  -2.578  -1.347  0.00  0.00    +0.005 A 
ATOM     25  C   UNL     1       4.351  -3.585  -2.304  0.00  0.00    +0.010 A 
ATOM     26  C   UNL     1       4.364  -4.887  -1.924  0.00  0.00    +0.001 A 
ATOM     27  C   UNL     1       4.128  -5.266  -0.600  0.00  0.00    +0.002 A 
ATOM     28  C   UNL     1       3.876  -4.356   0.371  0.00  0.00    +0.026 A 
ATOM     29  C   UNL     1       3.846  -2.972   0.051  0.00  0.00    +0.044 A 
ATOM     30  N   UNL     1       3.628  -1.909   0.798  0.00  0.00    -0.373 N 
ATOM     31  H   UNL     1       3.442  -1.919   1.750  0.00  0.00    +0.161 HD
BRANCH  22  35
ATOM     32  C   UNL     1      -0.017   1.378   0.010  0.00  0.00    +0.000 A 
ATOM     33  C   UNL     1       1.171   2.086   0.002  0.00  0.00    +0.000 A 
ATOM     34  C   UNL     1       2.377   1.411  -0.013  0.00  0.00    +0.006 A 
ATOM     35  C   UNL     1       2.396   0.029  -0.020  0.00  0.00    -0.021 A 
ATOM     36  C   UNL     1       1.208  -0.679  -0.012  0.00  0.00    +0.006 A 
ATOM     37  C   UNL     1       0.002  -0.004   0.002  0.00  0.00    +0.000 A 
ENDBRANCH  22  35
ENDBRANCH  20  23
ENDBRANCH   1  21
TORSDOF 7
