REMARK  Name = ZINC07508944
REMARK  9 active torsions:
REMARK  status: ('A' for Active; 'I' for Inactive)
REMARK    1  A    between atoms: C_1  and  C_2
REMARK    2  A    between atoms: C_2  and  O_3
REMARK    3  A    between atoms: O_3  and  C_4
REMARK    4  A    between atoms: C_9  and  C_10
REMARK    5  A    between atoms: C_10  and  O_12
REMARK    6  A    between atoms: O_12  and  C_13
REMARK    7  A    between atoms: C_13  and  C_15
REMARK    8  A    between atoms: C_13  and  C_16
REMARK    9  A    between atoms: N_18  and  C_19
REMARK                            x       y       z     vdW  Elec       q    Type
REMARK                         _______ _______ _______ _____ _____    ______ ____
ROOT
ATOM      1  O   UNL     1       2.603  -1.936  -4.567  0.00  0.00    -0.449 OA
ENDROOT
BRANCH   1   2
ATOM      2  C   UNL     1       1.986  -1.428  -3.483  0.00  0.00    +0.343 C 
ATOM      3  O   UNL     1       1.895  -0.224  -3.344  0.00  0.00    -0.245 OA
BRANCH   2   9
ATOM      4  C   UNL     1       0.777  -1.807  -1.336  0.00  0.00    +0.134 A 
ATOM      5  C   UNL     1       0.243  -2.668  -0.388  0.00  0.00    +0.046 A 
ATOM      6  C   UNL     1       0.351  -4.034  -0.554  0.00  0.00    +0.004 A 
ATOM      7  C   UNL     1       0.991  -4.556  -1.666  0.00  0.00    +0.001 A 
ATOM      8  C   UNL     1       1.527  -3.717  -2.619  0.00  0.00    +0.018 A 
ATOM      9  C   UNL     1       1.420  -2.332  -2.466  0.00  0.00    +0.101 A 
BRANCH   4  10
ATOM     10  O   UNL     1       0.671  -0.465  -1.174  0.00  0.00    -0.491 OA
BRANCH  10  12
ATOM     11  C   UNL     1      -0.019   1.526   0.010  0.00  0.00    +0.048 C 
ATOM     12  C   UNL     1       0.002  -0.004   0.002  0.00  0.00    +0.226 C 
ENDBRANCH  10  12
ENDBRANCH   4  10
ENDBRANCH   2   9
ENDBRANCH   1   2
BRANCH   1  13
ATOM     13  C   UNL     1       3.128  -1.002  -5.513  0.00  0.00    +0.259 C 
ATOM     14  C   UNL     1       4.571  -0.655  -5.141  0.00  0.00    +0.062 C 
BRANCH  13  15
ATOM     15  C   UNL     1       3.096  -1.611  -6.891  0.00  0.00    +0.254 C 
ATOM     16  O   UNL     1       2.667  -2.734  -7.048  0.00  0.00    -0.272 OA
ATOM     17  N   UNL     1       3.545  -0.907  -7.949  0.00  0.00    -0.309 N 
ATOM     18  H   UNL     1       3.888  -0.008  -7.824  0.00  0.00    +0.149 HD
BRANCH  17  19
ATOM     19  C   UNL     1       3.515  -1.499  -9.289  0.00  0.00    +0.073 C 
ATOM     20  C   UNL     1       4.773  -2.342  -9.502  0.00  0.00    +0.022 C 
ATOM     21  C   UNL     1       4.742  -2.961 -10.902  0.00  0.00    +0.002 C 
ATOM     22  C   UNL     1       4.690  -1.848 -11.950  0.00  0.00    +0.000 C 
ATOM     23  C   UNL     1       3.432  -1.004 -11.737  0.00  0.00    +0.002 C 
ATOM     24  C   UNL     1       3.463  -0.386 -10.337  0.00  0.00    +0.022 C 
ENDBRANCH  17  19
ENDBRANCH  13  15
ENDBRANCH   1  13
TORSDOF 7
