REMARK  Name = ZINC12525995
REMARK  6 active torsions:
REMARK  status: ('A' for Active; 'I' for Inactive)
REMARK    1  A    between atoms: C_4  and  N_18
REMARK    2  A    between atoms: C_5  and  N_7
REMARK    3  A    between atoms: N_7  and  S_8
REMARK    4  A    between atoms: S_8  and  C_11
REMARK    5  A    between atoms: N_18  and  S_19
REMARK    6  A    between atoms: S_19  and  C_22
REMARK                            x       y       z     vdW  Elec       q    Type
REMARK                         _______ _______ _______ _____ _____    ______ ____
ROOT
ATOM      1  C   UNL     1       4.657  -1.934  -3.083  0.00  0.00    +0.002 A 
ATOM      2  C   UNL     1       4.292  -1.620  -4.378  0.00  0.00    +0.002 A 
ATOM      3  C   UNL     1       2.967  -1.700  -4.766  0.00  0.00    +0.026 A 
ATOM      4  C   UNL     1       2.001  -2.100  -3.855  0.00  0.00    +0.070 A 
ATOM      5  C   UNL     1       2.369  -2.411  -2.546  0.00  0.00    +0.070 A 
ATOM      6  C   UNL     1       3.700  -2.329  -2.166  0.00  0.00    +0.026 A 
ENDROOT
BRANCH   5   7
ATOM      7  N   UNL     1       1.398  -2.810  -1.620  0.00  0.00    -0.214 N 
ATOM      8  H   UNL     1       0.643  -3.347  -1.909  0.00  0.00    +0.174 HD
BRANCH   7   9
ATOM      9  S   UNL     1       1.538  -2.367  -0.030  0.00  0.00    +0.072 S 
ATOM     10  O   UNL     1       2.832  -2.775   0.393  0.00  0.00    -0.150 OA
ATOM     11  O   UNL     1       0.351  -2.803   0.619  0.00  0.00    -0.150 OA
BRANCH   9  12
ATOM     12  C   UNL     1       1.523  -0.606   0.022  0.00  0.00    +0.109 A 
ATOM     13  C   UNL     1       0.324   0.071   0.152  0.00  0.00    +0.031 A 
ATOM     14  C   UNL     1       0.311   1.452   0.194  0.00  0.00    +0.040 A 
ATOM     15  C   UNL     1       1.499   2.158   0.106  0.00  0.00    +0.124 A 
ATOM     16  C   UNL     1       2.699   1.479  -0.024  0.00  0.00    +0.040 A 
ATOM     17  C   UNL     1       2.709   0.098  -0.065  0.00  0.00    +0.031 A 
ATOM     18  F   UNL     1       1.488   3.509   0.147  0.00  0.00    -0.205 F 
ENDBRANCH   9  12
ENDBRANCH   7   9
ENDBRANCH   5   7
BRANCH   4  19
ATOM     19  N   UNL     1       0.659  -2.186  -4.246  0.00  0.00    -0.214 N 
ATOM     20  H   UNL     1       0.003  -1.581  -3.866  0.00  0.00    +0.174 HD
BRANCH  19  21
ATOM     21  S   UNL     1       0.193  -3.320  -5.359  0.00  0.00    +0.075 S 
ATOM     22  O   UNL     1      -1.211  -3.175  -5.522  0.00  0.00    -0.150 OA
ATOM     23  O   UNL     1       1.101  -3.219  -6.447  0.00  0.00    -0.150 OA
BRANCH  21  24
ATOM     24  C   UNL     1       0.455  -4.903  -4.631  0.00  0.00    +0.145 A 
ATOM     25  C   UNL     1       1.667  -5.548  -4.794  0.00  0.00    +0.069 A 
ATOM     26  C   UNL     1       1.874  -6.789  -4.218  0.00  0.00    +0.022 A 
ATOM     27  C   UNL     1       0.865  -7.389  -3.488  0.00  0.00    +0.003 A 
ATOM     28  C   UNL     1      -0.348  -6.747  -3.328  0.00  0.00    +0.022 A 
ATOM     29  C   UNL     1      -0.554  -5.504  -3.900  0.00  0.00    +0.069 A 
ATOM     30 CL   UNL     1      -2.079  -4.698  -3.700  0.00  0.00    -0.081 Cl
ATOM     31 CL   UNL     1       2.932  -4.798  -5.718  0.00  0.00    -0.081 Cl
ENDBRANCH  21  24
ENDBRANCH  19  21
ENDBRANCH   4  19
TORSDOF 6
