REMARK  Name = ZINC39938854
REMARK  4 active torsions:
REMARK  status: ('A' for Active; 'I' for Inactive)
REMARK    1  A    between atoms: C_4  and  C_7
REMARK    2  A    between atoms: C_9  and  C_17
REMARK    3  A    between atoms: C_17  and  C_19
REMARK    4  A    between atoms: C_19  and  N_20
REMARK                            x       y       z     vdW  Elec       q    Type
REMARK                         _______ _______ _______ _____ _____    ______ ____
ROOT
ATOM      1  C   UNL     1       4.247  -0.425   2.511  0.00  0.00    +0.180 C 
ATOM      2  O   UNL     1       4.150   0.784   2.454  0.00  0.00    -0.291 OA
ENDROOT
BRANCH   1   4
ATOM      3  C   UNL     1       3.711  -0.707  -0.038  0.00  0.00    +0.144 C 
ATOM      4  C   UNL     1       4.049  -1.204   1.351  0.00  0.00    +0.032 C 
ATOM      5  C   UNL     1       4.122  -2.581   1.246  0.00  0.00    +0.007 A 
ATOM      6  C   UNL     1       4.398  -3.604   2.183  0.00  0.00    +0.010 A 
ATOM      7  C   UNL     1       4.405  -4.899   1.795  0.00  0.00    +0.001 A 
ATOM      8  C   UNL     1       4.143  -5.291   0.472  0.00  0.00    +0.002 A 
ATOM      9  C   UNL     1       3.868  -4.394  -0.498  0.00  0.00    +0.026 A 
ATOM     10  C   UNL     1       3.841  -2.961  -0.161  0.00  0.00    +0.044 A 
ATOM     11  N   UNL     1       3.611  -1.900  -0.884  0.00  0.00    -0.373 N 
ATOM     12  H   UNL     1       3.405  -1.900  -1.831  0.00  0.00    +0.161 HD
BRANCH   3  16
ATOM     13  C   UNL     1      -0.017   1.378   0.010  0.00  0.00    +0.000 A 
ATOM     14  C   UNL     1       1.171   2.086   0.002  0.00  0.00    +0.000 A 
ATOM     15  C   UNL     1       2.377   1.411  -0.013  0.00  0.00    +0.006 A 
ATOM     16  C   UNL     1       2.396   0.029  -0.020  0.00  0.00    -0.021 A 
ATOM     17  C   UNL     1       1.208  -0.679  -0.012  0.00  0.00    +0.006 A 
ATOM     18  C   UNL     1       0.002  -0.004   0.002  0.00  0.00    +0.000 A 
ENDBRANCH   3  16
ENDBRANCH   1   4
BRANCH   1  19
ATOM     19  C   UNL     1       4.579  -1.093   3.820  0.00  0.00    +0.197 C 
BRANCH  19  20
ATOM     20  N   UNL     1       4.735  -0.076   4.863  0.00  0.00    -0.216 N 
ATOM     21  C   UNL     1       5.902   0.530   5.162  0.00  0.00    +0.252 C 
ATOM     22  O   UNL     1       6.981   0.345   4.639  0.00  0.00    -0.272 OA
ATOM     23  C   UNL     1       5.582   1.490   6.285  0.00  0.00    +0.144 C 
ATOM     24  C   UNL     1       6.377   1.128   7.535  0.00  0.00    +0.081 C 
ATOM     25  C   UNL     1       6.231   2.271   8.549  0.00  0.00    +0.232 C 
ATOM     26  O   UNL     1       6.821   3.446   7.992  0.00  0.00    -0.492 OA
ATOM     27  C   UNL     1       6.466   3.804   6.731  0.00  0.00    +0.126 A 
ATOM     28  C   UNL     1       5.869   2.904   5.863  0.00  0.00    +0.027 A 
ATOM     29  C   UNL     1       5.526   3.307   4.583  0.00  0.00    +0.010 A 
ATOM     30  C   UNL     1       5.775   4.601   4.170  0.00  0.00    +0.001 A 
ATOM     31  C   UNL     1       6.368   5.502   5.035  0.00  0.00    +0.004 A 
ATOM     32  C   UNL     1       6.713   5.106   6.311  0.00  0.00    +0.046 A 
ATOM     33  N   UNL     1       4.145   1.302   6.516  0.00  0.00    -0.281 N 
ATOM     34  C   UNL     1       3.736   0.371   5.633  0.00  0.00    +0.310 C 
ATOM     35  O   UNL     1       2.588  -0.022   5.548  0.00  0.00    -0.252 OA
ATOM     36  H   UNL     1       3.597   1.761   7.172  0.00  0.00    +0.152 HD
ENDBRANCH  19  20
ENDBRANCH   1  19
TORSDOF 4
