REMARK  Name = ZINC39942513
REMARK  7 active torsions:
REMARK  status: ('A' for Active; 'I' for Inactive)
REMARK    1  A    between atoms: C_1  and  C_2
REMARK    2  A    between atoms: C_2  and  C_4
REMARK    3  A    between atoms: C_2  and  S_17
REMARK    4  A    between atoms: N_6  and  C_7
REMARK    5  A    between atoms: C_7  and  C_8
REMARK    6  A    between atoms: S_17  and  C_18
REMARK    7  A    between atoms: C_22  and  C_24
REMARK                            x       y       z     vdW  Elec       q    Type
REMARK                         _______ _______ _______ _____ _____    ______ ____
ROOT
ATOM      1  S   UNL     1       0.851  -0.589  -1.490  0.00  0.00    -0.084 S 
ENDROOT
BRANCH   1   2
ATOM      2  C   UNL     1      -0.220  -0.041  -2.848  0.00  0.00    +0.340 C 
ATOM      3  N   UNL     1      -0.387   1.422  -2.812  0.00  0.00    -0.219 N 
ATOM      4  N   UNL     1      -1.761   1.639  -2.630  0.00  0.00    -0.145 NA
ATOM      5  C   UNL     1      -2.391   0.496  -2.558  0.00  0.00    +0.238 C 
ATOM      6  O   UNL     1      -1.546  -0.561  -2.680  0.00  0.00    -0.443 OA
ATOM      7  H   UNL     1       0.307   2.094  -2.897  0.00  0.00    +0.173 HD
BRANCH   5   8
ATOM      8  C   UNL     1      -3.776   0.375  -2.378  0.00  0.00    +0.043 C 
ATOM      9  C   UNL     1      -4.704   1.409  -2.253  0.00  0.00    +0.008 A 
ATOM     10  C   UNL     1      -4.573   2.814  -2.264  0.00  0.00    +0.010 A 
ATOM     11  C   UNL     1      -5.674   3.595  -2.117  0.00  0.00    +0.001 A 
ATOM     12  C   UNL     1      -6.946   3.042  -1.954  0.00  0.00    +0.002 A 
ATOM     13  C   UNL     1      -7.146   1.700  -1.934  0.00  0.00    +0.026 A 
ATOM     14  C   UNL     1      -6.042   0.821  -2.081  0.00  0.00    +0.043 A 
ATOM     15  N   UNL     1      -5.972  -0.496  -2.095  0.00  0.00    -0.380 N 
ATOM     16  C   UNL     1      -4.577  -0.905  -2.285  0.00  0.00    +0.154 C 
ATOM     17  H   UNL     1      -6.726  -1.099  -2.000  0.00  0.00    +0.160 HD
ENDBRANCH   5   8
ENDBRANCH   1   2
BRANCH   1  19
ATOM     18  C   UNL     1      -0.019   1.526   0.010  0.00  0.00    +0.029 C 
ATOM     19  C   UNL     1       0.002  -0.004   0.002  0.00  0.00    +0.134 C 
BRANCH  19  20
ATOM     20  C   UNL     1       0.731  -0.503   1.223  0.00  0.00    +0.226 C 
ATOM     21  O   UNL     1       1.911  -0.775   1.156  0.00  0.00    -0.275 OA
ATOM     22  N   UNL     1       0.071  -0.647   2.389  0.00  0.00    -0.310 N 
ATOM     23  H   UNL     1      -0.872  -0.430   2.443  0.00  0.00    +0.149 HD
BRANCH  22  24
ATOM     24  C   UNL     1       0.780  -1.133   3.576  0.00  0.00    +0.139 C 
BRANCH  24  25
ATOM     25  C   UNL     1      -0.176  -1.203   4.739  0.00  0.00    -0.027 A 
ATOM     26  C   UNL     1      -0.342  -0.105   5.563  0.00  0.00    +0.009 A 
ATOM     27  C   UNL     1      -1.218  -0.165   6.630  0.00  0.00    +0.050 A 
ATOM     28  C   UNL     1      -1.933  -1.325   6.877  0.00  0.00    +0.166 A 
ATOM     29  C   UNL     1      -1.767  -2.431   6.046  0.00  0.00    +0.167 A 
ATOM     30  C   UNL     1      -0.891  -2.362   4.975  0.00  0.00    +0.054 A 
ATOM     31  O   UNL     1      -2.573  -3.438   6.493  0.00  0.00    -0.453 OA
ATOM     32  C   UNL     1      -2.927  -3.077   7.842  0.00  0.00    +0.466 C 
ATOM     33  O   UNL     1      -2.844  -1.639   7.844  0.00  0.00    -0.453 OA
ENDBRANCH  24  25
ENDBRANCH  22  24
ENDBRANCH  19  20
ENDBRANCH   1  19
TORSDOF 6
