REMARK  Name = ZINC09468212
REMARK  6 active torsions:
REMARK  status: ('A' for Active; 'I' for Inactive)
REMARK    1  A    between atoms: C_3  and  N_17
REMARK    2  A    between atoms: C_6  and  N_7
REMARK    3  A    between atoms: C_8  and  C_10
REMARK    4  A    between atoms: C_10  and  C_11
REMARK    5  A    between atoms: N_17  and  S_18
REMARK    6  A    between atoms: S_18  and  C_21
REMARK                            x       y       z     vdW  Elec       q    Type
REMARK                         _______ _______ _______ _____ _____    ______ ____
ROOT
ATOM      1  C   UNL     1       5.647   0.774  -4.389  0.00  0.00    +0.025 A 
ATOM      2  C   UNL     1       5.418  -0.258  -3.501  0.00  0.00    +0.026 A 
ATOM      3  C   UNL     1       4.462  -0.116  -2.504  0.00  0.00    +0.048 A 
ATOM      4  C   UNL     1       3.733   1.061  -2.403  0.00  0.00    +0.026 A 
ATOM      5  C   UNL     1       3.966   2.095  -3.287  0.00  0.00    +0.025 A 
ATOM      6  C   UNL     1       4.922   1.954  -4.285  0.00  0.00    +0.033 A 
ENDROOT
BRANCH   6   7
ATOM      7  N   UNL     1       5.154   3.001  -5.186  0.00  0.00    -0.285 N 
ATOM      8  C   UNL     1       6.401   3.234  -5.642  0.00  0.00    +0.218 C 
ATOM      9  O   UNL     1       7.307   2.487  -5.339  0.00  0.00    -0.275 OA
ATOM     10  H   UNL     1       4.418   3.559  -5.482  0.00  0.00    +0.155 HD
BRANCH   8  11
ATOM     11  C   UNL     1       6.670   4.423  -6.528  0.00  0.00    +0.103 C 
BRANCH  11  12
ATOM     12  C   UNL     1       8.153   4.456  -6.902  0.00  0.00    +0.020 C 
ATOM     13  C   UNL     1       8.436   5.619  -7.881  0.00  0.00    +0.012 C 
ATOM     14  C   UNL     1       9.832   6.085  -7.407  0.00  0.00    +0.027 C 
ATOM     15  C   UNL     1       9.911   5.652  -5.961  0.00  0.00    -0.031 C 
ATOM     16  C   UNL     1       8.995   4.761  -5.685  0.00  0.00    -0.027 C 
ENDBRANCH  11  12
ENDBRANCH   8  11
ENDBRANCH   6   7
BRANCH   3  17
ATOM     17  N   UNL     1       4.230  -1.162  -1.604  0.00  0.00    -0.216 N 
ATOM     18  H   UNL     1       3.427  -1.700  -1.683  0.00  0.00    +0.174 HD
BRANCH  17  19
ATOM     19  S   UNL     1       5.327  -1.481  -0.404  0.00  0.00    +0.072 S 
ATOM     20  O   UNL     1       6.600  -1.564  -1.030  0.00  0.00    -0.150 OA
ATOM     21  O   UNL     1       4.786  -2.545   0.367  0.00  0.00    -0.150 OA
BRANCH  19  22
ATOM     22  C   UNL     1       5.373  -0.069   0.648  0.00  0.00    +0.112 A 
ATOM     23  C   UNL     1       4.449   0.062   1.668  0.00  0.00    +0.032 A 
ATOM     24  C   UNL     1       4.481   1.169   2.495  0.00  0.00    +0.051 A 
ATOM     25  C   UNL     1       5.440   2.153   2.302  0.00  0.00    +0.162 A 
ATOM     26  C   UNL     1       6.371   2.019   1.279  0.00  0.00    +0.164 A 
ATOM     27  C   UNL     1       6.332   0.906   0.452  0.00  0.00    +0.078 A 
ATOM     28  O   UNL     1       7.326   2.968   1.078  0.00  0.00    -0.485 OA
ATOM     29  C   UNL     1       7.101   4.246   1.685  0.00  0.00    +0.270 C 
ATOM     30  C   UNL     1       6.658   4.017   3.136  0.00  0.00    +0.270 C 
ATOM     31  O   UNL     1       5.454   3.242   3.119  0.00  0.00    -0.485 OA
ENDBRANCH  19  22
ENDBRANCH  17  19
ENDBRANCH   3  17
TORSDOF 6
