REMARK  Name = ZINC13507481
REMARK  9 active torsions:
REMARK  status: ('A' for Active; 'I' for Inactive)
REMARK    1  A    between atoms: C_1  and  C_2
REMARK    2  A    between atoms: C_7  and  N_8
REMARK    3  A    between atoms: N_8  and  C_9
REMARK    4  A    between atoms: C_9  and  C_11
REMARK    5  A    between atoms: C_9  and  C_18
REMARK    6  A    between atoms: N_20  and  C_21
REMARK    7  A    between atoms: C_27  and  C_29
REMARK    8  A    between atoms: C_29  and  N_30
REMARK    9  A    between atoms: C_31  and  C_33
REMARK                            x       y       z     vdW  Elec       q    Type
REMARK                         _______ _______ _______ _____ _____    ______ ____
ROOT
ATOM      1  N   UNL     1      -3.438   1.561   1.011  0.00  0.00    -0.254 N 
ATOM      2  C   UNL     1      -4.584   0.928   1.332  0.00  0.00    +0.238 C 
ATOM      3  O   UNL     1      -4.857  -0.133   0.812  0.00  0.00    -0.274 OA
ENDROOT
BRANCH   1  10
ATOM      4  C   UNL     1      -1.755   1.540   3.306  0.00  0.00    +0.045 C 
ATOM      5  C   UNL     1      -2.306   2.821   2.733  0.00  0.00    -0.029 A 
ATOM      6  C   UNL     1      -1.994   4.031   3.320  0.00  0.00    +0.005 A 
ATOM      7  C   UNL     1      -2.503   5.206   2.799  0.00  0.00    +0.000 A 
ATOM      8  C   UNL     1      -3.321   5.174   1.684  0.00  0.00    +0.002 A 
ATOM      9  C   UNL     1      -3.633   3.967   1.089  0.00  0.00    +0.024 A 
ATOM     10  C   UNL     1      -3.124   2.785   1.611  0.00  0.00    +0.040 A 
ENDBRANCH   1  10
BRANCH   1  11
ATOM     11  C   UNL     1      -2.522   0.967   0.034  0.00  0.00    +0.197 C 
BRANCH  11  12
ATOM     12  C   UNL     1      -1.267   1.797  -0.046  0.00  0.00    -0.018 A 
ATOM     13  C   UNL     1      -0.047   1.238   0.285  0.00  0.00    +0.009 A 
ATOM     14  C   UNL     1       1.106   1.997   0.206  0.00  0.00    +0.038 A 
ATOM     15  C   UNL     1       1.037   3.319  -0.200  0.00  0.00    +0.123 A 
ATOM     16  C   UNL     1      -0.186   3.879  -0.527  0.00  0.00    +0.038 A 
ATOM     17  C   UNL     1      -1.337   3.119  -0.447  0.00  0.00    +0.009 A 
ATOM     18  F   UNL     1       2.163   4.061  -0.278  0.00  0.00    -0.205 F 
ENDBRANCH  11  12
BRANCH  11  19
ATOM     19  C   UNL     1      -3.186   0.928  -1.318  0.00  0.00    +0.239 C 
ATOM     20  O   UNL     1      -4.314   1.354  -1.452  0.00  0.00    -0.273 OA
ATOM     21  N   UNL     1      -2.527   0.419  -2.378  0.00  0.00    -0.311 N 
ATOM     22  H   UNL     1      -1.625   0.078  -2.270  0.00  0.00    +0.149 HD
BRANCH  21  23
ATOM     23  C   UNL     1      -3.172   0.381  -3.692  0.00  0.00    +0.073 C 
ATOM     24  C   UNL     1      -4.028  -0.883  -3.804  0.00  0.00    +0.022 C 
ATOM     25  C   UNL     1      -4.702  -0.923  -5.177  0.00  0.00    +0.002 C 
ATOM     26  C   UNL     1      -3.632  -0.933  -6.270  0.00  0.00    +0.000 C 
ATOM     27  C   UNL     1      -2.776   0.330  -6.159  0.00  0.00    +0.002 C 
ATOM     28  C   UNL     1      -2.102   0.370  -4.786  0.00  0.00    +0.022 C 
ENDBRANCH  21  23
ENDBRANCH  11  19
ENDBRANCH   1  11
BRANCH   2  29
ATOM     29  C   UNL     1      -5.527   1.539   2.337  0.00  0.00    +0.201 C 
BRANCH  29  30
ATOM     30  N   UNL     1      -6.689   0.665   2.510  0.00  0.00    -0.300 N 
ATOM     31  C   UNL     1      -7.671   1.011   3.366  0.00  0.00    +0.280 C 
ATOM     32  O   UNL     1      -7.591   2.049   3.995  0.00  0.00    -0.267 OA
ATOM     33  H   UNL     1      -6.753  -0.163   2.008  0.00  0.00    +0.150 HD
BRANCH  31  34
ATOM     34  C   UNL     1      -8.835   0.136   3.540  0.00  0.00    +0.189 A 
ATOM     35  C   UNL     1      -9.894   0.365   4.370  0.00  0.00    +0.054 A 
ATOM     36  C   UNL     1     -10.769  -0.723   4.218  0.00  0.00    +0.042 A 
ATOM     37  C   UNL     1     -10.211  -1.558   3.313  0.00  0.00    +0.196 A 
ATOM     38  O   UNL     1      -9.049  -1.034   2.903  0.00  0.00    -0.458 OA
ENDBRANCH  31  34
ENDBRANCH  29  30
ENDBRANCH   2  29
TORSDOF 8
