REMARK  Name = ZINC25529457
REMARK  8 active torsions:
REMARK  status: ('A' for Active; 'I' for Inactive)
REMARK    1  A    between atoms: C_1  and  C_2
REMARK    2  A    between atoms: C_5  and  C_8
REMARK    3  A    between atoms: C_8  and  C_30
REMARK    4  A    between atoms: N_11  and  C_15
REMARK    5  A    between atoms: C_15  and  C_16
REMARK    6  A    between atoms: N_18  and  C_19
REMARK    7  A    between atoms: C_19  and  C_20
REMARK    8  A    between atoms: C_20  and  C_21
REMARK                            x       y       z     vdW  Elec       q    Type
REMARK                         _______ _______ _______ _____ _____    ______ ____
ROOT
ATOM      1  C   UNL     1       8.774   3.709  -4.662  0.00  0.00    +0.135 C 
ATOM      2  C   UNL     1       8.216   3.476  -3.272  0.00  0.00    +0.251 C 
ATOM      3  O   UNL     1       8.316   4.208  -2.311  0.00  0.00    -0.272 OA
ATOM      4  N   UNL     1       7.585   2.287  -3.328  0.00  0.00    -0.215 N 
ATOM      5  C   UNL     1       7.670   1.739  -4.545  0.00  0.00    +0.310 C 
ATOM      6  O   UNL     1       7.182   0.665  -4.838  0.00  0.00    -0.252 OA
ATOM      7  N   UNL     1       8.353   2.511  -5.409  0.00  0.00    -0.281 N 
ATOM      8  C   UNL     1      10.300   3.812  -4.619  0.00  0.00    +0.047 C 
ATOM      9  H   UNL     1       8.620   2.403  -6.471  0.00  0.00    +0.152 HD
ENDROOT
BRANCH   1  14
ATOM     10  C   UNL     1       6.486   8.471  -7.002  0.00  0.00    +0.044 C 
ATOM     11  C   UNL     1       7.082   7.229  -6.392  0.00  0.00    -0.050 A 
ATOM     12  C   UNL     1       7.476   6.181  -7.203  0.00  0.00    +0.004 A 
ATOM     13  C   UNL     1       8.023   5.042  -6.643  0.00  0.00    +0.006 A 
ATOM     14  C   UNL     1       8.178   4.951  -5.272  0.00  0.00    -0.015 A 
ATOM     15  C   UNL     1       7.780   5.997  -4.461  0.00  0.00    +0.006 A 
ATOM     16  C   UNL     1       7.237   7.138  -5.021  0.00  0.00    +0.004 A 
ENDBRANCH   1  14
BRANCH   4  17
ATOM     17  C   UNL     1       6.896   1.667  -2.193  0.00  0.00    +0.213 C 
BRANCH  17  18
ATOM     18  C   UNL     1       5.455   2.111  -2.177  0.00  0.00    +0.231 C 
ATOM     19  O   UNL     1       5.045   2.870  -3.029  0.00  0.00    -0.274 OA
ATOM     20  N   UNL     1       4.623   1.664  -1.215  0.00  0.00    -0.314 N 
ATOM     21  H   UNL     1       4.996   0.976  -0.442  0.00  0.00    +0.149 HD
BRANCH  20  22
ATOM     22  C   UNL     1       3.224   2.096  -1.199  0.00  0.00    +0.110 C 
BRANCH  22  23
ATOM     23  C   UNL     1       2.504   1.449  -0.014  0.00  0.00    +0.075 C 
BRANCH  23  24
ATOM     24  C   UNL     1       1.064   1.893   0.002  0.00  0.00    +0.062 A 
ATOM     25  C   UNL     1      -0.013   1.076   0.008  0.00  0.00    +0.116 A 
ATOM     26  N   UNL     1      -1.125   1.873   0.017  0.00  0.00    -0.306 N 
ATOM     27  C   UNL     1      -2.461   1.594   0.020  0.00  0.00    +0.092 A 
ATOM     28  C   UNL     1      -3.371   2.590   0.030  0.00  0.00    +0.018 A 
ATOM     29  C   UNL     1      -2.953   3.932   0.035  0.00  0.00    +0.005 A 
ATOM     30  C   UNL     1      -1.625   4.224   0.040  0.00  0.00    +0.047 A 
ATOM     31  C   UNL     1      -0.687   3.172   0.026  0.00  0.00    +0.138 A 
ATOM     32  N   UNL     1       0.639   3.158   0.013  0.00  0.00    -0.233 NA
ENDBRANCH  23  24
ENDBRANCH  22  23
ENDBRANCH  20  22
ENDBRANCH  17  18
ENDBRANCH   4  17
TORSDOF 6
