REMARK  Name = ZINC13499511
REMARK  14 active torsions:
REMARK  status: ('A' for Active; 'I' for Inactive)
REMARK    1  A    between atoms: C_1  and  C_2
REMARK    2  A    between atoms: C_2  and  C_3
REMARK    3  A    between atoms: C_3  and  C_4
REMARK    4  A    between atoms: C_4  and  C_6
REMARK    5  A    between atoms: C_4  and  N_69
REMARK    6  A    between atoms: N_10  and  C_11
REMARK    7  A    between atoms: C_16  and  C_17
REMARK    8  A    between atoms: C_16  and  N_69
REMARK    9  A    between atoms: C_17  and  C_18
REMARK   10  A    between atoms: C_18  and  O_19
REMARK   11  A    between atoms: C_20  and  C_21
REMARK   12  A    between atoms: C_20  and  N_69
REMARK   13  A    between atoms: C_25  and  C_34
REMARK   14  A    between atoms: C_26  and  C_33
REMARK                            x       y       z     vdW  Elec       q    Type
REMARK                         _______ _______ _______ _____ _____    ______ ____
ROOT
ATOM      1  N   UNL     1      -5.871   4.258  -1.575  0.00  0.00    +0.389 N 
ATOM      2  H   UNL     1      -6.053   3.538  -2.284  0.00  0.00    -0.080 HD
ENDROOT
BRANCH   1   3
ATOM      3  C   UNL     1      -7.157   4.852  -1.152  0.00  0.00    +0.003 C 
BRANCH   3   4
ATOM      4  C   UNL     1      -8.220   3.785  -1.208  0.00  0.00    +0.138 A 
ATOM      5  N   UNL     1      -8.137   2.571  -0.722  0.00  0.00    -0.115 NA
ATOM      6  N   UNL     1      -9.248   1.967  -0.969  0.00  0.00    -0.023 NA
ATOM      7  N   UNL     1     -10.035   2.762  -1.607  0.00  0.00    -0.044 NA
ATOM      8  N   UNL     1      -9.437   3.893  -1.774  0.00  0.00    -0.228 N 
BRANCH   8   9
ATOM      9  C   UNL     1      -9.980   5.072  -2.452  0.00  0.00    +0.111 C 
ATOM     10  C   UNL     1     -11.290   5.518  -1.770  0.00  0.00    +0.027 C 
ATOM     11  C   UNL     1     -12.187   5.990  -2.942  0.00  0.00    +0.002 C 
ATOM     12  C   UNL     1     -11.853   4.971  -4.060  0.00  0.00    +0.002 C 
ATOM     13  C   UNL     1     -10.337   4.726  -3.908  0.00  0.00    +0.027 C 
ENDBRANCH   8   9
ENDBRANCH   3   4
BRANCH   3  14
ATOM     14  C   UNL     1      -7.051   5.391   0.276  0.00  0.00    -0.008 C 
BRANCH  14  16
ATOM     15  C   UNL     1      -6.100   7.214   1.695  0.00  0.00    +0.004 C 
ATOM     16  C   UNL     1      -6.090   6.580   0.303  0.00  0.00    -0.005 C 
ENDBRANCH  14  16
ENDBRANCH   3  14
ENDBRANCH   1   3
BRANCH   1  17
ATOM     17  C   UNL     1      -5.003   5.300  -2.162  0.00  0.00    -0.075 C 
BRANCH  17  18
ATOM     18  C   UNL     1      -5.525   5.646  -3.558  0.00  0.00    +0.009 C 
BRANCH  18  19
ATOM     19  C   UNL     1      -4.551   6.606  -4.243  0.00  0.00    +0.154 C 
BRANCH  19  20
ATOM     20  O   UNL     1      -5.038   6.929  -5.547  0.00  0.00    -0.395 OA
ATOM     21  H   UNL     1      -4.470   7.536  -6.040  0.00  0.00    +0.209 HD
ENDBRANCH  19  20
ENDBRANCH  18  19
ENDBRANCH  17  18
ENDBRANCH   1  17
BRANCH   1  22
ATOM     22  C   UNL     1      -5.198   3.632  -0.417  0.00  0.00    -0.037 C 
BRANCH  22  23
ATOM     23  C   UNL     1      -4.104   2.729  -0.924  0.00  0.00    +0.001 A 
ATOM     24  C   UNL     1      -2.827   3.183  -0.985  0.00  0.00    +0.017 A 
ATOM     25  C   UNL     1      -1.788   2.281  -1.487  0.00  0.00    -0.001 A 
ATOM     26  C   UNL     1      -0.457   2.698  -1.589  0.00  0.00    +0.013 A 
ATOM     27  C   UNL     1       0.489   1.833  -2.062  0.00  0.00    -0.047 A 
ATOM     28  C   UNL     1       0.141   0.543  -2.440  0.00  0.00    -0.046 A 
ATOM     29  C   UNL     1      -1.164   0.111  -2.348  0.00  0.00    +0.030 A 
ATOM     30  C   UNL     1      -2.146   0.976  -1.875  0.00  0.00    +0.049 A 
ATOM     31  N   UNL     1      -3.461   0.573  -1.778  0.00  0.00    -0.322 N 
ATOM     32  H   UNL     1      -3.705  -0.328  -2.042  0.00  0.00    +0.169 HD
ATOM     33  C   UNL     1      -4.409   1.409  -1.321  0.00  0.00    +0.251 A 
ATOM     34  O   UNL     1      -5.561   1.018  -1.248  0.00  0.00    -0.268 OA
ATOM     35  C   UNL     1       1.202  -0.393  -2.959  0.00  0.00    +0.044 C 
ATOM     36  C   UNL     1       1.923   2.282  -2.172  0.00  0.00    +0.044 C 
ENDBRANCH  22  23
ENDBRANCH   1  22
TORSDOF 11
