REMARK  Name = ZINC35926698
REMARK  4 active torsions:
REMARK  status: ('A' for Active; 'I' for Inactive)
REMARK    1  A    between atoms: C_5  and  C_7
REMARK    2  A    between atoms: C_22  and  C_24
REMARK    3  A    between atoms: C_24  and  N_25
REMARK    4  A    between atoms: N_28  and  C_31
REMARK                            x       y       z     vdW  Elec       q    Type
REMARK                         _______ _______ _______ _____ _____    ______ ____
ROOT
ATOM      1  C   UNL     1       1.250  -2.160  -0.023  0.00  0.00    +0.248 C 
ATOM      2  O   UNL     1       1.226  -0.949   0.074  0.00  0.00    -0.270 OA
ATOM      3  N   UNL     1       0.096  -2.851  -0.117  0.00  0.00    -0.296 N 
ATOM      4  C   UNL     1       0.176  -4.312  -0.116  0.00  0.00    +0.109 C 
ATOM      5  C   UNL     1      -0.102  -4.795   1.293  0.00  0.00    +0.038 C 
ATOM      6  C   UNL     1      -1.608  -4.960   1.513  0.00  0.00    +0.109 C 
ATOM      7  N   UNL     1      -2.389  -3.867   0.915  0.00  0.00    -0.300 N 
ATOM      8  C   UNL     1      -2.005  -2.469   1.010  0.00  0.00    +0.127 C 
ATOM      9  C   UNL     1      -1.114  -2.111  -0.205  0.00  0.00    +0.127 C 
ATOM     10  C   UNL     1      -3.534  -4.182   0.234  0.00  0.00    +0.199 A 
ATOM     11  N   UNL     1      -4.270  -3.188  -0.333  0.00  0.00    -0.295 N 
ATOM     12  H   UNL     1      -3.983  -2.265  -0.254  0.00  0.00    +0.172 HD
ATOM     13  C   UNL     1      -5.400  -3.491  -1.006  0.00  0.00    +0.253 A 
ATOM     14  O   UNL     1      -6.072  -2.613  -1.521  0.00  0.00    -0.268 OA
ATOM     15  C   UNL     1      -5.788  -4.840  -1.103  0.00  0.00    +0.094 A 
ATOM     16  C   UNL     1      -5.010  -5.794  -0.514  0.00  0.00    +0.064 A 
ATOM     17  N   UNL     1      -3.901  -5.444   0.134  0.00  0.00    -0.219 NA
ENDROOT
BRANCH   1  22
ATOM     18  C   UNL     1       4.014  -4.533   0.888  0.00  0.00    +0.001 A 
ATOM     19  C   UNL     1       4.967  -4.215  -0.064  0.00  0.00    +0.001 A 
ATOM     20  C   UNL     1       4.716  -3.231  -1.002  0.00  0.00    +0.021 A 
ATOM     21  C   UNL     1       3.509  -2.558  -0.995  0.00  0.00    +0.053 A 
ATOM     22  C   UNL     1       2.543  -2.875  -0.037  0.00  0.00    +0.055 A 
ATOM     23  C   UNL     1       2.804  -3.870   0.906  0.00  0.00    +0.014 A 
ATOM     24 CL   UNL     1       3.195  -1.322  -2.173  0.00  0.00    -0.083 Cl
ENDBRANCH   1  22
BRANCH  16  25
ATOM     25  C   UNL     1      -5.403  -7.246  -0.604  0.00  0.00    +0.140 C 
BRANCH  25  26
ATOM     26  N   UNL     1      -4.396  -7.979  -1.381  0.00  0.00    -0.300 NA
ATOM     27  C   UNL     1      -4.388  -7.537  -2.783  0.00  0.00    +0.066 C 
ATOM     28  C   UNL     1      -3.288  -8.281  -3.543  0.00  0.00    -0.063 C 
ATOM     29  N   UNL     1      -3.532  -9.727  -3.469  0.00  0.00    +0.383 N 
ATOM     30  C   UNL     1      -3.512 -10.157  -2.065  0.00  0.00    -0.063 C 
ATOM     31  C   UNL     1      -4.615  -9.430  -1.292  0.00  0.00    +0.066 C 
ATOM     32  H   UNL     1      -4.433  -9.937  -3.872  0.00  0.00    -0.081 HD
BRANCH  29  33
ATOM     33  C   UNL     1      -2.486 -10.439  -4.214  0.00  0.00    -0.068 C 
ATOM     34  C   UNL     1      -2.507  -9.993  -5.677  0.00  0.00    -0.015 C 
ATOM     35  C   UNL     1      -1.417 -10.735  -6.453  0.00  0.00    -0.002 C 
ATOM     36  C   UNL     1      -1.672 -12.241  -6.376  0.00  0.00    -0.000 C 
ATOM     37  C   UNL     1      -1.650 -12.688  -4.913  0.00  0.00    -0.002 C 
ATOM     38  C   UNL     1      -2.740 -11.946  -4.137  0.00  0.00    -0.015 C 
ENDBRANCH  29  33
ENDBRANCH  25  26
ENDBRANCH  16  25
TORSDOF 4
