REMARK  Name = ZINC33811023
REMARK  7 active torsions:
REMARK  status: ('A' for Active; 'I' for Inactive)
REMARK    1  A    between atoms: C_1  and  C_2
REMARK    2  A    between atoms: C_2  and  C_3
REMARK    3  A    between atoms: C_3  and  O_4
REMARK    4  A    between atoms: O_4  and  C_5
REMARK    5  A    between atoms: C_10  and  C_16
REMARK    6  A    between atoms: N_18  and  C_19
REMARK    7  A    between atoms: C_21  and  N_26
REMARK                            x       y       z     vdW  Elec       q    Type
REMARK                         _______ _______ _______ _____ _____    ______ ____
ROOT
ATOM      1  C   UNL     1       1.146   3.171  -0.044  0.00  0.00    +0.124 A 
ATOM      2  C   UNL     1       1.156   1.776  -0.046  0.00  0.00    +0.046 A 
ATOM      3  C   UNL     1      -0.013   1.078  -0.028  0.00  0.00    +0.015 A 
ATOM      4  C   UNL     1      -1.240   1.764  -0.014  0.00  0.00    +0.019 A 
ATOM      5  C   UNL     1      -2.456   1.042   0.009  0.00  0.00    +0.031 A 
ATOM      6  C   UNL     1      -3.650   1.748   0.029  0.00  0.00    +0.122 A 
ATOM      7  C   UNL     1      -3.604   3.213   0.030  0.00  0.00    +0.350 A 
ATOM      8  O   UNL     1      -4.639   3.853   0.047  0.00  0.00    -0.244 OA
ATOM      9  O   UNL     1      -2.422   3.852   0.012  0.00  0.00    -0.422 OA
ATOM     10  C   UNL     1      -1.255   3.172  -0.007  0.00  0.00    +0.143 A 
ATOM     11  C   UNL     1      -0.053   3.865  -0.025  0.00  0.00    +0.092 A 
ENDROOT
BRANCH   6  12
ATOM     12  C   UNL     1      -4.939   1.039   0.047  0.00  0.00    +0.255 C 
ATOM     13  O   UNL     1      -5.979   1.669   0.064  0.00  0.00    -0.270 OA
ATOM     14  N   UNL     1      -4.967  -0.309   0.045  0.00  0.00    -0.280 N 
ATOM     15  H   UNL     1      -4.030  -0.878  -0.044  0.00  0.00    +0.155 HD
BRANCH  14  16
ATOM     16  C   UNL     1      -6.187  -0.983   0.158  0.00  0.00    +0.050 A 
ATOM     17  C   UNL     1      -7.332  -0.451  -0.420  0.00  0.00    +0.057 A 
ATOM     18  C   UNL     1      -8.536  -1.119  -0.308  0.00  0.00    +0.128 A 
ATOM     19  C   UNL     1      -8.601  -2.318   0.380  0.00  0.00    +0.034 A 
ATOM     20  C   UNL     1      -7.464  -2.851   0.956  0.00  0.00    +0.019 A 
ATOM     21  C   UNL     1      -6.255  -2.190   0.844  0.00  0.00    +0.039 A 
ATOM     22 BR   UNL     1      -4.698  -2.923   1.627  0.00  0.00    -0.048 Br
BRANCH  18  23
ATOM     23  N   UNL     1      -9.756  -0.552  -0.924  0.00  0.00    +0.056 N 
ATOM     24  O   UNL     1      -9.699   0.503  -1.529  0.00  0.00    -0.126 OA
ATOM     25  O   UNL     1     -10.818  -1.141  -0.825  0.00  0.00    -0.126 OA
ENDBRANCH  18  23
ENDBRANCH  14  16
ENDBRANCH   6  12
BRANCH   1  26
ATOM     26  O   UNL     1       2.319   3.853  -0.062  0.00  0.00    -0.492 OA
BRANCH  26  27
ATOM     27  C   UNL     1       3.519   3.078  -0.081  0.00  0.00    +0.229 C 
BRANCH  27  29
ATOM     28  C   UNL     1       6.015   3.184  -0.120  0.00  0.00    +0.007 C 
ATOM     29  C   UNL     1       4.730   4.014  -0.099  0.00  0.00    +0.038 C 
ENDBRANCH  27  29
ENDBRANCH  26  27
ENDBRANCH   1  26
TORSDOF 6
