REMARK  Name = ZINC63746936
REMARK  3 active torsions:
REMARK  status: ('A' for Active; 'I' for Inactive)
REMARK    1  A    between atoms: C_6  and  C_11
REMARK    2  A    between atoms: C_16  and  N_17
REMARK    3  A    between atoms: N_20  and  C_21
REMARK                            x       y       z     vdW  Elec       q    Type
REMARK                         _______ _______ _______ _____ _____    ______ ____
ROOT
ATOM      1  C   UNL     1       3.621  -2.782   1.209  0.00  0.00    -0.000 A 
ATOM      2  C   UNL     1       3.909  -2.070   2.357  0.00  0.00    +0.008 A 
ATOM      3  C   UNL     1       4.386  -2.725   3.477  0.00  0.00    +0.000 A 
ATOM      4  C   UNL     1       4.576  -4.095   3.452  0.00  0.00    +0.002 A 
ATOM      5  C   UNL     1       4.290  -4.812   2.308  0.00  0.00    +0.024 A 
ATOM      6  C   UNL     1       3.805  -4.158   1.183  0.00  0.00    +0.040 A 
ENDROOT
BRANCH   1  12
ATOM      7  C   UNL     1      -0.094   1.300   0.063  0.00  0.00    +0.001 A 
ATOM      8  C   UNL     1       1.080   2.065   0.062  0.00  0.00    +0.002 A 
ATOM      9  C   UNL     1       2.311   1.512   0.043  0.00  0.00    +0.026 A 
ATOM     10  C   UNL     1       2.464   0.098   0.023  0.00  0.00    +0.043 A 
ATOM     11  N   UNL     1       3.530  -0.664   0.003  0.00  0.00    -0.374 N 
ATOM     12  C   UNL     1       3.101  -2.067  -0.012  0.00  0.00    +0.135 C 
ATOM     13  C   UNL     1       1.589  -2.039   0.003  0.00  0.00    +0.012 C 
ATOM     14  C   UNL     1       1.239  -0.733   0.024  0.00  0.00    -0.004 A 
ATOM     15  C   UNL     1      -0.062  -0.052   0.045  0.00  0.00    +0.010 A 
ATOM     16  H   UNL     1       4.449  -0.353  -0.002  0.00  0.00    +0.161 HD
ENDBRANCH   1  12
BRANCH   6  17
ATOM     17  N   UNL     1       3.508  -4.883   0.024  0.00  0.00    -0.269 N 
ATOM     18  C   UNL     1       4.258  -5.951  -0.314  0.00  0.00    +0.308 C 
ATOM     19  O   UNL     1       5.138  -6.336   0.432  0.00  0.00    -0.252 OA
ATOM     20  N   UNL     1       4.032  -6.592  -1.478  0.00  0.00    -0.267 N 
ATOM     21  H   UNL     1       2.762  -4.618  -0.537  0.00  0.00    +0.156 HD
ATOM     22  H   UNL     1       3.387  -6.238  -2.110  0.00  0.00    +0.156 HD
BRANCH  20  23
ATOM     23  C   UNL     1       4.729  -7.772  -1.775  0.00  0.00    +0.070 A 
ATOM     24  C   UNL     1       5.236  -8.557  -0.749  0.00  0.00    +0.029 A 
ATOM     25  C   UNL     1       5.922  -9.719  -1.043  0.00  0.00    +0.040 A 
ATOM     26  C   UNL     1       6.106 -10.102  -2.361  0.00  0.00    +0.126 A 
ATOM     27  C   UNL     1       5.603  -9.321  -3.388  0.00  0.00    +0.078 A 
ATOM     28  C   UNL     1       4.910  -8.159  -3.098  0.00  0.00    +0.147 A 
ATOM     29  F   UNL     1       4.414  -7.400  -4.099  0.00  0.00    -0.203 F 
ATOM     30  F   UNL     1       6.778 -11.239  -2.646  0.00  0.00    -0.205 F 
ENDBRANCH  20  23
ENDBRANCH   6  17
TORSDOF 3
