REMARK  Name = ZINC07795895
REMARK  12 active torsions:
REMARK  status: ('A' for Active; 'I' for Inactive)
REMARK    1  A    between atoms: C_1  and  C_2
REMARK    2  A    between atoms: C_2  and  C_3
REMARK    3  A    between atoms: C_3  and  C_4
REMARK    4  A    between atoms: C_4  and  N_5
REMARK    5  A    between atoms: C_6  and  N_31
REMARK    6  A    between atoms: C_7  and  N_14
REMARK    7  A    between atoms: N_14  and  C_15
REMARK    8  A    between atoms: C_15  and  C_16
REMARK    9  A    between atoms: C_16  and  C_17
REMARK   10  A    between atoms: C_17  and  C_18
REMARK   11  A    between atoms: C_19  and  C_21
REMARK   12  A    between atoms: C_22  and  C_30
REMARK                            x       y       z     vdW  Elec       q    Type
REMARK                         _______ _______ _______ _____ _____    ______ ____
ROOT
ATOM      1  N   UNL     1       0.275  -3.467  -6.006  0.00  0.00    -0.258 N 
ATOM      2  C   UNL     1      -1.015  -3.137  -5.795  0.00  0.00    +0.287 C 
ATOM      3  O   UNL     1      -1.370  -2.738  -4.701  0.00  0.00    -0.266 OA
ENDROOT
BRANCH   2   4
ATOM      4  C   UNL     1      -1.992  -3.257  -6.886  0.00  0.00    +0.194 A 
ATOM      5  C   UNL     1      -3.284  -2.842  -6.828  0.00  0.00    +0.008 A 
ATOM      6  C   UNL     1      -3.871  -3.161  -8.129  0.00  0.00    +0.024 A 
ATOM      7  C   UNL     1      -5.138  -2.993  -8.693  0.00  0.00    +0.012 A 
ATOM      8  C   UNL     1      -5.370  -3.411  -9.973  0.00  0.00    +0.001 A 
ATOM      9  C   UNL     1      -4.357  -4.003 -10.714  0.00  0.00    +0.004 A 
ATOM     10  C   UNL     1      -3.100  -4.178 -10.176  0.00  0.00    +0.047 A 
ATOM     11  C   UNL     1      -2.840  -3.760  -8.876  0.00  0.00    +0.136 A 
ATOM     12  O   UNL     1      -1.739  -3.791  -8.100  0.00  0.00    -0.450 OA
ATOM     13  C   UNL     1      -3.973  -2.187  -5.659  0.00  0.00    +0.048 C 
ENDBRANCH   2   4
BRANCH   1  16
ATOM     14  N   UNL     1       3.165  -2.183  -4.137  0.00  0.00    -0.280 N 
ATOM     15  C   UNL     1       2.250  -2.354  -5.150  0.00  0.00    +0.127 A 
ATOM     16  C   UNL     1       1.229  -3.269  -4.987  0.00  0.00    +0.140 A 
ATOM     17  C   UNL     1       1.156  -3.999  -3.786  0.00  0.00    +0.277 A 
ATOM     18  O   UNL     1       0.265  -4.814  -3.616  0.00  0.00    -0.266 OA
ATOM     19  N   UNL     1       2.079  -3.793  -2.826  0.00  0.00    -0.273 N 
ATOM     20  H   UNL     1       2.030  -4.296  -1.998  0.00  0.00    +0.173 HD
ATOM     21  C   UNL     1       3.070  -2.901  -3.004  0.00  0.00    +0.331 A 
ATOM     22  O   UNL     1       3.892  -2.739  -2.123  0.00  0.00    -0.246 OA
BRANCH  15  23
ATOM     23  N   UNL     1       2.350  -1.624  -6.309  0.00  0.00    -0.343 N 
ATOM     24  H   UNL     1       3.026  -0.933  -6.390  0.00  0.00    +0.144 HD
ATOM     25  H   UNL     1       1.745  -1.799  -7.047  0.00  0.00    +0.144 HD
ENDBRANCH  15  23
BRANCH  14  26
ATOM     26  C   UNL     1       4.254  -1.216  -4.297  0.00  0.00    +0.128 C 
BRANCH  26  27
ATOM     27  C   UNL     1       5.461  -1.908  -4.934  0.00  0.00    +0.021 C 
BRANCH  27  29
ATOM     28  C   UNL     1       7.805  -1.590  -5.739  0.00  0.00    +0.004 C 
ATOM     29  C   UNL     1       6.598  -0.898  -5.101  0.00  0.00    -0.002 C 
ENDBRANCH  27  29
ENDBRANCH  26  27
ENDBRANCH  14  26
ENDBRANCH   1  16
BRANCH   1  30
ATOM     30  C   UNL     1       0.685  -4.033  -7.293  0.00  0.00    +0.114 C 
BRANCH  30  31
ATOM     31  C   UNL     1       0.415  -5.539  -7.298  0.00  0.00    +0.019 C 
BRANCH  31  32
ATOM     32  C   UNL     1       0.843  -6.130  -8.643  0.00  0.00    -0.002 C 
ATOM     33  C   UNL     1       0.573  -7.636  -8.648  0.00  0.00    +0.004 C 
ENDBRANCH  31  32
ENDBRANCH  30  31
ENDBRANCH   1  30
TORSDOF 9
