REMARK  Name = ZINC08971882
REMARK  4 active torsions:
REMARK  status: ('A' for Active; 'I' for Inactive)
REMARK    1  A    between atoms: C_1  and  N_50
REMARK    2  A    between atoms: C_3  and  C_26
REMARK    3  A    between atoms: C_5  and  C_18
REMARK    4  A    between atoms: C_18  and  C_20
REMARK                            x       y       z     vdW  Elec       q    Type
REMARK                         _______ _______ _______ _____ _____    ______ ____
ROOT
ATOM      1  C   UNL     1       0.155   0.678  -1.994  0.00  0.00    -0.094 C 
ATOM      2  C   UNL     1       0.294   1.284   0.356  0.00  0.00    -0.068 C 
ATOM      3  C   UNL     1      -0.799   1.657   1.390  0.00  0.00    +0.012 C 
ATOM      4  C   UNL     1      -2.097   1.252   0.633  0.00  0.00    +0.068 C 
ATOM      5  C   UNL     1      -1.759   1.589  -0.828  0.00  0.00    +0.051 C 
ATOM      6  C   UNL     1      -2.376   0.585  -1.764  0.00  0.00    -0.026 A 
ATOM      7  C   UNL     1      -2.233  -0.777  -1.916  0.00  0.00    +0.024 A 
ATOM      8  C   UNL     1      -2.955  -1.443  -2.891  0.00  0.00    +0.041 A 
ATOM      9  C   UNL     1      -3.818  -0.738  -3.712  0.00  0.00    +0.022 A 
ATOM     10  C   UNL     1      -3.962   0.626  -3.563  0.00  0.00    +0.025 A 
ATOM     11  C   UNL     1      -3.239   1.304  -2.584  0.00  0.00    +0.036 A 
ATOM     12  N   UNL     1      -3.212   2.658  -2.243  0.00  0.00    -0.286 N 
ATOM     13  C   UNL     1      -2.369   2.909  -1.224  0.00  0.00    +0.212 C 
ATOM     14  O   UNL     1      -2.143   3.990  -0.722  0.00  0.00    -0.277 OA
ATOM     15 CL   UNL     1      -2.779  -3.160  -3.084  0.00  0.00    -0.084 Cl
ATOM     16  H   UNL     1      -3.740   3.339  -2.689  0.00  0.00    +0.155 HD
ATOM     17  N   UNL     1      -0.299   1.633  -0.948  0.00  0.00    +0.391 N 
ATOM     18  H   UNL     1      -0.007   2.582  -1.211  0.00  0.00    -0.080 HD
ENDROOT
BRANCH   3  19
ATOM     19  C   UNL     1      -0.638   0.856   2.657  0.00  0.00    -0.045 A 
ATOM     20  C   UNL     1      -1.710   0.696   3.514  0.00  0.00    +0.005 A 
ATOM     21  C   UNL     1      -1.565  -0.042   4.673  0.00  0.00    +0.020 A 
ATOM     22  C   UNL     1      -0.342  -0.612   4.981  0.00  0.00    +0.041 A 
ATOM     23  C   UNL     1       0.732  -0.447   4.126  0.00  0.00    +0.020 A 
ATOM     24  C   UNL     1       0.584   0.287   2.964  0.00  0.00    +0.005 A 
ATOM     25 CL   UNL     1      -0.157  -1.534   6.441  0.00  0.00    -0.084 Cl
ENDBRANCH   3  19
BRANCH   4  26
ATOM     26  C   UNL     1      -2.374  -0.221   0.792  0.00  0.00    +0.168 C 
ATOM     27  O   UNL     1      -1.457  -0.996   0.961  0.00  0.00    -0.292 OA
BRANCH  26  28
ATOM     28  C   UNL     1      -3.758  -0.718   0.740  0.00  0.00    +0.036 A 
ATOM     29  C   UNL     1      -4.030  -2.087   0.886  0.00  0.00    +0.014 A 
ATOM     30  C   UNL     1      -5.348  -2.502   0.830  0.00  0.00    +0.020 A 
ATOM     31  C   UNL     1      -6.347  -1.564   0.634  0.00  0.00    +0.111 A 
ATOM     32  N   UNL     1      -6.062  -0.282   0.500  0.00  0.00    -0.263 NA
ATOM     33  C   UNL     1      -4.825   0.165   0.551  0.00  0.00    +0.122 A 
ENDBRANCH  26  28
ENDBRANCH   4  26
TORSDOF 3
