REMARK  Name = ZINC09093842
REMARK  7 active torsions:
REMARK  status: ('A' for Active; 'I' for Inactive)
REMARK    1  A    between atoms: C_6  and  C_7
REMARK    2  A    between atoms: C_10  and  S_19
REMARK    3  A    between atoms: N_11  and  C_12
REMARK    4  A    between atoms: S_19  and  C_20
REMARK    5  A    between atoms: C_20  and  C_21
REMARK    6  A    between atoms: N_23  and  C_24
REMARK    7  A    between atoms: C_26  and  N_31
REMARK                            x       y       z     vdW  Elec       q    Type
REMARK                         _______ _______ _______ _____ _____    ______ ____
ROOT
ATOM      1  C   UNL     1      -2.841   0.789  -0.454  0.00  0.00    +0.169 A 
ATOM      2  N   UNL     1      -2.985  -0.472  -0.118  0.00  0.00    -0.128 NA
ATOM      3  N   UNL     1      -4.232  -0.756   0.000  0.00  0.00    -0.122 NA
ATOM      4  C   UNL     1      -4.964   0.305  -0.254  0.00  0.00    +0.197 A 
ATOM      5  N   UNL     1      -4.105   1.329  -0.547  0.00  0.00    -0.270 N 
ENDROOT
BRANCH   1  11
ATOM      6  C   UNL     1      -1.550   2.711  -1.372  0.00  0.00    +0.014 A 
ATOM      7  C   UNL     1      -0.356   3.370  -1.578  0.00  0.00    +0.039 A 
ATOM      8  C   UNL     1       0.829   2.827  -1.108  0.00  0.00    +0.123 A 
ATOM      9  C   UNL     1       0.821   1.619  -0.429  0.00  0.00    +0.039 A 
ATOM     10  C   UNL     1      -0.367   0.951  -0.218  0.00  0.00    +0.014 A 
ATOM     11  C   UNL     1      -1.564   1.497  -0.684  0.00  0.00    +0.020 A 
ATOM     12  F   UNL     1       1.995   3.477  -1.312  0.00  0.00    -0.205 F 
ENDBRANCH   1  11
BRANCH   5  13
ATOM     13  C   UNL     1      -4.441   2.650  -0.876  0.00  0.00    +0.051 A 
ATOM     14  C   UNL     1      -4.117   3.685  -0.009  0.00  0.00    +0.029 A 
ATOM     15  C   UNL     1      -4.444   4.987  -0.337  0.00  0.00    +0.040 A 
ATOM     16  C   UNL     1      -5.103   5.258  -1.524  0.00  0.00    +0.124 A 
ATOM     17  C   UNL     1      -5.431   4.226  -2.387  0.00  0.00    +0.040 A 
ATOM     18  C   UNL     1      -5.102   2.924  -2.065  0.00  0.00    +0.029 A 
ATOM     19  F   UNL     1      -5.427   6.531  -1.841  0.00  0.00    -0.205 F 
ENDBRANCH   5  13
BRANCH   4  20
ATOM     20  S   UNL     1      -6.724   0.396  -0.216  0.00  0.00    -0.076 S 
BRANCH  20  21
ATOM     21  C   UNL     1      -7.116  -1.310   0.246  0.00  0.00    +0.173 C 
BRANCH  21  22
ATOM     22  C   UNL     1      -8.611  -1.473   0.341  0.00  0.00    +0.228 C 
ATOM     23  O   UNL     1      -9.340  -0.529   0.118  0.00  0.00    -0.275 OA
ATOM     24  N   UNL     1      -9.139  -2.668   0.674  0.00  0.00    -0.282 N 
ATOM     25  H   UNL     1      -8.557  -3.401   0.926  0.00  0.00    +0.155 HD
BRANCH  24  26
ATOM     26  C   UNL     1     -10.527  -2.849   0.656  0.00  0.00    +0.071 A 
ATOM     27  C   UNL     1     -11.333  -1.984  -0.071  0.00  0.00    +0.059 A 
ATOM     28  C   UNL     1     -12.702  -2.169  -0.091  0.00  0.00    +0.128 A 
ATOM     29  C   UNL     1     -13.272  -3.208   0.620  0.00  0.00    +0.035 A 
ATOM     30  C   UNL     1     -12.475  -4.070   1.350  0.00  0.00    +0.042 A 
ATOM     31  C   UNL     1     -11.103  -3.894   1.371  0.00  0.00    +0.145 A 
ATOM     32  F   UNL     1     -10.323  -4.736   2.084  0.00  0.00    -0.204 F 
BRANCH  28  33
ATOM     33  N   UNL     1     -13.560  -1.249  -0.871  0.00  0.00    +0.056 N 
ATOM     34  O   UNL     1     -14.767  -1.408  -0.886  0.00  0.00    -0.126 OA
ATOM     35  O   UNL     1     -13.059  -0.332  -1.498  0.00  0.00    -0.126 OA
ENDBRANCH  28  33
ENDBRANCH  24  26
ENDBRANCH  21  22
ENDBRANCH  20  21
ENDBRANCH   4  20
TORSDOF 7
