REMARK  Name = ZINC58952770
REMARK  12 active torsions:
REMARK  status: ('A' for Active; 'I' for Inactive)
REMARK    1  A    between atoms: C_1  and  C_2
REMARK    2  A    between atoms: C_5  and  S_8
REMARK    3  A    between atoms: S_8  and  N_11
REMARK    4  A    between atoms: N_11  and  C_12
REMARK    5  A    between atoms: C_12  and  C_14
REMARK    6  A    between atoms: C_12  and  C_18
REMARK    7  A    between atoms: C_14  and  C_15
REMARK    8  A    between atoms: C_15  and  C_16
REMARK    9  A    between atoms: C_15  and  C_17
REMARK   10  A    between atoms: N_20  and  C_21
REMARK   11  A    between atoms: C_21  and  C_22
REMARK   12  A    between atoms: C_32  and  C_35
REMARK                            x       y       z     vdW  Elec       q    Type
REMARK                         _______ _______ _______ _____ _____    ______ ____
ROOT
ATOM      1  C   UNL     1       3.995  -4.186   0.668  0.00  0.00    +0.232 C 
ATOM      2  O   UNL     1       4.152  -4.160  -0.534  0.00  0.00    -0.274 OA
ATOM      3  N   UNL     1       5.025  -3.901   1.489  0.00  0.00    -0.310 N 
ATOM      4  H   UNL     1       4.900  -3.922   2.450  0.00  0.00    +0.149 HD
ENDROOT
BRANCH   1   5
ATOM      5  C   UNL     1       2.648  -4.539   1.245  0.00  0.00    +0.162 C 
BRANCH   5   6
ATOM      6  N   UNL     1       1.705  -4.804   0.156  0.00  0.00    -0.178 NA
ATOM      7  H   UNL     1       1.680  -5.680  -0.262  0.00  0.00    +0.149 HD
BRANCH   6   8
ATOM      8  S   UNL     1       0.680  -3.611  -0.362  0.00  0.00    +0.059 S 
ATOM      9  O   UNL     1       0.048  -3.087   0.798  0.00  0.00    -0.153 OA
ATOM     10  O   UNL     1      -0.054  -4.151  -1.452  0.00  0.00    -0.153 OA
BRANCH   8  15
ATOM     11  C   UNL     1       4.096   0.824  -2.613  0.00  0.00    +0.044 C 
ATOM     12  C   UNL     1       3.243  -0.284  -2.050  0.00  0.00    -0.050 A 
ATOM     13  C   UNL     1       2.804  -1.303  -2.874  0.00  0.00    +0.005 A 
ATOM     14  C   UNL     1       2.021  -2.320  -2.358  0.00  0.00    +0.029 A 
ATOM     15  C   UNL     1       1.679  -2.316  -1.019  0.00  0.00    +0.105 A 
ATOM     16  C   UNL     1       2.119  -1.297  -0.195  0.00  0.00    +0.029 A 
ATOM     17  C   UNL     1       2.905  -0.283  -0.710  0.00  0.00    +0.005 A 
ENDBRANCH   8  15
ENDBRANCH   6   8
ENDBRANCH   5   6
BRANCH   5  18
ATOM     18  C   UNL     1       2.779  -5.786   2.122  0.00  0.00    +0.032 C 
BRANCH  18  19
ATOM     19  C   UNL     1       1.433  -6.086   2.785  0.00  0.00    -0.015 C 
ATOM     20  C   UNL     1       1.523  -7.413   3.543  0.00  0.00    +0.007 C 
ATOM     21  C   UNL     1       1.084  -4.963   3.763  0.00  0.00    +0.007 C 
ENDBRANCH  18  19
ENDBRANCH   5  18
ENDBRANCH   1   5
BRANCH   3  22
ATOM     22  C   UNL     1       6.335  -3.558   0.928  0.00  0.00    +0.141 C 
BRANCH  22  23
ATOM     23  C   UNL     1       7.305  -3.285   2.048  0.00  0.00    -0.014 A 
ATOM     24  C   UNL     1       7.443  -2.001   2.559  0.00  0.00    +0.010 A 
ATOM     25  C   UNL     1       8.345  -1.793   3.587  0.00  0.00    +0.042 A 
ATOM     26  C   UNL     1       9.078  -2.871   4.072  0.00  0.00    +0.099 A 
ATOM     27  N   UNL     1       8.918  -4.081   3.559  0.00  0.00    -0.349 N 
ATOM     28  C   UNL     1       8.061  -4.309   2.581  0.00  0.00    +0.089 A 
ATOM     29  N   UNL     1       9.988  -2.676   5.105  0.00  0.00    -0.312 N 
ATOM     30  C   UNL     1      10.876  -3.763   5.547  0.00  0.00    +0.134 C 
ATOM     31  C   UNL     1      12.313  -3.229   5.582  0.00  0.00    +0.179 C 
ATOM     32  O   UNL     1      12.349  -2.026   6.353  0.00  0.00    -0.374 OA
ATOM     33  C   UNL     1      11.567  -0.959   5.811  0.00  0.00    +0.132 C 
ATOM     34  C   UNL     1      10.096  -1.375   5.784  0.00  0.00    +0.137 C 
ATOM     35  C   UNL     1      11.733   0.289   6.680  0.00  0.00    +0.039 C 
ATOM     36  H   UNL     1       9.440  -4.818   3.912  0.00  0.00    +0.167 HD
ENDBRANCH  22  23
ENDBRANCH   3  22
TORSDOF 8
