REMARK  Name = ZINC09629674
REMARK  10 active torsions:
REMARK  status: ('A' for Active; 'I' for Inactive)
REMARK    1  A    between atoms: C_1  and  C_2
REMARK    2  A    between atoms: C_5  and  S_8
REMARK    3  A    between atoms: S_8  and  C_11
REMARK    4  A    between atoms: C_11  and  C_12
REMARK    5  A    between atoms: N_14  and  C_15
REMARK    6  A    between atoms: C_16  and  C_30
REMARK    7  A    between atoms: C_23  and  C_24
REMARK    8  A    between atoms: C_23  and  N_60
REMARK    9  A    between atoms: C_30  and  O_32
REMARK   10  A    between atoms: O_32  and  C_33
REMARK                            x       y       z     vdW  Elec       q    Type
REMARK                         _______ _______ _______ _____ _____    ______ ____
ROOT
ATOM      1  C   UNL     1       2.655   5.804  -6.073  0.00  0.00    +0.086 A 
ATOM      2  C   UNL     1       3.767   5.680  -5.249  0.00  0.00    +0.091 A 
ATOM      3  C   UNL     1       3.535   5.293  -3.869  0.00  0.00    -0.025 A 
ATOM      4  C   UNL     1       2.241   5.092  -3.535  0.00  0.00    -0.021 A 
ATOM      5  S   UNL     1       1.335   5.411  -5.021  0.00  0.00    -0.079 S 
ATOM      6  C   UNL     1       1.723   4.687  -2.190  0.00  0.00    -0.035 C 
ATOM      7  C   UNL     1       3.982   5.141  -1.440  0.00  0.00    -0.073 C 
ATOM      8  C   UNL     1       4.632   5.111  -2.826  0.00  0.00    +0.018 C 
ATOM      9  N   UNL     1       2.867   4.171  -1.400  0.00  0.00    +0.386 N 
ATOM     10  H   UNL     1       3.182   3.283  -1.808  0.00  0.00    -0.081 HD
ENDROOT
BRANCH   1  13
ATOM     11  C   UNL     1       1.428   6.227  -8.054  0.00  0.00    +0.239 C 
ATOM     12  O   UNL     1       0.401   5.980  -7.458  0.00  0.00    -0.274 OA
ATOM     13  N   UNL     1       2.612   6.157  -7.413  0.00  0.00    -0.278 N 
ATOM     14  H   UNL     1       3.433   6.355  -7.889  0.00  0.00    +0.155 HD
BRANCH  11  15
ATOM     15  C   UNL     1       1.381   6.611  -9.510  0.00  0.00    +0.267 C 
BRANCH  15  16
ATOM     16  S   UNL     1      -0.341   6.615 -10.079  0.00  0.00    +0.005 S 
ATOM     17  O   UNL     1      -0.857   5.291 -10.088  0.00  0.00    -0.169 OA
ATOM     18  O   UNL     1      -1.061   7.668  -9.454  0.00  0.00    -0.169 OA
BRANCH  16  23
ATOM     19  C   UNL     1      -0.049   8.190 -15.896  0.00  0.00    +0.044 C 
ATOM     20  C   UNL     1      -0.122   7.797 -14.444  0.00  0.00    -0.050 A 
ATOM     21  C   UNL     1      -0.056   6.464 -14.084  0.00  0.00    +0.005 A 
ATOM     22  C   UNL     1      -0.123   6.103 -12.752  0.00  0.00    +0.027 A 
ATOM     23  C   UNL     1      -0.256   7.075 -11.778  0.00  0.00    +0.089 A 
ATOM     24  C   UNL     1      -0.327   8.408 -12.137  0.00  0.00    +0.027 A 
ATOM     25  C   UNL     1      -0.255   8.769 -13.470  0.00  0.00    +0.005 A 
ENDBRANCH  16  23
ENDBRANCH  15  16
ENDBRANCH  11  15
ENDBRANCH   1  13
BRANCH   2  26
ATOM     26  C   UNL     1       5.119   5.930  -5.752  0.00  0.00    +0.342 C 
ATOM     27  O   UNL     1       5.768   5.019  -6.231  0.00  0.00    -0.245 OA
BRANCH  26  28
ATOM     28  O   UNL     1       5.645   7.170  -5.684  0.00  0.00    -0.464 OA
ATOM     29  C   UNL     1       6.990   7.344  -6.202  0.00  0.00    +0.280 C 
ENDBRANCH  26  28
ENDBRANCH   2  26
BRANCH   9  30
ATOM     30  C   UNL     1       2.451   3.937  -0.001  0.00  0.00    -0.043 C 
BRANCH  30  31
ATOM     31  C   UNL     1       1.156   3.165   0.008  0.00  0.00    -0.064 A 
ATOM     32  C   UNL     1       1.175   1.783   0.000  0.00  0.00    +0.002 A 
ATOM     33  C   UNL     1      -0.013   1.076   0.008  0.00  0.00    +0.000 A 
ATOM     34  C   UNL     1      -1.219   1.751   0.017  0.00  0.00    +0.000 A 
ATOM     35  C   UNL     1      -1.238   3.133   0.030  0.00  0.00    +0.000 A 
ATOM     36  C   UNL     1      -0.050   3.840   0.023  0.00  0.00    +0.002 A 
ENDBRANCH  30  31
ENDBRANCH   9  30
TORSDOF 8
