REMARK  Name = ZINC59880963
REMARK  8 active torsions:
REMARK  status: ('A' for Active; 'I' for Inactive)
REMARK    1  A    between atoms: C_1  and  C_2
REMARK    2  A    between atoms: C_5  and  C_7
REMARK    3  A    between atoms: C_7  and  C_9
REMARK    4  A    between atoms: C_7  and  S_10
REMARK    5  A    between atoms: S_10  and  C_11
REMARK    6  A    between atoms: N_16  and  N_17
REMARK    7  A    between atoms: C_18  and  C_19
REMARK    8  A    between atoms: C_18  and  C_20
REMARK                            x       y       z     vdW  Elec       q    Type
REMARK                         _______ _______ _______ _____ _____    ______ ____
ROOT
ATOM      1  C   UNL     1       1.290  -5.811   1.918  0.00  0.00    +0.211 A 
ATOM      2  N   UNL     1       2.054  -6.906   1.830  0.00  0.00    -0.186 NA
ATOM      3  C   UNL     1       1.812  -7.698   2.854  0.00  0.00    +0.232 A 
ATOM      4  N   UNL     1       0.872  -7.108   3.624  0.00  0.00    -0.245 N 
ATOM      5  N   UNL     1       0.555  -5.890   3.002  0.00  0.00    -0.144 NA
ATOM      6  N   UNL     1       2.414  -8.918   3.097  0.00  0.00    -0.205 N 
ATOM      7  H   UNL     1       2.169  -9.432   3.882  0.00  0.00    +0.177 HD
ATOM      8  H   UNL     1       0.494  -7.457   4.446  0.00  0.00    +0.192 HD
ENDROOT
BRANCH   6   9
ATOM      9  N   UNL     1       3.380  -9.412   2.210  0.00  0.00    -0.184 NA
ATOM     10  C   UNL     1       3.945 -10.558   2.439  0.00  0.00    +0.063 C 
ATOM     11  C   UNL     1       3.563 -11.357   3.658  0.00  0.00    +0.068 C 
BRANCH  10  12
ATOM     12  C   UNL     1       4.961 -11.079   1.505  0.00  0.00    -0.002 A 
ATOM     13  C   UNL     1       5.567 -12.314   1.745  0.00  0.00    +0.011 A 
ATOM     14  C   UNL     1       6.516 -12.795   0.868  0.00  0.00    +0.016 A 
ATOM     15  C   UNL     1       6.869 -12.056  -0.249  0.00  0.00    +0.018 A 
ATOM     16  C   UNL     1       6.272 -10.831  -0.493  0.00  0.00    +0.016 A 
ATOM     17  C   UNL     1       5.317 -10.341   0.374  0.00  0.00    +0.011 A 
ATOM     18 BR   UNL     1       8.171 -12.723  -1.446  0.00  0.00    -0.050 Br
ENDBRANCH  10  12
ENDBRANCH   6   9
BRANCH   1  19
ATOM     19  S   UNL     1       1.278  -4.476   0.768  0.00  0.00    -0.072 S 
BRANCH  19  20
ATOM     20  C   UNL     1       0.055  -3.322   1.448  0.00  0.00    +0.139 C 
ATOM     21  C   UNL     1      -1.329  -3.974   1.423  0.00  0.00    +0.029 C 
BRANCH  20  26
ATOM     22  C   UNL     1      -0.018   1.503   0.010  0.00  0.00    +0.111 C 
ATOM     23  C   UNL     1       0.002  -0.004   0.002  0.00  0.00    +0.214 A 
ATOM     24  N   UNL     1       0.008  -0.769  -1.052  0.00  0.00    -0.113 NA
ATOM     25  N   UNL     1       0.027  -2.002  -0.685  0.00  0.00    -0.111 NA
ATOM     26  C   UNL     1       0.034  -2.066   0.616  0.00  0.00    +0.230 A 
ATOM     27  O   UNL     1       0.023  -0.805   1.081  0.00  0.00    -0.424 OA
ENDBRANCH  20  26
ENDBRANCH  19  20
ENDBRANCH   1  19
TORSDOF 5
