REMARK  Name = ZINC06733165
REMARK  5 active torsions:
REMARK  status: ('A' for Active; 'I' for Inactive)
REMARK    1  A    between atoms: C_4  and  C_7
REMARK    2  A    between atoms: C_13  and  S_17
REMARK    3  A    between atoms: S_17  and  N_20
REMARK    4  A    between atoms: N_20  and  C_21
REMARK    5  A    between atoms: C_21  and  C_22
REMARK                            x       y       z     vdW  Elec       q    Type
REMARK                         _______ _______ _______ _____ _____    ______ ____
ROOT
ATOM      1  C   UNL     1       2.311  -4.200  -3.280  0.00  0.00    +0.139 A 
ATOM      2  N   UNL     1       1.074  -4.145  -3.865  0.00  0.00    -0.338 N 
ATOM      3  H   UNL     1       0.600  -4.896  -4.324  0.00  0.00    +0.167 HD
ATOM      4  C   UNL     1       0.603  -2.857  -3.703  0.00  0.00    +0.067 A 
ATOM      5  C   UNL     1      -0.565  -2.204  -4.072  0.00  0.00    +0.030 A 
ATOM      6  C   UNL     1      -0.735  -0.874  -3.751  0.00  0.00    +0.030 A 
ATOM      7  C   UNL     1       0.253  -0.184  -3.061  0.00  0.00    +0.107 A 
ATOM      8  C   UNL     1       1.411  -0.808  -2.693  0.00  0.00    +0.058 A 
ATOM      9  C   UNL     1       1.604  -2.158  -3.004  0.00  0.00    +0.091 A 
ATOM     10  N   UNL     1       2.616  -3.030  -2.776  0.00  0.00    -0.228 NA
ENDROOT
BRANCH   1  14
ATOM     11  C   UNL     1       4.785  -7.650  -3.123  0.00  0.00    +0.000 A 
ATOM     12  C   UNL     1       5.218  -6.465  -2.554  0.00  0.00    +0.001 A 
ATOM     13  C   UNL     1       4.419  -5.342  -2.602  0.00  0.00    +0.011 A 
ATOM     14  C   UNL     1       3.172  -5.402  -3.226  0.00  0.00    +0.017 A 
ATOM     15  C   UNL     1       2.740  -6.601  -3.793  0.00  0.00    +0.011 A 
ATOM     16  C   UNL     1       3.550  -7.716  -3.744  0.00  0.00    +0.001 A 
ENDBRANCH   1  14
BRANCH   7  17
ATOM     17  S   UNL     1       0.013   1.515  -2.662  0.00  0.00    +0.059 S 
ATOM     18  O   UNL     1      -0.926   2.024  -3.599  0.00  0.00    -0.153 OA
ATOM     19  O   UNL     1       1.306   2.080  -2.496  0.00  0.00    -0.153 OA
BRANCH  17  20
ATOM     20  N   UNL     1      -0.721   1.571  -1.179  0.00  0.00    -0.186 NA
ATOM     21  H   UNL     1      -1.621   1.925  -1.096  0.00  0.00    +0.148 HD
BRANCH  20  22
ATOM     22  C   UNL     1      -0.013   1.086   0.008  0.00  0.00    +0.141 C 
BRANCH  22  23
ATOM     23  C   UNL     1      -0.718   1.572   1.248  0.00  0.00    -0.032 A 
ATOM     24  C   UNL     1      -0.359   2.779   1.818  0.00  0.00    +0.008 A 
ATOM     25  C   UNL     1      -1.009   3.228   2.953  0.00  0.00    +0.038 A 
ATOM     26  C   UNL     1      -2.012   2.463   3.524  0.00  0.00    +0.123 A 
ATOM     27  C   UNL     1      -2.367   1.252   2.955  0.00  0.00    +0.038 A 
ATOM     28  C   UNL     1      -1.719   0.807   1.817  0.00  0.00    +0.008 A 
ATOM     29  F   UNL     1      -2.644   2.899   4.635  0.00  0.00    -0.205 F 
ENDBRANCH  22  23
ENDBRANCH  20  22
ENDBRANCH  17  20
ENDBRANCH   7  17
TORSDOF 5
