REMARK  Name = ZINC23470061
REMARK  6 active torsions:
REMARK  status: ('A' for Active; 'I' for Inactive)
REMARK    1  A    between atoms: C_11  and  C_13
REMARK    2  A    between atoms: C_13  and  N_14
REMARK    3  A    between atoms: N_17  and  C_20
REMARK    4  A    between atoms: C_20  and  C_21
REMARK    5  A    between atoms: N_23  and  C_24
REMARK    6  A    between atoms: C_28  and  C_30
REMARK                            x       y       z     vdW  Elec       q    Type
REMARK                         _______ _______ _______ _____ _____    ______ ____
ROOT
ATOM      1  N   UNL     1       5.809   1.870  -1.667  0.00  0.00    -0.298 NA
ATOM      2  C   UNL     1       6.448   1.200  -2.809  0.00  0.00    +0.066 C 
ATOM      3  C   UNL     1       7.890   1.693  -2.944  0.00  0.00    -0.063 C 
ATOM      4  N   UNL     1       7.894   3.148  -3.143  0.00  0.00    +0.387 N 
ATOM      5  C   UNL     1       7.275   3.805  -1.984  0.00  0.00    -0.063 C 
ATOM      6  C   UNL     1       5.827   3.330  -1.841  0.00  0.00    +0.066 C 
ATOM      7  H   UNL     1       7.371   3.375  -3.977  0.00  0.00    -0.081 HD
ENDROOT
BRANCH   1   8
ATOM      8  C   UNL     1       4.438   1.381  -1.470  0.00  0.00    +0.180 C 
BRANCH   8  19
ATOM      9  C   UNL     1       3.467  -4.861  -0.172  0.00  0.00    +0.000 A 
ATOM     10  C   UNL     1       4.613  -4.189  -0.556  0.00  0.00    +0.002 A 
ATOM     11  C   UNL     1       4.562  -2.833  -0.814  0.00  0.00    +0.024 A 
ATOM     12  C   UNL     1       3.360  -2.146  -0.689  0.00  0.00    +0.039 A 
ATOM     13  C   UNL     1       2.211  -2.821  -0.308  0.00  0.00    -0.026 A 
ATOM     14  C   UNL     1       2.271  -4.180  -0.048  0.00  0.00    +0.005 A 
ATOM     15  C   UNL     1       0.890  -2.111  -0.172  0.00  0.00    +0.038 C 
ATOM     16  C   UNL     1       1.105  -0.608   0.003  0.00  0.00    +0.024 C 
ATOM     17  C   UNL     1       2.030  -0.105  -1.113  0.00  0.00    +0.114 C 
ATOM     18  N   UNL     1       3.331  -0.769  -0.951  0.00  0.00    -0.270 N 
ATOM     19  C   UNL     1       4.476  -0.067  -1.053  0.00  0.00    +0.234 C 
ATOM     20  O   UNL     1       5.538  -0.599  -0.809  0.00  0.00    -0.274 OA
ENDBRANCH   8  19
ENDBRANCH   1   8
BRANCH   4  21
ATOM     21  C   UNL     1       9.278   3.619  -3.291  0.00  0.00    +0.019 C 
BRANCH  21  22
ATOM     22  C   UNL     1       9.276   5.090  -3.618  0.00  0.00    +0.201 C 
ATOM     23  O   UNL     1       8.226   5.688  -3.718  0.00  0.00    -0.278 OA
ATOM     24  N   UNL     1      10.442   5.741  -3.799  0.00  0.00    -0.287 N 
ATOM     25  H   UNL     1      11.278   5.250  -3.792  0.00  0.00    +0.155 HD
BRANCH  24  26
ATOM     26  C   UNL     1      10.446   7.127  -3.996  0.00  0.00    +0.034 A 
ATOM     27  C   UNL     1       9.486   7.920  -3.381  0.00  0.00    +0.025 A 
ATOM     28  C   UNL     1       9.493   9.287  -3.577  0.00  0.00    +0.022 A 
ATOM     29  C   UNL     1      10.455   9.867  -4.386  0.00  0.00    +0.053 A 
ATOM     30  C   UNL     1      11.412   9.079  -5.000  0.00  0.00    +0.075 A 
ATOM     31  C   UNL     1      11.414   7.712  -4.802  0.00  0.00    +0.037 A 
ATOM     32 CL   UNL     1      10.459  11.585  -4.631  0.00  0.00    -0.083 Cl
BRANCH  30  33
ATOM     33  C   UNL     1      12.458   9.713  -5.880  0.00  0.00    +0.419 C 
ATOM     34  F   UNL     1      13.308   8.723  -6.383  0.00  0.00    -0.166 F 
ATOM     35  F   UNL     1      11.834  10.377  -6.942  0.00  0.00    -0.166 F 
ATOM     36  F   UNL     1      13.204  10.630  -5.131  0.00  0.00    -0.166 F 
ENDBRANCH  30  33
ENDBRANCH  24  26
ENDBRANCH  21  22
ENDBRANCH   4  21
TORSDOF 6
