REMARK  Name = ZINC51993458
REMARK  5 active torsions:
REMARK  status: ('A' for Active; 'I' for Inactive)
REMARK    1  A    between atoms: C_3  and  S_9
REMARK    2  A    between atoms: C_4  and  N_8
REMARK    3  A    between atoms: S_9  and  N_12
REMARK    4  A    between atoms: N_12  and  C_13
REMARK    5  A    between atoms: C_19  and  O_21
REMARK                            x       y       z     vdW  Elec       q    Type
REMARK                         _______ _______ _______ _____ _____    ______ ____
ROOT
ATOM      1  S   UNL     1       3.911   2.252   0.014  0.00  0.00    +0.060 S 
ATOM      2  O   UNL     1       4.779   1.655  -0.940  0.00  0.00    -0.153 OA
ATOM      3  O   UNL     1       3.433   3.584  -0.120  0.00  0.00    -0.153 OA
ENDROOT
BRANCH   1   6
ATOM      4  C   UNL     1       1.275  -0.718  -0.597  0.00  0.00    +0.022 A 
ATOM      5  C   UNL     1       2.389   0.097  -0.681  0.00  0.00    +0.032 A 
ATOM      6  C   UNL     1       2.490   1.215   0.122  0.00  0.00    +0.126 A 
ATOM      7  C   UNL     1       1.472   1.522   1.016  0.00  0.00    +0.053 A 
ATOM      8  C   UNL     1       0.354   0.702   1.099  0.00  0.00    +0.044 A 
ATOM      9  C   UNL     1       0.259  -0.416   0.292  0.00  0.00    +0.043 A 
ATOM     10 CL   UNL     1      -1.138  -1.442   0.394  0.00  0.00    -0.083 Cl
BRANCH   7  11
ATOM     11  N   UNL     1       1.572   2.652   1.830  0.00  0.00    -0.356 N 
ATOM     12  H   UNL     1       2.320   3.261   1.724  0.00  0.00    +0.142 HD
ATOM     13  H   UNL     1       0.895   2.828   2.502  0.00  0.00    +0.142 HD
ENDBRANCH   7  11
ENDBRANCH   1   6
BRANCH   1  14
ATOM     14  N   UNL     1       4.687   2.173   1.475  0.00  0.00    -0.184 NA
ATOM     15  H   UNL     1       4.755   2.965   2.032  0.00  0.00    +0.148 HD
BRANCH  14  16
ATOM     16  C   UNL     1       5.271   0.908   1.926  0.00  0.00    +0.105 C 
ATOM     17  C   UNL     1       4.293   0.201   2.866  0.00  0.00    +0.023 C 
ATOM     18  C   UNL     1       4.012   1.093   4.076  0.00  0.00    +0.002 C 
ATOM     19  C   UNL     1       5.320   1.372   4.819  0.00  0.00    +0.003 C 
ATOM     20  C   UNL     1       6.299   2.079   3.879  0.00  0.00    +0.033 C 
ATOM     21  C   UNL     1       6.580   1.187   2.669  0.00  0.00    +0.133 C 
BRANCH  21  22
ATOM     22  O   UNL     1       7.494   1.847   1.791  0.00  0.00    -0.390 OA
ATOM     23  H   UNL     1       8.347   2.055   2.196  0.00  0.00    +0.210 HD
ENDBRANCH  21  22
ENDBRANCH  14  16
ENDBRANCH   1  14
TORSDOF 5
