REMARK  Name = ZINC57530764
REMARK  8 active torsions:
REMARK  status: ('A' for Active; 'I' for Inactive)
REMARK    1  A    between atoms: C_1  and  S_2
REMARK    2  A    between atoms: S_2  and  C_3
REMARK    3  A    between atoms: C_7  and  N_9
REMARK    4  A    between atoms: C_10  and  C_12
REMARK    5  A    between atoms: C_17  and  N_18
REMARK    6  A    between atoms: N_18  and  S_19
REMARK    7  A    between atoms: S_19  and  C_22
REMARK    8  A    between atoms: C_26  and  N_28
REMARK                            x       y       z     vdW  Elec       q    Type
REMARK                         _______ _______ _______ _____ _____    ______ ____
ROOT
ATOM      1  C   UNL     1      -5.465  -5.249   0.256  0.00  0.00    +0.061 A 
ATOM      2  C   UNL     1      -4.485  -6.245   0.253  0.00  0.00    +0.015 A 
ATOM      3  C   UNL     1      -4.850  -7.569   0.359  0.00  0.00    +0.001 A 
ATOM      4  C   UNL     1      -6.186  -7.920   0.469  0.00  0.00    +0.002 A 
ATOM      5  C   UNL     1      -7.166  -6.949   0.473  0.00  0.00    +0.027 A 
ATOM      6  C   UNL     1      -6.817  -5.608   0.373  0.00  0.00    +0.086 A 
ENDROOT
BRANCH   1   8
ATOM      7  N   UNL     1      -3.782  -3.490   0.030  0.00  0.00    -0.281 N 
ATOM      8  C   UNL     1      -5.082  -3.830   0.143  0.00  0.00    +0.250 C 
ATOM      9  O   UNL     1      -5.938  -2.966   0.151  0.00  0.00    -0.270 OA
ATOM     10  H   UNL     1      -3.106  -4.180  -0.053  0.00  0.00    +0.155 HD
BRANCH   7  15
ATOM     11  C   UNL     1      -3.753   0.112   0.791  0.00  0.00    +0.009 A 
ATOM     12  C   UNL     1      -2.662   0.527   0.035  0.00  0.00    +0.015 A 
ATOM     13  C   UNL     1      -1.951  -0.388  -0.715  0.00  0.00    +0.003 A 
ATOM     14  C   UNL     1      -2.321  -1.720  -0.719  0.00  0.00    +0.023 A 
ATOM     15  C   UNL     1      -3.409  -2.142   0.034  0.00  0.00    +0.035 A 
ATOM     16  C   UNL     1      -4.123  -1.226   0.794  0.00  0.00    +0.038 A 
BRANCH  11  18
ATOM     17  C   UNL     1      -3.819   2.856   1.429  0.00  0.00    +0.090 C 
ATOM     18  S   UNL     1      -4.659   1.280   1.749  0.00  0.00    -0.129 S 
ENDBRANCH  11  18
ENDBRANCH   7  15
ENDBRANCH   1   8
BRANCH   6  19
ATOM     19  N   UNL     1      -7.801  -4.628   0.383  0.00  0.00    -0.097 NA
BRANCH  19  20
ATOM     20  S   UNL     1      -9.395  -5.056   0.522  0.00  0.00    +0.092 S 
ATOM     21  O   UNL     1      -9.729  -5.767  -0.663  0.00  0.00    -0.148 OA
ATOM     22  O   UNL     1      -9.553  -5.618   1.817  0.00  0.00    -0.148 OA
BRANCH  20  23
ATOM     23  C   UNL     1     -10.338  -3.568   0.499  0.00  0.00    +0.113 A 
ATOM     24  C   UNL     1     -10.619  -2.909   1.681  0.00  0.00    +0.029 A 
ATOM     25  C   UNL     1     -11.359  -1.742   1.663  0.00  0.00    +0.004 A 
ATOM     26  C   UNL     1     -11.818  -1.233   0.462  0.00  0.00    +0.033 A 
ATOM     27  C   UNL     1     -11.536  -1.891  -0.720  0.00  0.00    +0.128 A 
ATOM     28  C   UNL     1     -10.792  -3.057  -0.702  0.00  0.00    +0.061 A 
BRANCH  27  29
ATOM     29  N   UNL     1     -12.028  -1.346  -2.006  0.00  0.00    +0.056 N 
ATOM     30  O   UNL     1     -12.676  -0.326  -2.021  0.00  0.00    -0.126 OA
ATOM     31  O   UNL     1     -11.781  -1.922  -3.040  0.00  0.00    -0.126 OA
ENDBRANCH  27  29
ENDBRANCH  20  23
ENDBRANCH  19  20
ENDBRANCH   6  19
TORSDOF 7
