REMARK  Name = ZINC01839847
REMARK  15 active torsions:
REMARK  status: ('A' for Active; 'I' for Inactive)
REMARK    1  A    between atoms: C_1  and  C_2
REMARK    2  A    between atoms: C_2  and  C_3
REMARK    3  A    between atoms: C_2  and  C_4
REMARK    4  A    between atoms: C_4  and  C_5
REMARK    5  A    between atoms: C_5  and  O_6
REMARK    6  A    between atoms: O_6  and  C_7
REMARK    7  A    between atoms: C_10  and  C_13
REMARK    8  A    between atoms: C_13  and  N_14
REMARK    9  A    between atoms: C_15  and  C_17
REMARK   10  A    between atoms: C_17  and  C_18
REMARK   11  A    between atoms: C_18  and  S_19
REMARK   12  A    between atoms: S_19  and  C_20
REMARK   13  A    between atoms: C_29  and  C_31
REMARK   14  A    between atoms: C_29  and  C_32
REMARK   15  A    between atoms: N_35  and  C_36
REMARK                            x       y       z     vdW  Elec       q    Type
REMARK                         _______ _______ _______ _____ _____    ______ ____
ROOT
ATOM      1  C   UNL     1      -1.107   3.057   0.710  0.00  0.00    +0.177 A 
ATOM      2  N   UNL     1       0.007   3.760   0.724  0.00  0.00    -0.216 NA
ATOM      3  C   UNL     1       1.084   3.343   0.069  0.00  0.00    +0.117 A 
ATOM      4  C   UNL     1       1.096   2.144  -0.666  0.00  0.00    +0.076 A 
ATOM      5  C   UNL     1       2.355   1.819  -1.332  0.00  0.00    -0.018 A 
ATOM      6  C   UNL     1       3.374   2.692  -1.180  0.00  0.00    +0.021 A 
ATOM      7  S   UNL     1       2.726   3.981  -0.154  0.00  0.00    -0.071 S 
ATOM      8  C   UNL     1       4.746   2.564  -1.766  0.00  0.00    +0.203 C 
ATOM      9  O   UNL     1       4.897   1.219  -2.247  0.00  0.00    -0.368 OA
ATOM     10  C   UNL     1       3.799   0.774  -3.049  0.00  0.00    +0.068 C 
ATOM     11  C   UNL     1       2.559   0.563  -2.175  0.00  0.00    +0.071 C 
ATOM     12  C   UNL     1       3.493   1.825  -4.118  0.00  0.00    +0.041 C 
ATOM     13  C   UNL     1       4.169  -0.547  -3.727  0.00  0.00    +0.041 C 
ATOM     14  C   UNL     1      -0.127   1.400  -0.662  0.00  0.00    +0.268 A 
ATOM     15  O   UNL     1      -0.211   0.348  -1.272  0.00  0.00    -0.267 OA
ATOM     16  N   UNL     1      -1.184   1.881   0.018  0.00  0.00    -0.255 N 
ENDROOT
BRANCH  16  17
ATOM     17  C   UNL     1      -2.385   1.160   0.020  0.00  0.00    +0.052 A 
ATOM     18  C   UNL     1      -3.343   1.402  -0.956  0.00  0.00    +0.026 A 
ATOM     19  C   UNL     1      -4.524   0.686  -0.954  0.00  0.00    +0.002 A 
ATOM     20  C   UNL     1      -4.758  -0.264   0.024  0.00  0.00    +0.000 A 
ATOM     21  C   UNL     1      -3.808  -0.503   0.999  0.00  0.00    +0.002 A 
ATOM     22  C   UNL     1      -2.622   0.205   1.000  0.00  0.00    +0.026 A 
ENDBRANCH  16  17
BRANCH   1  23
ATOM     23  S   UNL     1      -2.516   3.641   1.592  0.00  0.00    -0.087 S 
BRANCH  23  24
ATOM     24  C   UNL     1      -1.843   5.176   2.276  0.00  0.00    +0.086 C 
BRANCH  24  25
ATOM     25  C   UNL     1      -2.920   5.879   3.106  0.00  0.00    +0.107 C 
BRANCH  25  27
ATOM     26  N   UNL     1      -3.134   7.947   4.446  0.00  0.00    -0.311 N 
ATOM     27  C   UNL     1      -2.360   7.157   3.676  0.00  0.00    +0.214 C 
ATOM     28  O   UNL     1      -1.213   7.474   3.442  0.00  0.00    -0.276 OA
ATOM     29  H   UNL     1      -4.174   7.659   4.659  0.00  0.00    +0.149 HD
BRANCH  26  30
ATOM     30  C   UNL     1      -2.590   9.189   5.000  0.00  0.00    +0.139 C 
BRANCH  30  34
ATOM     31  C   UNL     1      -5.597  11.152   7.317  0.00  0.00    +0.121 A 
ATOM     32  C   UNL     1      -4.744  10.238   7.918  0.00  0.00    +0.046 A 
ATOM     33  C   UNL     1      -3.773   9.604   7.166  0.00  0.00    +0.009 A 
ATOM     34  C   UNL     1      -3.650   9.882   5.817  0.00  0.00    -0.030 A 
ATOM     35  C   UNL     1      -4.496  10.797   5.218  0.00  0.00    +0.009 A 
ATOM     36  C   UNL     1      -5.472  11.429   5.963  0.00  0.00    +0.046 A 
BRANCH  31  37
ATOM     37  O   UNL     1      -6.553  11.776   8.054  0.00  0.00    -0.492 OA
BRANCH  37  38
ATOM     38  C   UNL     1      -7.396  12.706   7.370  0.00  0.00    +0.229 C 
BRANCH  38  39
ATOM     39  C   UNL     1      -8.402  13.303   8.355  0.00  0.00    +0.044 C 
BRANCH  39  41
ATOM     40  C   UNL     1     -10.147  13.554   6.584  0.00  0.00    +0.007 C 
ATOM     41  C   UNL     1      -9.305  14.298   7.622  0.00  0.00    -0.014 C 
ATOM     42  C   UNL     1     -10.228  14.986   8.630  0.00  0.00    +0.007 C 
ENDBRANCH  39  41
ENDBRANCH  38  39
ENDBRANCH  37  38
ENDBRANCH  31  37
ENDBRANCH  30  34
ENDBRANCH  26  30
ENDBRANCH  25  27
ENDBRANCH  24  25
ENDBRANCH  23  24
ENDBRANCH   1  23
TORSDOF 11
