REMARK  Name = ZINC21731668
REMARK  6 active torsions:
REMARK  status: ('A' for Active; 'I' for Inactive)
REMARK    1  A    between atoms: C_6  and  C_7
REMARK    2  A    between atoms: C_7  and  N_8
REMARK    3  A    between atoms: C_12  and  S_14
REMARK    4  A    between atoms: S_14  and  C_15
REMARK    5  A    between atoms: C_15  and  C_16
REMARK    6  A    between atoms: C_22  and  C_27
REMARK                            x       y       z     vdW  Elec       q    Type
REMARK                         _______ _______ _______ _____ _____    ______ ____
ROOT
ATOM      1  C   UNL     1      -8.658  -5.126  -2.663  0.00  0.00    +0.121 A 
ATOM      2  N   UNL     1      -9.594  -5.678  -1.849  0.00  0.00    -0.310 N 
ATOM      3  H   UNL     1      -9.485  -5.613  -0.887  0.00  0.00    +0.170 HD
ATOM      4  C   UNL     1     -10.669  -6.314  -2.349  0.00  0.00    +0.260 A 
ATOM      5  O   UNL     1     -11.500  -6.804  -1.605  0.00  0.00    -0.267 OA
ATOM      6  C   UNL     1     -10.822  -6.404  -3.770  0.00  0.00    +0.080 A 
ATOM      7  C   UNL     1     -11.886  -7.032  -4.545  0.00  0.00    +0.004 A 
ATOM      8  C   UNL     1     -11.818  -6.991  -5.897  0.00  0.00    +0.056 A 
ATOM      9  S   UNL     1     -10.306  -6.099  -6.207  0.00  0.00    -0.076 S 
ATOM     10  C   UNL     1      -9.806  -5.804  -4.531  0.00  0.00    +0.116 A 
ATOM     11  N   UNL     1      -8.773  -5.188  -3.962  0.00  0.00    -0.226 NA
ENDROOT
BRANCH   7  12
ATOM     12  C   UNL     1     -13.020  -7.702  -3.865  0.00  0.00    -0.016 A 
ATOM     13  C   UNL     1     -12.780  -8.630  -2.853  0.00  0.00    +0.011 A 
ATOM     14  C   UNL     1     -13.839  -9.251  -2.223  0.00  0.00    +0.039 A 
ATOM     15  C   UNL     1     -15.140  -8.955  -2.596  0.00  0.00    +0.123 A 
ATOM     16  C   UNL     1     -15.384  -8.034  -3.603  0.00  0.00    +0.039 A 
ATOM     17  C   UNL     1     -14.331  -7.403  -4.234  0.00  0.00    +0.011 A 
ATOM     18  F   UNL     1     -16.174  -9.566  -1.978  0.00  0.00    -0.205 F 
ENDBRANCH   7  12
BRANCH   1  19
ATOM     19  C   UNL     1      -7.471  -4.423  -2.057  0.00  0.00    +0.150 C 
BRANCH  19  20
ATOM     20  S   UNL     1      -6.406  -3.785  -3.380  0.00  0.00    -0.089 S 
BRANCH  20  25
ATOM     21  N   UNL     1      -1.726  -1.017  -1.368  0.00  0.00    -0.318 N 
ATOM     22  C   UNL     1      -2.903  -1.714  -1.615  0.00  0.00    +0.183 A 
ATOM     23  N   UNL     1      -3.764  -2.229  -0.759  0.00  0.00    -0.125 NA
ATOM     24  N   UNL     1      -4.879  -2.889  -1.222  0.00  0.00    -0.133 NA
ATOM     25  C   UNL     1      -5.081  -3.002  -2.521  0.00  0.00    +0.160 A 
ATOM     26  S   UNL     1      -3.657  -2.146  -3.175  0.00  0.00    -0.025 S 
ATOM     27  H   UNL     1      -1.191  -0.691  -2.109  0.00  0.00    +0.148 HD
BRANCH  21  28
ATOM     28  C   UNL     1      -1.293  -0.775   0.010  0.00  0.00    +0.138 C 
BRANCH  28  34
ATOM     29  C   UNL     1      -0.017   1.378   0.010  0.00  0.00    +0.008 A 
ATOM     30  C   UNL     1       1.170   2.086   0.002  0.00  0.00    +0.038 A 
ATOM     31  C   UNL     1       2.379   1.410  -0.013  0.00  0.00    +0.123 A 
ATOM     32  C   UNL     1       2.396   0.026  -0.021  0.00  0.00    +0.038 A 
ATOM     33  C   UNL     1       1.208  -0.680  -0.013  0.00  0.00    +0.008 A 
ATOM     34  C   UNL     1       0.002  -0.004   0.002  0.00  0.00    -0.030 A 
ATOM     35  F   UNL     1       3.540   2.101  -0.021  0.00  0.00    -0.205 F 
ENDBRANCH  28  34
ENDBRANCH  21  28
ENDBRANCH  20  25
ENDBRANCH  19  20
ENDBRANCH   1  19
TORSDOF 6
