REMARK  Name = ZINC35763501
REMARK  4 active torsions:
REMARK  status: ('A' for Active; 'I' for Inactive)
REMARK    1  A    between atoms: C_4  and  N_17
REMARK    2  A    between atoms: C_6  and  S_7
REMARK    3  A    between atoms: S_7  and  N_10
REMARK    4  A    between atoms: N_10  and  C_11
REMARK                            x       y       z     vdW  Elec       q    Type
REMARK                         _______ _______ _______ _____ _____    ______ ____
ROOT
ATOM      1  S   UNL     1      -1.513  -0.904   0.012  0.00  0.00    +0.072 S 
ATOM      2  O   UNL     1      -1.220  -2.185   0.553  0.00  0.00    -0.150 OA
ATOM      3  O   UNL     1      -2.493  -0.044   0.577  0.00  0.00    -0.150 OA
ENDROOT
BRANCH   1   9
ATOM      4  C   UNL     1      -0.017   1.378   0.010  0.00  0.00    +0.032 A 
ATOM      5  C   UNL     1       1.170   2.089   0.002  0.00  0.00    +0.042 A 
ATOM      6  C   UNL     1       2.379   1.419  -0.013  0.00  0.00    +0.144 A 
ATOM      7  C   UNL     1       2.400   0.028  -0.021  0.00  0.00    +0.062 A 
ATOM      8  C   UNL     1       1.207  -0.681  -0.013  0.00  0.00    +0.054 A 
ATOM      9  C   UNL     1       0.002  -0.004   0.002  0.00  0.00    +0.110 A 
ATOM     10  F   UNL     1       3.537   2.113  -0.022  0.00  0.00    -0.204 F 
BRANCH   7  11
ATOM     11  N   UNL     1       3.620  -0.654  -0.037  0.00  0.00    -0.356 N 
ATOM     12  H   UNL     1       4.454  -0.158  -0.043  0.00  0.00    +0.142 HD
ATOM     13  H   UNL     1       3.634  -1.624  -0.043  0.00  0.00    +0.142 HD
ENDBRANCH   7  11
ENDBRANCH   1   9
BRANCH   1  14
ATOM     14  N   UNL     1      -1.949  -1.146  -1.567  0.00  0.00    -0.213 N 
ATOM     15  H   UNL     1      -2.756  -0.736  -1.916  0.00  0.00    +0.174 HD
BRANCH  14  16
ATOM     16  C   UNL     1      -1.148  -1.946  -2.404  0.00  0.00    +0.085 A 
ATOM     17  C   UNL     1      -0.771  -1.648  -3.674  0.00  0.00    +0.129 A 
ATOM     18  N   UNL     1      -0.007  -2.677  -4.127  0.00  0.00    -0.283 N 
ATOM     19  H   UNL     1       0.403  -2.740  -5.004  0.00  0.00    +0.188 HD
ATOM     20  N   UNL     1       0.085  -3.628  -3.103  0.00  0.00    -0.180 NA
ATOM     21  C   UNL     1      -0.592  -3.190  -2.072  0.00  0.00    +0.158 A 
ENDBRANCH  14  16
ENDBRANCH   1  14
TORSDOF 4
