REMARK  Name = ZINC20150939
REMARK  6 active torsions:
REMARK  status: ('A' for Active; 'I' for Inactive)
REMARK    1  A    between atoms: C_3  and  C_9
REMARK    2  A    between atoms: C_12  and  C_14
REMARK    3  A    between atoms: C_15  and  C_16
REMARK    4  A    between atoms: N_18  and  C_19
REMARK    5  A    between atoms: C_22  and  C_25
REMARK    6  A    between atoms: C_25  and  C_26
REMARK                            x       y       z     vdW  Elec       q    Type
REMARK                         _______ _______ _______ _____ _____    ______ ____
ROOT
ATOM      1  C   UNL     1       5.873   4.675  -1.240  0.00  0.00    +0.051 C 
ATOM      2  C   UNL     1       5.261   5.333  -2.258  0.00  0.00    +0.071 C 
ENDROOT
BRANCH   1   6
ATOM      3  C   UNL     1       3.665   2.145  -0.040  0.00  0.00    +0.137 A 
ATOM      4  C   UNL     1       4.731   1.933   0.805  0.00  0.00    +0.050 A 
ATOM      5  C   UNL     1       5.713   2.866   0.464  0.00  0.00    +0.050 A 
ATOM      6  C   UNL     1       5.208   3.615  -0.582  0.00  0.00    +0.129 A 
ATOM      7  O   UNL     1       3.972   3.156  -0.871  0.00  0.00    -0.455 OA
BRANCH   3  10
ATOM      8  C   UNL     1      -0.002   1.342  -0.026  0.00  0.00    +0.002 A 
ATOM      9  C   UNL     1       1.176   2.058  -0.027  0.00  0.00    +0.013 A 
ATOM     10  C   UNL     1       2.400   1.384  -0.038  0.00  0.00    +0.037 A 
ATOM     11  C   UNL     1       2.421  -0.013  -0.049  0.00  0.00    +0.070 A 
ATOM     12  C   UNL     1       1.232  -0.718  -0.048  0.00  0.00    +0.060 A 
ATOM     13  C   UNL     1       0.024  -0.042  -0.036  0.00  0.00    +0.021 A 
ATOM     14 CL   UNL     1       1.254  -2.454  -0.062  0.00  0.00    -0.082 Cl
ATOM     15 CL   UNL     1       3.935  -0.862  -0.065  0.00  0.00    -0.081 Cl
ENDBRANCH   3  10
ENDBRANCH   1   6
BRANCH   2  16
ATOM     16  C   UNL     1       5.926   6.393  -2.916  0.00  0.00    +0.241 C 
ATOM     17  O   UNL     1       7.048   6.717  -2.569  0.00  0.00    -0.270 OA
ATOM     18  N   UNL     1       5.319   7.046  -3.926  0.00  0.00    -0.282 N 
ATOM     19  H   UNL     1       4.454   6.746  -4.247  0.00  0.00    +0.155 HD
BRANCH  18  20
ATOM     20  C   UNL     1       5.935   8.156  -4.512  0.00  0.00    +0.034 A 
ATOM     21  C   UNL     1       7.317   8.192  -4.651  0.00  0.00    +0.023 A 
ATOM     22  C   UNL     1       7.923   9.289  -5.230  0.00  0.00    +0.006 A 
ATOM     23  C   UNL     1       7.155  10.352  -5.671  0.00  0.00    -0.037 A 
ATOM     24  C   UNL     1       5.780  10.319  -5.534  0.00  0.00    +0.006 A 
ATOM     25  C   UNL     1       5.167   9.222  -4.962  0.00  0.00    +0.023 A 
BRANCH  23  26
ATOM     26  C   UNL     1       7.820  11.548  -6.302  0.00  0.00    +0.160 C 
BRANCH  26  27
ATOM     27  C   UNL     1       7.929  11.335  -7.790  0.00  0.00    +0.360 C 
ATOM     28  O   UNL     1       7.507  10.308  -8.292  0.00  0.00    -0.246 OA
ATOM     29  O   UNL     1       8.440  12.191  -8.492  0.00  0.00    -0.246 OA
ENDBRANCH  26  27
ENDBRANCH  23  26
ENDBRANCH  18  20
ENDBRANCH   2  16
TORSDOF 6
