REMARK  Name = ZINC00922600
REMARK  10 active torsions:
REMARK  status: ('A' for Active; 'I' for Inactive)
REMARK    1  A    between atoms: C_1  and  C_2
REMARK    2  A    between atoms: C_3  and  C_29
REMARK    3  A    between atoms: C_9  and  C_12
REMARK    4  A    between atoms: C_12  and  N_13
REMARK    5  A    between atoms: N_13  and  S_14
REMARK    6  A    between atoms: S_14  and  C_17
REMARK    7  A    between atoms: C_20  and  S_23
REMARK    8  A    between atoms: S_23  and  N_26
REMARK    9  A    between atoms: N_26  and  C_27
REMARK   10  A    between atoms: N_26  and  C_28
REMARK                            x       y       z     vdW  Elec       q    Type
REMARK                         _______ _______ _______ _____ _____    ______ ____
ROOT
ATOM      1  N   UNL     1      -2.383   2.672   6.435  0.00  0.00    -0.186 NA
ATOM      2  H   UNL     1      -2.734   1.996   7.035  0.00  0.00    +0.148 HD
ENDROOT
BRANCH   1   3
ATOM      3  S   UNL     1      -3.263   3.142   5.112  0.00  0.00    +0.059 S 
ATOM      4  O   UNL     1      -3.281   4.563   5.121  0.00  0.00    -0.153 OA
ATOM      5  O   UNL     1      -4.452   2.365   5.119  0.00  0.00    -0.153 OA
BRANCH   3   6
ATOM      6  C   UNL     1      -2.353   2.659   3.683  0.00  0.00    +0.105 A 
ATOM      7  C   UNL     1      -2.559   1.412   3.121  0.00  0.00    +0.030 A 
ATOM      8  C   UNL     1      -1.846   1.033   2.000  0.00  0.00    +0.030 A 
ATOM      9  C   UNL     1      -0.927   1.900   1.439  0.00  0.00    +0.106 A 
ATOM     10  C   UNL     1      -0.717   3.145   2.004  0.00  0.00    +0.030 A 
ATOM     11  C   UNL     1      -1.434   3.526   3.123  0.00  0.00    +0.030 A 
BRANCH   9  12
ATOM     12  S   UNL     1      -0.017   1.417   0.010  0.00  0.00    +0.060 S 
ATOM     13  O   UNL     1       0.002  -0.004   0.002  0.00  0.00    -0.153 OA
ATOM     14  O   UNL     1       1.172   2.195   0.003  0.00  0.00    -0.153 OA
BRANCH  12  15
ATOM     15  N   UNL     1      -0.897   1.885  -1.312  0.00  0.00    -0.183 NA
ATOM     16  C   UNL     1      -0.691   3.213  -1.897  0.00  0.00    +0.131 C 
ATOM     17  C   UNL     1      -1.883   0.973  -1.897  0.00  0.00    +0.131 C 
ENDBRANCH  12  15
ENDBRANCH   9  12
ENDBRANCH   3   6
ENDBRANCH   1   3
BRANCH   1  18
ATOM     18  C   UNL     1      -1.075   3.278   6.697  0.00  0.00    +0.141 C 
BRANCH  18  27
ATOM     19  C   UNL     1       1.819  -0.722   9.602  0.00  0.00    +0.046 C 
ATOM     20  C   UNL     1       1.219   0.469  10.305  0.00  0.00    -0.022 A 
ATOM     21  C   UNL     1       1.278   0.734  11.619  0.00  0.00    +0.017 A 
ATOM     22  N   UNL     1       0.620   1.903  11.890  0.00  0.00    -0.358 N 
ATOM     23  H   UNL     1       0.527   2.299  12.770  0.00  0.00    +0.166 HD
ATOM     24  C   UNL     1       0.107   2.431  10.726  0.00  0.00    +0.047 A 
ATOM     25  C   UNL     1       0.460   1.556   9.682  0.00  0.00    +0.003 A 
ATOM     26  C   UNL     1       0.070   1.842   8.373  0.00  0.00    +0.015 A 
ATOM     27  C   UNL     1      -0.654   2.971   8.111  0.00  0.00    -0.031 A 
ATOM     28  C   UNL     1      -1.000   3.840   9.137  0.00  0.00    +0.007 A 
ATOM     29  C   UNL     1      -0.630   3.575  10.437  0.00  0.00    +0.026 A 
ATOM     30  C   UNL     1       1.969  -0.127  12.645  0.00  0.00    +0.063 C 
ENDBRANCH  18  27
ENDBRANCH   1  18
TORSDOF 6
