REMARK  Name = ZINC12867078
REMARK  15 active torsions:
REMARK  status: ('A' for Active; 'I' for Inactive)
REMARK    1  A    between atoms: C_1  and  C_2
REMARK    2  A    between atoms: C_2  and  C_3
REMARK    3  A    between atoms: C_3  and  C_4
REMARK    4  A    between atoms: C_4  and  N_5
REMARK    5  A    between atoms: C_6  and  N_40
REMARK    6  A    between atoms: C_7  and  N_14
REMARK    7  A    between atoms: N_14  and  C_15
REMARK    8  A    between atoms: C_15  and  C_16
REMARK    9  A    between atoms: C_16  and  C_17
REMARK   10  A    between atoms: C_16  and  C_18
REMARK   11  A    between atoms: C_19  and  C_21
REMARK   12  A    between atoms: C_24  and  S_27
REMARK   13  A    between atoms: S_27  and  N_30
REMARK   14  A    between atoms: C_32  and  C_39
REMARK   15  A    between atoms: C_35  and  C_38
REMARK                            x       y       z     vdW  Elec       q    Type
REMARK                         _______ _______ _______ _____ _____    ______ ____
ROOT
ATOM      1  N   UNL     1      -0.337  -2.937  -2.699  0.00  0.00    -0.260 N 
ATOM      2  C   UNL     1       0.080  -2.355  -3.840  0.00  0.00    +0.251 C 
ATOM      3  O   UNL     1       0.702  -3.002  -4.661  0.00  0.00    -0.270 OA
ENDROOT
BRANCH   1   6
ATOM      4  N   UNL     1      -1.047  -1.271   0.497  0.00  0.00    -0.280 N 
ATOM      5  C   UNL     1      -0.402  -2.026  -0.454  0.00  0.00    +0.127 A 
ATOM      6  C   UNL     1      -0.971  -2.165  -1.704  0.00  0.00    +0.140 A 
ATOM      7  C   UNL     1      -2.193  -1.518  -1.970  0.00  0.00    +0.277 A 
ATOM      8  O   UNL     1      -2.715  -1.619  -3.067  0.00  0.00    -0.266 OA
ATOM      9  N   UNL     1      -2.781  -0.785  -1.004  0.00  0.00    -0.273 N 
ATOM     10  H   UNL     1      -3.648  -0.325  -1.191  0.00  0.00    +0.173 HD
ATOM     11  C   UNL     1      -2.214  -0.666   0.210  0.00  0.00    +0.331 A 
ATOM     12  O   UNL     1      -2.766   0.002   1.063  0.00  0.00    -0.246 OA
BRANCH   5  13
ATOM     13  N   UNL     1       0.793  -2.640  -0.163  0.00  0.00    -0.343 N 
ATOM     14  H   UNL     1       1.139  -2.621   0.743  0.00  0.00    +0.144 HD
ATOM     15  H   UNL     1       1.290  -3.092  -0.862  0.00  0.00    +0.144 HD
ENDBRANCH   5  13
BRANCH   4  16
ATOM     16  C   UNL     1      -0.457  -1.120   1.830  0.00  0.00    +0.128 C 
BRANCH  16  17
ATOM     17  C   UNL     1      -0.969  -2.235   2.744  0.00  0.00    +0.021 C 
BRANCH  17  19
ATOM     18  C   UNL     1      -0.864  -3.193   5.049  0.00  0.00    +0.004 C 
ATOM     19  C   UNL     1      -0.353  -2.078   4.135  0.00  0.00    -0.002 C 
ENDBRANCH  17  19
ENDBRANCH  16  17
ENDBRANCH   4  16
ENDBRANCH   1   6
BRANCH   2  20
ATOM     20  C   UNL     1      -0.217  -0.929  -4.094  0.00  0.00    +0.037 A 
ATOM     21  C   UNL     1      -0.403  -0.051  -3.025  0.00  0.00    +0.015 A 
ATOM     22  C   UNL     1      -0.676   1.280  -3.269  0.00  0.00    +0.029 A 
ATOM     23  C   UNL     1      -0.776   1.741  -4.570  0.00  0.00    +0.106 A 
ATOM     24  C   UNL     1      -0.599   0.875  -5.634  0.00  0.00    +0.029 A 
ATOM     25  C   UNL     1      -0.320  -0.457  -5.404  0.00  0.00    +0.015 A 
BRANCH  23  26
ATOM     26  S   UNL     1      -1.132   3.440  -4.872  0.00  0.00    +0.061 S 
ATOM     27  O   UNL     1      -0.715   4.154  -3.717  0.00  0.00    -0.153 OA
ATOM     28  O   UNL     1      -0.635   3.734  -6.170  0.00  0.00    -0.153 OA
BRANCH  26  29
ATOM     29  N   UNL     1      -2.779   3.589  -4.951  0.00  0.00    -0.172 NA
ATOM     30  C   UNL     1      -3.492   3.450  -6.231  0.00  0.00    +0.140 C 
ATOM     31  C   UNL     1      -4.639   2.446  -6.035  0.00  0.00    +0.131 C 
ATOM     32  O   UNL     1      -5.426   2.848  -4.911  0.00  0.00    -0.371 OA
ATOM     33  C   UNL     1      -4.716   2.851  -3.670  0.00  0.00    +0.131 C 
ATOM     34  C   UNL     1      -3.574   3.870  -3.745  0.00  0.00    +0.140 C 
ATOM     35  C   UNL     1      -4.142   1.457  -3.407  0.00  0.00    +0.039 C 
ATOM     36  C   UNL     1      -5.515   2.422  -7.290  0.00  0.00    +0.039 C 
ENDBRANCH  26  29
ENDBRANCH  23  26
ENDBRANCH   2  20
BRANCH   1  37
ATOM     37  C   UNL     1      -0.133  -4.373  -2.492  0.00  0.00    +0.117 C 
BRANCH  37  38
ATOM     38  C   UNL     1      -1.399  -5.132  -2.896  0.00  0.00    +0.001 C 
ATOM     39  C   UNL     1      -1.625  -4.983  -4.401  0.00  0.00    +0.009 C 
ATOM     40  C   UNL     1      -1.238  -6.613  -2.548  0.00  0.00    +0.009 C 
ENDBRANCH  37  38
ENDBRANCH   1  37
TORSDOF 10
