REMARK  Name = ZINC45486517
REMARK  12 active torsions:
REMARK  status: ('A' for Active; 'I' for Inactive)
REMARK    1  A    between atoms: C_1  and  C_2
REMARK    2  A    between atoms: C_7  and  C_9
REMARK    3  A    between atoms: C_7  and  C_10
REMARK    4  A    between atoms: N_13  and  C_17
REMARK    5  A    between atoms: C_17  and  C_18
REMARK    6  A    between atoms: C_18  and  O_20
REMARK    7  A    between atoms: O_20  and  C_21
REMARK    8  A    between atoms: C_21  and  C_23
REMARK    9  A    between atoms: C_21  and  C_24
REMARK   10  A    between atoms: N_29  and  C_30
REMARK   11  A    between atoms: C_30  and  C_31
REMARK   12  A    between atoms: C_30  and  C_32
REMARK                            x       y       z     vdW  Elec       q    Type
REMARK                         _______ _______ _______ _____ _____    ______ ____
ROOT
ATOM      1  C   UNL     1      -1.571  -4.131  -3.313  0.00  0.00    +0.238 C 
ENDROOT
BRANCH   1  13
ATOM      2  C   UNL     1      -0.019   1.528   0.010  0.00  0.00    +0.007 C 
ATOM      3  C   UNL     1       0.002  -0.004   0.002  0.00  0.00    -0.011 C 
ATOM      4  C   UNL     1       0.726  -0.492  -1.255  0.00  0.00    +0.038 C 
ATOM      5  C   UNL     1       0.711  -2.014  -1.298  0.00  0.00    +0.113 C 
ATOM      6  C   UNL     1       1.264  -2.646  -0.036  0.00  0.00    +0.041 C 
ATOM      7  C   UNL     1       0.787  -2.030   1.268  0.00  0.00    -0.032 C 
ATOM      8  C   UNL     1       0.764  -0.507   1.226  0.00  0.00    +0.009 C 
ATOM      9  C   UNL     1      -0.596  -2.567   1.647  0.00  0.00    +0.011 C 
ATOM     10  C   UNL     1       1.769  -2.455   2.382  0.00  0.00    +0.011 C 
ATOM     11  C   UNL     1      -0.665  -2.529  -1.638  0.00  0.00    +0.247 C 
ATOM     12  O   UNL     1      -1.716  -2.282  -1.086  0.00  0.00    -0.273 OA
ATOM     13  N   UNL     1      -0.504  -3.320  -2.721  0.00  0.00    -0.213 N 
ATOM     14  C   UNL     1       0.750  -3.268  -3.183  0.00  0.00    +0.310 C 
ATOM     15  O   UNL     1       1.137  -3.883  -4.158  0.00  0.00    -0.252 OA
ATOM     16  N   UNL     1       1.532  -2.462  -2.446  0.00  0.00    -0.285 N 
ATOM     17  H   UNL     1       2.452  -2.214  -2.618  0.00  0.00    +0.151 HD
ENDBRANCH   1  13
BRANCH   1  18
ATOM     18  C   UNL     1      -2.293  -3.324  -4.361  0.00  0.00    +0.326 C 
ATOM     19  O   UNL     1      -1.951  -2.188  -4.590  0.00  0.00    -0.249 OA
BRANCH  18  20
ATOM     20  O   UNL     1      -3.315  -3.868  -5.040  0.00  0.00    -0.451 OA
BRANCH  20  21
ATOM     21  C   UNL     1      -3.954  -3.045  -6.019  0.00  0.00    +0.259 C 
ATOM     22  C   UNL     1      -3.261  -3.230  -7.371  0.00  0.00    +0.062 C 
BRANCH  21  23
ATOM     23  C   UNL     1      -5.403  -3.441  -6.139  0.00  0.00    +0.261 C 
ATOM     24  O   UNL     1      -5.845  -4.338  -5.454  0.00  0.00    -0.271 OA
ATOM     25  N   UNL     1      -6.207  -2.797  -7.008  0.00  0.00    -0.237 N 
ATOM     26  C   UNL     1      -7.503  -3.150  -7.115  0.00  0.00    +0.306 C 
ATOM     27  O   UNL     1      -7.947  -4.049  -6.428  0.00  0.00    -0.252 OA
ATOM     28  N   UNL     1      -8.308  -2.506  -7.984  0.00  0.00    -0.297 N 
ATOM     29  H   UNL     1      -5.853  -2.079  -7.556  0.00  0.00    +0.159 HD
ATOM     30  H   UNL     1      -7.954  -1.788  -8.532  0.00  0.00    +0.151 HD
BRANCH  28  31
ATOM     31  C   UNL     1      -9.717  -2.890  -8.100  0.00  0.00    +0.068 C 
ATOM     32  C   UNL     1     -10.528  -1.702  -8.620  0.00  0.00    +0.027 C 
ATOM     33  C   UNL     1      -9.847  -4.062  -9.075  0.00  0.00    +0.027 C 
ENDBRANCH  28  31
ENDBRANCH  21  23
ENDBRANCH  20  21
ENDBRANCH  18  20
ENDBRANCH   1  18
TORSDOF 6
