REMARK  Name = ZINC39692403
REMARK  12 active torsions:
REMARK  status: ('A' for Active; 'I' for Inactive)
REMARK    1  A    between atoms: C_1  and  C_2
REMARK    2  A    between atoms: C_6  and  C_10
REMARK    3  A    between atoms: C_10  and  S_11
REMARK    4  A    between atoms: S_11  and  C_12
REMARK    5  A    between atoms: C_15  and  C_20
REMARK    6  A    between atoms: N_16  and  C_17
REMARK    7  A    between atoms: C_17  and  C_18
REMARK    8  A    between atoms: C_23  and  C_26
REMARK    9  A    between atoms: C_26  and  C_27
REMARK   10  A    between atoms: C_26  and  C_28
REMARK   11  A    between atoms: C_26  and  C_29
REMARK   12  A    between atoms: C_31  and  C_33
REMARK                            x       y       z     vdW  Elec       q    Type
REMARK                         _______ _______ _______ _____ _____    ______ ____
ROOT
ATOM      1  C   UNL     1      -0.021  -3.586  -7.435  0.00  0.00    +0.193 A 
ATOM      2  N   UNL     1       0.441  -4.817  -7.429  0.00  0.00    -0.122 NA
ATOM      3  N   UNL     1       0.381  -5.316  -8.612  0.00  0.00    -0.128 NA
ATOM      4  C   UNL     1      -0.122  -4.435  -9.445  0.00  0.00    +0.165 A 
ATOM      5  N   UNL     1      -0.400  -3.302  -8.716  0.00  0.00    -0.298 N 
ENDROOT
BRANCH   4   6
ATOM      6  C   UNL     1      -0.352  -4.627 -10.893  0.00  0.00    +0.019 A 
ATOM      7  C   UNL     1      -0.217  -3.552 -11.773  0.00  0.00    +0.012 A 
ATOM      8  C   UNL     1      -0.433  -3.738 -13.122  0.00  0.00    +0.005 A 
ATOM      9  C   UNL     1      -0.782  -4.986 -13.605  0.00  0.00    -0.042 A 
ATOM     10  C   UNL     1      -0.918  -6.056 -12.738  0.00  0.00    +0.005 A 
ATOM     11  C   UNL     1      -0.700  -5.885 -11.387  0.00  0.00    +0.012 A 
BRANCH   9  12
ATOM     12  C   UNL     1      -1.016  -5.182 -15.081  0.00  0.00    -0.013 C 
ATOM     13  C   UNL     1       0.258  -4.830 -15.850  0.00  0.00    +0.015 C 
ATOM     14  C   UNL     1      -1.387  -6.642 -15.349  0.00  0.00    +0.015 C 
ATOM     15  C   UNL     1      -2.158  -4.273 -15.541  0.00  0.00    +0.015 C 
ENDBRANCH   9  12
ENDBRANCH   4   6
BRANCH   1  16
ATOM     16  S   UNL     1      -0.135  -2.506  -6.048  0.00  0.00    -0.078 S 
BRANCH  16  17
ATOM     17  C   UNL     1       0.528  -3.486  -4.673  0.00  0.00    +0.151 C 
BRANCH  17  23
ATOM     18  C   UNL     1      -0.071   0.851   0.254  0.00  0.00    +0.041 C 
ATOM     19  C   UNL     1       0.432  -0.561   0.100  0.00  0.00    -0.034 C 
ATOM     20  C   UNL     1       0.414  -1.178  -1.091  0.00  0.00    +0.071 C 
ATOM     21  C   UNL     1       0.926  -2.563  -1.154  0.00  0.00    +0.112 C 
ATOM     22  N   UNL     1       0.934  -3.220  -2.290  0.00  0.00    -0.227 NA
ATOM     23  C   UNL     1       0.487  -2.668  -3.407  0.00  0.00    +0.134 C 
ATOM     24  N   UNL     1       0.011  -1.448  -3.471  0.00  0.00    -0.160 NA
ATOM     25  C   UNL     1      -0.067  -0.644  -2.406  0.00  0.00    +0.271 C 
ATOM     26  O   UNL     1      -0.515   0.485  -2.501  0.00  0.00    -0.268 OA
ATOM     27  S   UNL     1       1.420  -2.938   0.509  0.00  0.00    -0.086 S 
ATOM     28  C   UNL     1       0.979  -1.329   1.282  0.00  0.00    +0.192 C 
BRANCH  28  29
ATOM     29  C   UNL     1       2.199  -0.648   1.849  0.00  0.00    +0.373 C 
ATOM     30  O   UNL     1       2.315  -0.512   3.055  0.00  0.00    -0.245 OA
ATOM     31  O   UNL     1       3.069  -0.235   1.102  0.00  0.00    -0.245 OA
ENDBRANCH  28  29
ENDBRANCH  17  23
ENDBRANCH  16  17
ENDBRANCH   1  16
BRANCH   5  32
ATOM     32  C   UNL     1      -0.980  -2.051  -9.211  0.00  0.00    +0.152 C 
BRANCH  32  33
ATOM     33  C   UNL     1       0.123  -1.069  -9.509  0.00  0.00    -0.013 C 
ATOM     34  C   UNL     1       0.190  -0.496 -10.685  0.00  0.00    +0.005 C 
ENDBRANCH  32  33
ENDBRANCH   5  32
TORSDOF 8
