REMARK  Name = ZINC08160372
REMARK  9 active torsions:
REMARK  status: ('A' for Active; 'I' for Inactive)
REMARK    1  A    between atoms: C_1  and  C_2
REMARK    2  A    between atoms: C_5  and  O_9
REMARK    3  A    between atoms: C_6  and  C_8
REMARK    4  A    between atoms: O_9  and  C_10
REMARK    5  A    between atoms: C_10  and  C_11
REMARK    6  A    between atoms: N_13  and  C_14
REMARK    7  A    between atoms: C_17  and  O_20
REMARK    8  A    between atoms: O_20  and  C_21
REMARK    9  A    between atoms: C_21  and  C_22
REMARK                            x       y       z     vdW  Elec       q    Type
REMARK                         _______ _______ _______ _____ _____    ______ ____
ROOT
ATOM      1  C   UNL     1      -4.904   0.417  -0.557  0.00  0.00    +0.255 C 
ATOM      2  O   UNL     1      -5.935   0.059  -1.087  0.00  0.00    -0.272 OA
ATOM      3  N   UNL     1      -4.836   1.627   0.034  0.00  0.00    -0.283 N 
ATOM      4  H   UNL     1      -4.035   1.887   0.515  0.00  0.00    +0.155 HD
ENDROOT
BRANCH   3   5
ATOM      5  C   UNL     1      -5.922   2.508  -0.047  0.00  0.00    +0.034 A 
ATOM      6  C   UNL     1      -5.702   3.876  -0.130  0.00  0.00    +0.027 A 
ATOM      7  C   UNL     1      -6.772   4.744  -0.215  0.00  0.00    +0.047 A 
ATOM      8  C   UNL     1      -8.069   4.250  -0.206  0.00  0.00    +0.121 A 
ATOM      9  C   UNL     1      -8.290   2.883  -0.117  0.00  0.00    +0.047 A 
ATOM     10  C   UNL     1      -7.220   2.014  -0.037  0.00  0.00    +0.027 A 
BRANCH   8  11
ATOM     11  O   UNL     1      -9.123   5.105  -0.283  0.00  0.00    -0.489 OA
BRANCH  11  12
ATOM     12  C   UNL     1      -8.822   6.499  -0.373  0.00  0.00    +0.260 C 
BRANCH  12  13
ATOM     13  C   UNL     1     -10.124   7.298  -0.452  0.00  0.00    +0.156 C 
ATOM     14  C   UNL     1      -9.822   8.802  -0.636  0.00  0.00    +0.037 C 
ATOM     15  C   UNL     1     -10.908   9.509   0.206  0.00  0.00    +0.031 C 
ATOM     16  C   UNL     1     -11.737   8.349   0.800  0.00  0.00    +0.160 C 
ATOM     17  O   UNL     1     -10.841   7.214   0.799  0.00  0.00    -0.373 OA
ENDBRANCH  12  13
ENDBRANCH  11  12
ENDBRANCH   8  11
ENDBRANCH   3   5
BRANCH   1  18
ATOM     18  C   UNL     1      -3.700  -0.489  -0.561  0.00  0.00    +0.324 C 
BRANCH  18  19
ATOM     19  O   UNL     1      -4.020  -1.703  -1.243  0.00  0.00    -0.483 OA
BRANCH  19  24
ATOM     20  C   UNL     1       0.052  -5.577  -1.611  0.00  0.00    +0.044 C 
ATOM     21  C   UNL     1      -1.036  -4.540  -1.514  0.00  0.00    -0.050 A 
ATOM     22  C   UNL     1      -0.791  -3.340  -0.872  0.00  0.00    +0.007 A 
ATOM     23  C   UNL     1      -1.788  -2.388  -0.781  0.00  0.00    +0.046 A 
ATOM     24  C   UNL     1      -3.036  -2.636  -1.335  0.00  0.00    +0.124 A 
ATOM     25  C   UNL     1      -3.279  -3.840  -1.979  0.00  0.00    -0.009 A 
ATOM     26  C   UNL     1      -2.279  -4.790  -2.067  0.00  0.00    +0.010 A 
ATOM     27  C   UNL     1      -4.633  -4.114  -2.582  0.00  0.00    +0.047 C 
ENDBRANCH  19  24
ENDBRANCH  18  19
ENDBRANCH   1  18
TORSDOF 7
