REMARK  Name = ZINC16282046
REMARK  6 active torsions:
REMARK  status: ('A' for Active; 'I' for Inactive)
REMARK    1  A    between atoms: C_1  and  C_2
REMARK    2  A    between atoms: C_12  and  N_13
REMARK    3  A    between atoms: C_14  and  C_16
REMARK    4  A    between atoms: C_16  and  N_24
REMARK    5  A    between atoms: C_17  and  C_18
REMARK    6  A    between atoms: C_25  and  C_27
REMARK                            x       y       z     vdW  Elec       q    Type
REMARK                         _______ _______ _______ _____ _____    ______ ____
ROOT
ATOM      1  N   UNL     1       1.083  -4.762   4.301  0.00  0.00    -0.286 N 
ATOM      2  C   UNL     1       0.021  -5.337   4.899  0.00  0.00    +0.262 C 
ATOM      3  O   UNL     1      -1.006  -5.517   4.274  0.00  0.00    -0.268 OA
ATOM      4  H   UNL     1       1.925  -4.685   4.777  0.00  0.00    +0.155 HD
ENDROOT
BRANCH   1  16
ATOM      5  C   UNL     1       5.299  -2.022  -0.701  0.00  0.00    +0.046 C 
ATOM      6  C   UNL     1       3.878  -2.469  -0.471  0.00  0.00    -0.028 A 
ATOM      7  C   UNL     1       2.961  -2.404  -1.500  0.00  0.00    +0.020 A 
ATOM      8  C   UNL     1       1.651  -2.811  -1.305  0.00  0.00    +0.019 A 
ATOM      9  C   UNL     1       1.252  -3.288  -0.071  0.00  0.00    +0.025 A 
ATOM     10  C   UNL     1       2.168  -3.356   0.971  0.00  0.00    +0.011 A 
ATOM     11  C   UNL     1       3.495  -2.951   0.776  0.00  0.00    +0.045 A 
ATOM     12  N   UNL     1       4.204  -3.122   1.959  0.00  0.00    -0.281 N 
ATOM     13  C   UNL     1       3.424  -3.625   2.930  0.00  0.00    +0.250 C 
ATOM     14  O   UNL     1       3.773  -3.879   4.069  0.00  0.00    -0.270 OA
ATOM     15  C   UNL     1       2.073  -3.804   2.381  0.00  0.00    +0.060 C 
ATOM     16  C   UNL     1       0.974  -4.289   3.024  0.00  0.00    +0.088 C 
ATOM     17 BR   UNL     1       0.409  -2.715  -2.727  0.00  0.00    -0.050 Br
ATOM     18  H   UNL     1       5.144  -2.907   2.069  0.00  0.00    +0.155 HD
ENDBRANCH   1  16
BRANCH   2  19
ATOM     19  C   UNL     1       0.104  -5.746   6.308  0.00  0.00    +0.097 C 
ATOM     20  C   UNL     1       0.215  -4.809   7.279  0.00  0.00    +0.036 C 
BRANCH  20  21
ATOM     21  C   UNL     1       0.093  -3.383   6.943  0.00  0.00    -0.023 A 
ATOM     22  C   UNL     1      -0.713  -2.979   5.873  0.00  0.00    +0.008 A 
ATOM     23  C   UNL     1      -0.822  -1.640   5.564  0.00  0.00    +0.001 A 
ATOM     24  C   UNL     1      -0.137  -0.696   6.309  0.00  0.00    +0.000 A 
ATOM     25  C   UNL     1       0.662  -1.087   7.369  0.00  0.00    +0.001 A 
ATOM     26  C   UNL     1       0.777  -2.422   7.694  0.00  0.00    +0.008 A 
ENDBRANCH  20  21
BRANCH  19  27
ATOM     27  N   UNL     1       0.069  -7.102   6.645  0.00  0.00    -0.277 N 
ATOM     28  C   UNL     1       0.073  -8.038   5.676  0.00  0.00    +0.248 C 
ATOM     29  O   UNL     1       0.197  -7.707   4.512  0.00  0.00    -0.270 OA
ATOM     30  H   UNL     1       0.042  -7.369   7.577  0.00  0.00    +0.155 HD
BRANCH  28  31
ATOM     31  C   UNL     1      -0.074  -9.466   6.027  0.00  0.00    +0.037 A 
ATOM     32  C   UNL     1      -0.223  -9.849   7.361  0.00  0.00    +0.013 A 
ATOM     33  C   UNL     1      -0.359 -11.183   7.681  0.00  0.00    +0.001 A 
ATOM     34  C   UNL     1      -0.349 -12.142   6.684  0.00  0.00    +0.000 A 
ATOM     35  C   UNL     1      -0.202 -11.770   5.359  0.00  0.00    +0.001 A 
ATOM     36  C   UNL     1      -0.070 -10.438   5.025  0.00  0.00    +0.013 A 
ENDBRANCH  28  31
ENDBRANCH  19  27
ENDBRANCH   2  19
TORSDOF 5
