REMARK  Name = ZINC44315592
REMARK  5 active torsions:
REMARK  status: ('A' for Active; 'I' for Inactive)
REMARK    1  A    between atoms: C_1  and  C_2
REMARK    2  A    between atoms: C_3  and  S_9
REMARK    3  A    between atoms: S_9  and  N_12
REMARK    4  A    between atoms: N_12  and  C_13
REMARK    5  A    between atoms: C_13  and  C_20
REMARK                            x       y       z     vdW  Elec       q    Type
REMARK                         _______ _______ _______ _____ _____    ______ ____
ROOT
ATOM      1  S   UNL     1      -2.237   0.440  -2.094  0.00  0.00    +0.067 S 
ATOM      2  O   UNL     1      -1.094  -0.390  -1.936  0.00  0.00    -0.152 OA
ATOM      3  O   UNL     1      -2.294   1.764  -1.582  0.00  0.00    -0.152 OA
ENDROOT
BRANCH   1   6
ATOM      4  C   UNL     1      -3.667   2.766  -3.826  0.00  0.00    +0.066 C 
ATOM      5  C   UNL     1      -3.134   1.535  -4.513  0.00  0.00    +0.050 A 
ATOM      6  C   UNL     1      -2.538   0.557  -3.826  0.00  0.00    +0.166 A 
ATOM      7  S   UNL     1      -2.126  -0.600  -5.120  0.00  0.00    -0.007 S 
ATOM      8  C   UNL     1      -2.744   0.254  -6.430  0.00  0.00    +0.290 A 
ATOM      9  O   UNL     1      -2.745  -0.064  -7.606  0.00  0.00    -0.260 OA
ATOM     10  N   UNL     1      -3.243   1.371  -5.863  0.00  0.00    -0.318 N 
ATOM     11  H   UNL     1      -3.671   2.050  -6.408  0.00  0.00    +0.169 HD
ENDBRANCH   1   6
BRANCH   1  12
ATOM     12  N   UNL     1      -3.513  -0.380  -1.430  0.00  0.00    -0.182 NA
ATOM     13  H   UNL     1      -4.102   0.066  -0.801  0.00  0.00    +0.149 HD
BRANCH  12  14
ATOM     14  C   UNL     1      -3.753  -1.779  -1.792  0.00  0.00    +0.058 C 
ATOM     15  C   UNL     1      -4.783  -2.365  -0.827  0.00  0.00    +0.047 C 
ATOM     16  C   UNL     1      -6.220  -2.162  -1.385  0.00  0.00    +0.168 C 
ATOM     17  S   UNL     1      -5.906  -2.499  -3.173  0.00  0.00    -0.029 S 
ATOM     18  O   UNL     1      -5.880  -3.904  -3.386  0.00  0.00    -0.174 OA
ATOM     19  O   UNL     1      -6.765  -1.685  -3.960  0.00  0.00    -0.174 OA
ATOM     20  C   UNL     1      -4.190  -1.840  -3.268  0.00  0.00    +0.189 C 
ATOM     21  C   UNL     1      -2.444  -2.556  -1.636  0.00  0.00    +0.031 C 
ENDBRANCH  12  14
ENDBRANCH   1  12
TORSDOF 3
