REMARK  Name = ZINC66877586
REMARK  10 active torsions:
REMARK  status: ('A' for Active; 'I' for Inactive)
REMARK    1  A    between atoms: C_1  and  C_2
REMARK    2  A    between atoms: C_3  and  N_9
REMARK    3  A    between atoms: C_4  and  C_8
REMARK    4  A    between atoms: N_5  and  C_7
REMARK    5  A    between atoms: C_10  and  C_12
REMARK    6  A    between atoms: C_12  and  C_14
REMARK    7  A    between atoms: C_12  and  N_15
REMARK    8  A    between atoms: C_18  and  N_21
REMARK    9  A    between atoms: C_22  and  C_24
REMARK   10  A    between atoms: C_24  and  C_25
REMARK                            x       y       z     vdW  Elec       q    Type
REMARK                         _______ _______ _______ _____ _____    ______ ____
ROOT
ATOM      1  N   UNL     1       0.248   2.814  -4.261  0.00  0.00    +0.387 N 
ATOM      2  C   UNL     1      -0.092   3.337  -5.590  0.00  0.00    -0.076 C 
ATOM      3  C   UNL     1       0.352   4.798  -5.696  0.00  0.00    +0.004 C 
ATOM      4  C   UNL     1      -0.363   5.623  -4.622  0.00  0.00    +0.069 C 
ATOM      5  C   UNL     1      -0.061   5.023  -3.246  0.00  0.00    +0.004 C 
ATOM      6  C   UNL     1      -0.490   3.554  -3.230  0.00  0.00    -0.076 C 
ATOM      7  H   UNL     1       1.239   2.919  -4.104  0.00  0.00    -0.081 HD
ENDROOT
BRANCH   4   8
ATOM      8  N   UNL     1       0.114   7.007  -4.669  0.00  0.00    -0.313 N 
ATOM      9  C   UNL     1      -0.669   8.006  -4.214  0.00  0.00    +0.213 C 
ATOM     10  O   UNL     1      -1.768   7.758  -3.767  0.00  0.00    -0.276 OA
ATOM     11  H   UNL     1       0.994   7.205  -5.027  0.00  0.00    +0.149 HD
BRANCH   9  12
ATOM     12  C   UNL     1      -0.177   9.430  -4.263  0.00  0.00    +0.099 C 
BRANCH  12  13
ATOM     13  C   UNL     1      -1.250  10.359  -3.691  0.00  0.00    -0.002 C 
ATOM     14  C   UNL     1      -2.475  10.391  -4.627  0.00  0.00    +0.004 C 
ATOM     15  C   UNL     1      -2.961  11.860  -4.567  0.00  0.00    +0.000 C 
ATOM     16  C   UNL     1      -1.634  12.657  -4.512  0.00  0.00    +0.000 C 
ATOM     17  C   UNL     1      -0.715  11.800  -3.618  0.00  0.00    +0.004 C 
ENDBRANCH  12  13
ENDBRANCH   9  12
ENDBRANCH   4   8
BRANCH   1  18
ATOM     18  C   UNL     1      -0.110   1.391  -4.190  0.00  0.00    +0.016 C 
ATOM     19  C   UNL     1       0.673   0.615  -5.251  0.00  0.00    -0.004 C 
BRANCH  18  21
ATOM     20  N   UNL     1      -0.431  -0.214  -2.336  0.00  0.00    -0.284 N 
ATOM     21  C   UNL     1       0.230   0.855  -2.823  0.00  0.00    +0.203 C 
ATOM     22  O   UNL     1       1.097   1.386  -2.162  0.00  0.00    -0.277 OA
ATOM     23  H   UNL     1      -1.098  -0.661  -2.879  0.00  0.00    +0.155 HD
BRANCH  20  26
ATOM     24  C   UNL     1       0.304   1.612   0.079  0.00  0.00    +0.069 C 
ATOM     25  C   UNL     1       0.182   0.110   0.071  0.00  0.00    +0.081 A 
ATOM     26  C   UNL     1      -0.151  -0.682  -1.038  0.00  0.00    +0.077 A 
ATOM     27  C   UNL     1      -0.157  -1.979  -0.637  0.00  0.00    +0.057 A 
ATOM     28  N   UNL     1       0.163  -2.001   0.683  0.00  0.00    -0.270 N 
ATOM     29  N   UNL     1       0.374  -0.680   1.097  0.00  0.00    -0.175 NA
ATOM     30  C   UNL     1       0.272  -3.196   1.523  0.00  0.00    +0.172 C 
ATOM     31  C   UNL     1      -0.463  -3.176  -1.500  0.00  0.00    +0.067 C 
ENDBRANCH  20  26
ENDBRANCH  18  21
ENDBRANCH   1  18
TORSDOF 6
