REMARK  Name = ZINC03841096
REMARK  11 active torsions:
REMARK  status: ('A' for Active; 'I' for Inactive)
REMARK    1  A    between atoms: C_1  and  C_2
REMARK    2  A    between atoms: C_5  and  O_39
REMARK    3  A    between atoms: C_7  and  C_36
REMARK    4  A    between atoms: C_7  and  C_37
REMARK    5  A    between atoms: C_17  and  C_19
REMARK    6  A    between atoms: C_26  and  C_28
REMARK    7  A    between atoms: C_28  and  C_29
REMARK    8  A    between atoms: N_31  and  C_32
REMARK    9  A    between atoms: N_31  and  C_33
REMARK   10  A    between atoms: C_33  and  C_34
REMARK   11  A    between atoms: C_37  and  O_38
REMARK                            x       y       z     vdW  Elec       q    Type
REMARK                         _______ _______ _______ _____ _____    ______ ____
ROOT
ATOM      1  C   UNL     1       2.441   3.877   2.235  0.00  0.00    +0.012 C 
ATOM      2  C   UNL     1       3.262   3.533   0.991  0.00  0.00    -0.019 C 
ATOM      3  C   UNL     1       3.536   2.026   0.958  0.00  0.00    +0.010 C 
ATOM      4  C   UNL     1       2.226   1.249   0.843  0.00  0.00    +0.032 C 
ATOM      5  C   UNL     1       1.529   1.651  -0.461  0.00  0.00    +0.123 C 
ATOM      6  C   UNL     1       1.212   3.144  -0.408  0.00  0.00    +0.021 C 
ATOM      7  C   UNL     1       2.502   3.958  -0.268  0.00  0.00    +0.011 C 
ATOM      8  C   UNL     1       2.094   5.438  -0.130  0.00  0.00    +0.049 C 
ATOM      9  C   UNL     1       3.264   6.220   0.353  0.00  0.00    +0.015 A 
ATOM     10  C   UNL     1       4.415   5.744   0.893  0.00  0.00    +0.058 A 
ATOM     11  N   UNL     1       5.314   6.659   1.252  0.00  0.00    -0.229 NA
ATOM     12  C   UNL     1       5.103   7.949   1.093  0.00  0.00    +0.165 A 
ATOM     13  S   UNL     1       3.517   7.974   0.380  0.00  0.00    -0.057 S 
ATOM     14  N   UNL     1       5.934   9.015   1.413  0.00  0.00    -0.261 N 
ATOM     15  C   UNL     1       5.532  10.279   1.170  0.00  0.00    +0.250 C 
ATOM     16  O   UNL     1       4.443  10.485   0.671  0.00  0.00    -0.270 OA
ATOM     17  C   UNL     1       4.619   4.246   1.057  0.00  0.00    +0.054 C 
ATOM     18  C   UNL     1       0.491   3.555  -1.694  0.00  0.00    +0.016 C 
ATOM     19  H   UNL     1       6.803   8.851   1.810  0.00  0.00    +0.157 HD
ENDROOT
BRANCH  15  20
ATOM     20  C   UNL     1       6.415  11.412   1.510  0.00  0.00    +0.037 A 
ATOM     21  C   UNL     1       7.665  11.178   2.088  0.00  0.00    +0.016 A 
ATOM     22  C   UNL     1       8.488  12.240   2.398  0.00  0.00    +0.039 A 
ATOM     23  C   UNL     1       8.072  13.539   2.147  0.00  0.00    +0.123 A 
ATOM     24  C   UNL     1       6.830  13.777   1.579  0.00  0.00    +0.039 A 
ATOM     25  C   UNL     1       6.002  12.723   1.259  0.00  0.00    +0.016 A 
ATOM     26  F   UNL     1       8.880  14.576   2.459  0.00  0.00    -0.205 F 
ENDBRANCH  15  20
BRANCH   5  27
ATOM     27  O   UNL     1       0.316   0.909  -0.603  0.00  0.00    -0.391 OA
ATOM     28  H   UNL     1       0.442  -0.050  -0.632  0.00  0.00    +0.210 HD
ENDBRANCH   5  27
BRANCH  17  29
ATOM     29  C   UNL     1       5.277   3.965   2.409  0.00  0.00    +0.106 C 
BRANCH  29  30
ATOM     30  C   UNL     1       6.688   4.495   2.400  0.00  0.00    +0.217 C 
ATOM     31  O   UNL     1       7.125   5.042   1.410  0.00  0.00    -0.276 OA
ATOM     32  N   UNL     1       7.466   4.360   3.493  0.00  0.00    -0.293 N 
ATOM     33  C   UNL     1       6.939   3.698   4.689  0.00  0.00    +0.133 C 
BRANCH  32  34
ATOM     34  C   UNL     1       8.837   4.874   3.485  0.00  0.00    +0.196 C 
BRANCH  34  35
ATOM     35  C   UNL     1       8.841   6.268   3.957  0.00  0.00    -0.086 C 
ATOM     36  C   UNL     1       8.844   7.380   4.333  0.00  0.00    +0.005 C 
ENDBRANCH  34  35
ENDBRANCH  32  34
ENDBRANCH  29  30
ENDBRANCH  17  29
BRANCH   6  37
ATOM     37  C   UNL     1       0.303   3.427   0.790  0.00  0.00    +0.165 C 
BRANCH  37  38
ATOM     38  O   UNL     1      -0.971   2.815   0.576  0.00  0.00    -0.394 OA
ATOM     39  H   UNL     1      -1.600   2.953   1.298  0.00  0.00    +0.209 HD
ENDBRANCH  37  38
ENDBRANCH   6  37
TORSDOF 8
