REMARK  Name = ZINC17399131
REMARK  11 active torsions:
REMARK  status: ('A' for Active; 'I' for Inactive)
REMARK    1  A    between atoms: C_1  and  C_2
REMARK    2  A    between atoms: C_5  and  S_8
REMARK    3  A    between atoms: S_8  and  N_11
REMARK    4  A    between atoms: C_15  and  C_18
REMARK    5  A    between atoms: N_20  and  N_21
REMARK    6  A    between atoms: C_22  and  C_24
REMARK    7  A    between atoms: C_24  and  C_26
REMARK    8  A    between atoms: C_24  and  N_29
REMARK    9  A    between atoms: C_26  and  C_27
REMARK   10  A    between atoms: C_26  and  C_28
REMARK   11  A    between atoms: C_30  and  C_32
REMARK                            x       y       z     vdW  Elec       q    Type
REMARK                         _______ _______ _______ _____ _____    ______ ____
ROOT
ATOM      1  C   UNL     1      -2.411  -2.374   3.759  0.00  0.00    +0.233 C 
ATOM      2  O   UNL     1      -3.231  -1.489   3.885  0.00  0.00    -0.274 OA
ATOM      3  N   UNL     1      -2.590  -3.553   4.388  0.00  0.00    -0.234 N 
ATOM      4  H   UNL     1      -1.935  -4.261   4.287  0.00  0.00    +0.173 HD
ENDROOT
BRANCH   1   9
ATOM      5  N   UNL     1       0.024  -0.502   1.581  0.00  0.00    -0.176 NA
ATOM      6  C   UNL     1       1.298  -0.716   2.281  0.00  0.00    +0.109 C 
ATOM      7  C   UNL     1       1.308  -2.123   2.877  0.00  0.00    +0.018 C 
ATOM      8  C   UNL     1       0.069  -2.312   3.755  0.00  0.00    +0.015 C 
ATOM      9  C   UNL     1      -1.192  -2.156   2.901  0.00  0.00    +0.092 C 
ATOM     10  C   UNL     1      -1.230  -0.745   2.307  0.00  0.00    +0.122 C 
BRANCH   5  11
ATOM     11  S   UNL     1       0.002  -0.004   0.002  0.00  0.00    +0.061 S 
ATOM     12  O   UNL     1      -1.243  -0.424  -0.539  0.00  0.00    -0.153 OA
ATOM     13  O   UNL     1       1.248  -0.390  -0.563  0.00  0.00    -0.153 OA
BRANCH  11  18
ATOM     14  C   UNL     1      -0.080   6.029   0.033  0.00  0.00    +0.044 C 
ATOM     15  C   UNL     1      -0.059   4.522   0.026  0.00  0.00    -0.050 A 
ATOM     16  C   UNL     1       1.147   3.847   0.011  0.00  0.00    +0.005 A 
ATOM     17  C   UNL     1       1.166   2.465   0.004  0.00  0.00    +0.029 A 
ATOM     18  C   UNL     1      -0.022   1.758   0.012  0.00  0.00    +0.105 A 
ATOM     19  C   UNL     1      -1.228   2.433   0.021  0.00  0.00    +0.029 A 
ATOM     20  C   UNL     1      -1.247   3.815   0.034  0.00  0.00    +0.005 A 
ENDBRANCH  11  18
ENDBRANCH   5  11
ENDBRANCH   1   9
BRANCH   3  21
ATOM     21  N   UNL     1      -3.724  -3.756   5.186  0.00  0.00    -0.233 N 
ATOM     22  C   UNL     1      -3.903  -4.935   5.814  0.00  0.00    +0.250 C 
ATOM     23  O   UNL     1      -3.084  -5.820   5.689  0.00  0.00    -0.272 OA
ATOM     24  H   UNL     1      -4.379  -3.048   5.286  0.00  0.00    +0.173 HD
BRANCH  22  25
ATOM     25  C   UNL     1      -5.122  -5.153   6.673  0.00  0.00    +0.163 C 
BRANCH  25  26
ATOM     26  N   UNL     1      -5.085  -6.503   7.240  0.00  0.00    -0.304 N 
ATOM     27  C   UNL     1      -5.739  -6.770   8.387  0.00  0.00    +0.211 C 
ATOM     28  O   UNL     1      -6.360  -5.893   8.950  0.00  0.00    -0.276 OA
ATOM     29  C   UNL     1      -5.701  -8.159   8.971  0.00  0.00    +0.109 C 
ATOM     30  H   UNL     1      -4.589  -7.205   6.790  0.00  0.00    +0.149 HD
ENDBRANCH  25  26
BRANCH  25  31
ATOM     31  C   UNL     1      -6.382  -4.994   5.819  0.00  0.00    +0.012 C 
ATOM     32  C   UNL     1      -6.427  -6.100   4.764  0.00  0.00    +0.009 C 
ATOM     33  C   UNL     1      -7.620  -5.091   6.713  0.00  0.00    +0.009 C 
ENDBRANCH  25  31
ENDBRANCH  22  25
ENDBRANCH   3  21
TORSDOF 7
