REMARK  Name = ZINC39203402
REMARK  15 active torsions:
REMARK  status: ('A' for Active; 'I' for Inactive)
REMARK    1  A    between atoms: C_1  and  C_2
REMARK    2  A    between atoms: C_2  and  O_3
REMARK    3  A    between atoms: O_3  and  C_4
REMARK    4  A    between atoms: C_4  and  C_5
REMARK    5  A    between atoms: N_7  and  C_8
REMARK    6  A    between atoms: N_11  and  C_37
REMARK    7  A    between atoms: N_18  and  C_21
REMARK    8  A    between atoms: C_21  and  C_22
REMARK    9  A    between atoms: N_24  and  C_25
REMARK   10  A    between atoms: C_25  and  C_27
REMARK   11  A    between atoms: C_25  and  C_34
REMARK   12  A    between atoms: C_27  and  C_28
REMARK   13  A    between atoms: C_37  and  C_38
REMARK   14  A    between atoms: C_38  and  C_39
REMARK   15  A    between atoms: C_38  and  C_40
REMARK                            x       y       z     vdW  Elec       q    Type
REMARK                         _______ _______ _______ _____ _____    ______ ____
ROOT
ATOM      1  C   UNL     1       2.622  -3.882   4.134  0.00  0.00    +0.177 C 
ATOM      2  C   UNL     1       2.122  -5.260   4.571  0.00  0.00    +0.137 C 
ATOM      3  N   UNL     1       3.106  -5.889   5.453  0.00  0.00    -0.326 N 
ATOM      4  C   UNL     1       3.723  -5.111   6.439  0.00  0.00    +0.051 A 
ATOM      5  C   UNL     1       3.403  -5.280   7.777  0.00  0.00    +0.025 A 
ATOM      6  C   UNL     1       4.007  -4.486   8.735  0.00  0.00    +0.002 A 
ATOM      7  C   UNL     1       4.927  -3.523   8.363  0.00  0.00    +0.002 A 
ATOM      8  C   UNL     1       5.258  -3.353   7.030  0.00  0.00    +0.025 A 
ATOM      9  C   UNL     1       4.667  -4.152   6.066  0.00  0.00    +0.058 A 
ATOM     10  N   UNL     1       5.027  -4.037   4.718  0.00  0.00    -0.259 N 
ATOM     11  C   UNL     1       4.078  -3.958   3.759  0.00  0.00    +0.242 C 
ATOM     12  O   UNL     1       4.401  -3.945   2.590  0.00  0.00    -0.273 OA
ENDROOT
BRANCH   1  15
ATOM     13  C   UNL     1       1.722  -2.111   2.723  0.00  0.00    +0.239 C 
ATOM     14  O   UNL     1       2.253  -1.301   3.453  0.00  0.00    -0.273 OA
ATOM     15  N   UNL     1       1.845  -3.429   2.977  0.00  0.00    -0.301 N 
ATOM     16  H   UNL     1       1.420  -4.077   2.394  0.00  0.00    +0.150 HD
BRANCH  13  17
ATOM     17  C   UNL     1       0.924  -1.644   1.534  0.00  0.00    +0.255 C 
BRANCH  17  18
ATOM     18  O   UNL     1       0.941  -0.216   1.479  0.00  0.00    -0.371 OA
BRANCH  18  20
ATOM     19  C   UNL     1       0.296   1.859   0.422  0.00  0.00    +0.034 C 
ATOM     20  C   UNL     1       0.209   0.332   0.381  0.00  0.00    +0.157 C 
ENDBRANCH  18  20
ENDBRANCH  17  18
ENDBRANCH  13  17
ENDBRANCH   1  15
BRANCH  10  21
ATOM     21  C   UNL     1       6.443  -4.005   4.344  0.00  0.00    +0.209 C 
BRANCH  21  22
ATOM     22  C   UNL     1       6.898  -5.395   3.978  0.00  0.00    +0.231 C 
ATOM     23  O   UNL     1       6.095  -6.303   3.932  0.00  0.00    -0.274 OA
ATOM     24  N   UNL     1       8.196  -5.628   3.702  0.00  0.00    -0.302 N 
ATOM     25  H   UNL     1       8.838  -4.902   3.738  0.00  0.00    +0.150 HD
BRANCH  24  26
ATOM     26  C   UNL     1       8.638  -6.979   3.346  0.00  0.00    +0.164 C 
BRANCH  26  27
ATOM     27  C   UNL     1       8.913  -7.765   4.602  0.00  0.00    +0.231 C 
ATOM     28  O   UNL     1       8.756  -7.247   5.687  0.00  0.00    -0.274 OA
ATOM     29  N   UNL     1       9.334  -9.042   4.519  0.00  0.00    -0.328 N 
ATOM     30  H   UNL     1       9.460  -9.456   3.650  0.00  0.00    +0.145 HD
ATOM     31  H   UNL     1       9.511  -9.548   5.327  0.00  0.00    +0.145 HD
ENDBRANCH  26  27
BRANCH  26  32
ATOM     32  C   UNL     1       9.915  -6.894   2.507  0.00  0.00    +0.086 C 
BRANCH  32  33
ATOM     33  C   UNL     1       9.610  -6.215   1.196  0.00  0.00    +0.035 A 
ATOM     34  C   UNL     1       9.126  -6.812   0.090  0.00  0.00    +0.105 A 
ATOM     35  N   UNL     1       8.998  -5.837  -0.862  0.00  0.00    -0.352 N 
ATOM     36  H   UNL     1       8.673  -5.956  -1.768  0.00  0.00    +0.166 HD
ATOM     37  C   UNL     1       9.409  -4.678  -0.304  0.00  0.00    +0.171 A 
ATOM     38  N   UNL     1       9.769  -4.911   0.928  0.00  0.00    -0.350 N 
ATOM     39  H   UNL     1      10.101  -4.246   1.552  0.00  0.00    +0.166 HD
ENDBRANCH  32  33
ENDBRANCH  26  32
ENDBRANCH  24  26
ENDBRANCH  21  22
ENDBRANCH  10  21
BRANCH   3  40
ATOM     40  C   UNL     1       3.439  -7.308   5.306  0.00  0.00    +0.108 C 
BRANCH  40  41
ATOM     41  C   UNL     1       2.583  -8.136   6.268  0.00  0.00    +0.000 C 
ATOM     42  C   UNL     1       1.113  -8.037   5.855  0.00  0.00    +0.009 C 
ATOM     43  C   UNL     1       3.030  -9.598   6.219  0.00  0.00    +0.009 C 
ENDBRANCH  40  41
ENDBRANCH   3  40
TORSDOF 12
