REMARK  Name = ZINC08861366
REMARK  6 active torsions:
REMARK  status: ('A' for Active; 'I' for Inactive)
REMARK    1  A    between atoms: C_4  and  C_7
REMARK    2  A    between atoms: C_8  and  C_9
REMARK    3  A    between atoms: C_10  and  C_11
REMARK    4  A    between atoms: C_10  and  N_24
REMARK    5  A    between atoms: N_13  and  C_14
REMARK    6  A    between atoms: C_25  and  C_27
REMARK                            x       y       z     vdW  Elec       q    Type
REMARK                         _______ _______ _______ _____ _____    ______ ____
ROOT
ATOM      1  C   UNL     1       5.310  -3.219   0.503  0.00  0.00    +0.028 C 
ATOM      2  C   UNL     1       5.223  -4.516   0.100  0.00  0.00    +0.096 C 
ENDROOT
BRANCH   2   3
ATOM      3  C   UNL     1       3.923  -5.195   0.086  0.00  0.00    +0.262 C 
ATOM      4  O   UNL     1       3.545  -5.807   1.068  0.00  0.00    -0.268 OA
ATOM      5  N   UNL     1       3.146  -5.140  -1.014  0.00  0.00    -0.280 N 
ATOM      6  H   UNL     1       3.488  -4.744  -1.831  0.00  0.00    +0.155 HD
BRANCH   5   7
ATOM      7  C   UNL     1       1.847  -5.655  -0.979  0.00  0.00    +0.034 A 
ATOM      8  C   UNL     1       1.101  -5.573   0.203  0.00  0.00    +0.024 A 
ATOM      9  C   UNL     1      -0.164  -6.065   0.266  0.00  0.00    +0.010 A 
ATOM     10  C   UNL     1      -0.739  -6.667  -0.867  0.00  0.00    -0.018 A 
ATOM     11  C   UNL     1      -2.046  -7.183  -0.832  0.00  0.00    +0.008 A 
ATOM     12  C   UNL     1      -2.574  -7.759  -1.946  0.00  0.00    +0.001 A 
ATOM     13  C   UNL     1      -1.838  -7.846  -3.127  0.00  0.00    +0.001 A 
ATOM     14  C   UNL     1      -0.570  -7.356  -3.199  0.00  0.00    +0.008 A 
ATOM     15  C   UNL     1       0.009  -6.754  -2.068  0.00  0.00    -0.016 A 
ATOM     16  C   UNL     1       1.312  -6.233  -2.109  0.00  0.00    +0.031 A 
ENDBRANCH   5   7
ENDBRANCH   2   3
BRANCH   2  17
ATOM     17  N   UNL     1       6.372  -5.201  -0.301  0.00  0.00    -0.277 N 
ATOM     18  C   UNL     1       6.306  -6.516  -0.593  0.00  0.00    +0.248 C 
ATOM     19  O   UNL     1       5.232  -7.085  -0.595  0.00  0.00    -0.270 OA
ATOM     20  H   UNL     1       7.218  -4.731  -0.370  0.00  0.00    +0.155 HD
BRANCH  18  21
ATOM     21  C   UNL     1       7.540  -7.265  -0.909  0.00  0.00    +0.037 A 
ATOM     22  C   UNL     1       8.776  -6.616  -0.902  0.00  0.00    +0.014 A 
ATOM     23  C   UNL     1       9.924  -7.321  -1.198  0.00  0.00    +0.016 A 
ATOM     24  C   UNL     1       9.852  -8.670  -1.502  0.00  0.00    +0.018 A 
ATOM     25  C   UNL     1       8.629  -9.319  -1.511  0.00  0.00    +0.016 A 
ATOM     26  C   UNL     1       7.475  -8.627  -1.212  0.00  0.00    +0.014 A 
ATOM     27 BR   UNL     1      11.431  -9.629  -1.907  0.00  0.00    -0.050 Br
ENDBRANCH  18  21
ENDBRANCH   2  17
BRANCH   1  29
ATOM     28  C   UNL     1       4.278  -1.307   1.506  0.00  0.00    +0.008 C 
ATOM     29  C   UNL     1       4.170  -2.561   1.010  0.00  0.00    +0.003 C 
BRANCH  28  33
ATOM     30  C   UNL     1       0.851   0.674   3.029  0.00  0.00    +0.000 A 
ATOM     31  C   UNL     1       2.078   1.314   3.042  0.00  0.00    +0.001 A 
ATOM     32  C   UNL     1       3.197   0.677   2.549  0.00  0.00    +0.008 A 
ATOM     33  C   UNL     1       3.090  -0.620   2.035  0.00  0.00    -0.025 A 
ATOM     34  C   UNL     1       1.845  -1.260   2.026  0.00  0.00    +0.008 A 
ATOM     35  C   UNL     1       0.736  -0.609   2.522  0.00  0.00    +0.001 A 
ENDBRANCH  28  33
ENDBRANCH   1  29
TORSDOF 6
