REMARK  Name = ZINC11289437
REMARK  12 active torsions:
REMARK  status: ('A' for Active; 'I' for Inactive)
REMARK    1  A    between atoms: C_1  and  C_2
REMARK    2  A    between atoms: C_2  and  N_59
REMARK    3  A    between atoms: C_3  and  C_4
REMARK    4  A    between atoms: C_3  and  N_59
REMARK    5  A    between atoms: N_6  and  C_7
REMARK    6  A    between atoms: C_10  and  N_13
REMARK    7  A    between atoms: C_14  and  C_16
REMARK    8  A    between atoms: C_17  and  C_18
REMARK    9  A    between atoms: C_17  and  N_59
REMARK   10  A    between atoms: N_20  and  C_21
REMARK   11  A    between atoms: C_24  and  C_30
REMARK   12  A    between atoms: C_31  and  C_33
REMARK                            x       y       z     vdW  Elec       q    Type
REMARK                         _______ _______ _______ _____ _____    ______ ____
ROOT
ATOM      1  N   UNL     1       3.621   1.582  -0.708  0.00  0.00    +0.391 N 
ATOM      2  H   UNL     1       3.490   2.413  -0.119  0.00  0.00    -0.080 HD
ENDROOT
BRANCH   1   4
ATOM      3  C   UNL     1       2.445   3.006  -2.309  0.00  0.00    -0.017 C 
ATOM      4  C   UNL     1       3.572   1.988  -2.128  0.00  0.00    -0.081 C 
ENDBRANCH   1   4
BRANCH   1   5
ATOM      5  C   UNL     1       2.540   0.615  -0.422  0.00  0.00    +0.020 C 
BRANCH   5   6
ATOM      6  C   UNL     1       2.312   0.573   1.067  0.00  0.00    +0.201 C 
ATOM      7  O   UNL     1       2.917   1.332   1.795  0.00  0.00    -0.278 OA
ATOM      8  N   UNL     1       1.435  -0.307   1.590  0.00  0.00    -0.287 N 
ATOM      9  H   UNL     1       0.897  -0.862   1.004  0.00  0.00    +0.155 HD
BRANCH   8  10
ATOM     10  C   UNL     1       1.298  -0.417   2.980  0.00  0.00    +0.033 A 
ATOM     11  C   UNL     1       1.046  -1.655   3.557  0.00  0.00    +0.025 A 
ATOM     12  C   UNL     1       0.916  -1.764   4.927  0.00  0.00    +0.025 A 
ATOM     13  C   UNL     1       1.025  -0.634   5.727  0.00  0.00    +0.033 A 
ATOM     14  C   UNL     1       1.272   0.605   5.149  0.00  0.00    +0.025 A 
ATOM     15  C   UNL     1       1.408   0.713   3.780  0.00  0.00    +0.025 A 
BRANCH  13  16
ATOM     16  N   UNL     1       0.888  -0.744   7.117  0.00  0.00    -0.286 N 
ATOM     17  C   UNL     1       1.295  -1.863   7.748  0.00  0.00    +0.214 C 
ATOM     18  O   UNL     1       1.861  -2.738   7.127  0.00  0.00    -0.276 OA
ATOM     19  C   UNL     1       1.047  -2.028   9.225  0.00  0.00    +0.109 C 
ATOM     20  H   UNL     1       0.500  -0.014   7.625  0.00  0.00    +0.155 HD
ENDBRANCH  13  16
ENDBRANCH   8  10
ENDBRANCH   5   6
ENDBRANCH   1   5
BRANCH   1  21
ATOM     21  C   UNL     1       4.934   0.977  -0.400  0.00  0.00    +0.020 C 
BRANCH  21  22
ATOM     22  C   UNL     1       5.994   2.045  -0.488  0.00  0.00    +0.203 C 
ATOM     23  O   UNL     1       5.688   3.178  -0.791  0.00  0.00    -0.277 OA
ATOM     24  N   UNL     1       7.281   1.739  -0.230  0.00  0.00    -0.257 N 
ATOM     25  H   UNL     1       7.525   0.833   0.012  0.00  0.00    +0.158 HD
BRANCH  24  26
ATOM     26  C   UNL     1       8.254   2.720  -0.311  0.00  0.00    +0.206 A 
ATOM     27  C   UNL     1       9.596   2.545  -0.075  0.00  0.00    +0.110 A 
ATOM     28  C   UNL     1      10.215   3.877  -0.288  0.00  0.00    +0.053 A 
ATOM     29  C   UNL     1      11.665   3.992  -0.102  0.00  0.00    +0.070 A 
ATOM     30  N   UNL     1      12.354   2.947   0.238  0.00  0.00    -0.175 NA
ATOM     31  N   UNL     1      11.796   1.688   0.444  0.00  0.00    -0.242 N 
ATOM     32  H   UNL     1      12.380   0.956   0.697  0.00  0.00    +0.192 HD
ATOM     33  C   UNL     1      10.476   1.445   0.306  0.00  0.00    +0.277 A 
ATOM     34  O   UNL     1      10.027   0.328   0.495  0.00  0.00    -0.266 OA
ATOM     35  C   UNL     1      12.351   5.319  -0.304  0.00  0.00    +0.068 C 
ATOM     36  C   UNL     1       9.203   4.702  -0.625  0.00  0.00    +0.114 A 
ATOM     37  O   UNL     1       8.051   4.005  -0.640  0.00  0.00    -0.445 OA
ATOM     38  C   UNL     1       9.340   6.170  -0.940  0.00  0.00    +0.087 C 
ENDBRANCH  24  26
ENDBRANCH  21  22
ENDBRANCH   1  21
TORSDOF 8
