REMARK  Name = ZINC10641009
REMARK  8 active torsions:
REMARK  status: ('A' for Active; 'I' for Inactive)
REMARK    1  A    between atoms: C_1  and  C_2
REMARK    2  A    between atoms: C_6  and  C_12
REMARK    3  A    between atoms: C_10  and  C_11
REMARK    4  A    between atoms: C_12  and  C_13
REMARK    5  A    between atoms: N_15  and  C_16
REMARK    6  A    between atoms: C_19  and  N_26
REMARK    7  A    between atoms: C_21  and  C_22
REMARK    8  A    between atoms: C_27  and  C_29
REMARK                            x       y       z     vdW  Elec       q    Type
REMARK                         _______ _______ _______ _____ _____    ______ ____
ROOT
ATOM      1  C   UNL     1       1.646   1.240   0.103  0.00  0.00    +0.045 A 
ATOM      2  C   UNL     1       1.457   0.016   0.731  0.00  0.00    +0.025 A 
ATOM      3  C   UNL     1       0.200  -0.555   0.766  0.00  0.00    +0.025 A 
ATOM      4  C   UNL     1      -0.875   0.096   0.173  0.00  0.00    +0.034 A 
ATOM      5  C   UNL     1      -0.685   1.320  -0.454  0.00  0.00    +0.037 A 
ATOM      6  C   UNL     1       0.572   1.891  -0.489  0.00  0.00    +0.078 A 
ENDROOT
BRANCH   1   9
ATOM      7  C   UNL     1       4.014   1.037  -0.037  0.00  0.00    +0.222 C 
ATOM      8  O   UNL     1       3.899  -0.171  -0.017  0.00  0.00    -0.275 OA
ATOM      9  N   UNL     1       2.921   1.819   0.067  0.00  0.00    -0.285 N 
ATOM     10  H   UNL     1       3.018   2.783   0.117  0.00  0.00    +0.155 HD
BRANCH   7  11
ATOM     11  C   UNL     1       5.378   1.662  -0.180  0.00  0.00    +0.135 C 
BRANCH  11  17
ATOM     12  C   UNL     1       8.686  -2.722  -4.338  0.00  0.00    +0.044 C 
ATOM     13  C   UNL     1       8.036  -1.814  -3.326  0.00  0.00    -0.044 A 
ATOM     14  C   UNL     1       7.059  -0.918  -3.735  0.00  0.00    +0.004 A 
ATOM     15  C   UNL     1       6.460  -0.086  -2.830  0.00  0.00    +0.012 A 
ATOM     16  C   UNL     1       6.834  -0.141  -1.488  0.00  0.00    +0.024 A 
ATOM     17  C   UNL     1       6.420   0.577  -0.277  0.00  0.00    +0.007 A 
ATOM     18  C   UNL     1       7.150   0.071   0.726  0.00  0.00    +0.200 A 
ATOM     19  O   UNL     1       7.976  -0.882   0.262  0.00  0.00    -0.462 OA
ATOM     20  C   UNL     1       7.825  -1.044  -1.068  0.00  0.00    +0.138 A 
ATOM     21  C   UNL     1       8.425  -1.877  -2.005  0.00  0.00    -0.005 A 
ATOM     22  C   UNL     1       9.486  -2.857  -1.575  0.00  0.00    +0.048 C 
ENDBRANCH  11  17
ENDBRANCH   7  11
ENDBRANCH   1   9
BRANCH   6  23
ATOM     23  C   UNL     1       0.777   3.219  -1.170  0.00  0.00    +0.419 C 
ATOM     24  F   UNL     1      -0.441   3.672  -1.687  0.00  0.00    -0.166 F 
ATOM     25  F   UNL     1       1.265   4.148  -0.244  0.00  0.00    -0.166 F 
ATOM     26  F   UNL     1       1.700   3.071  -2.212  0.00  0.00    -0.166 F 
ENDBRANCH   6  23
BRANCH   4  27
ATOM     27  N   UNL     1      -2.148  -0.483   0.208  0.00  0.00    -0.279 N 
ATOM     28  C   UNL     1      -2.283  -1.822   0.131  0.00  0.00    +0.284 C 
ATOM     29  O   UNL     1      -1.295  -2.533   0.114  0.00  0.00    -0.266 OA
ATOM     30  H   UNL     1      -2.935   0.079   0.288  0.00  0.00    +0.155 HD
BRANCH  28  31
ATOM     31  C   UNL     1      -3.619  -2.422   0.066  0.00  0.00    +0.189 A 
ATOM     32  C   UNL     1      -3.896  -3.757  -0.014  0.00  0.00    +0.054 A 
ATOM     33  C   UNL     1      -5.294  -3.878  -0.054  0.00  0.00    +0.042 A 
ATOM     34  C   UNL     1      -5.802  -2.627   0.004  0.00  0.00    +0.196 A 
ATOM     35  O   UNL     1      -4.790  -1.753   0.082  0.00  0.00    -0.458 OA
ENDBRANCH  28  31
ENDBRANCH   4  27
TORSDOF 6
