REMARK  Name = ZINC36591931
REMARK  16 active torsions:
REMARK  status: ('A' for Active; 'I' for Inactive)
REMARK    1  A    between atoms: C_1  and  C_2
REMARK    2  A    between atoms: C_5  and  S_8
REMARK    3  A    between atoms: S_8  and  C_11
REMARK    4  A    between atoms: C_11  and  N_12
REMARK    5  A    between atoms: C_13  and  C_15
REMARK    6  A    between atoms: C_15  and  C_17
REMARK    7  A    between atoms: C_15  and  N_26
REMARK    8  A    between atoms: C_18  and  O_25
REMARK    9  A    between atoms: C_20  and  O_24
REMARK   10  A    between atoms: C_22  and  O_23
REMARK   11  A    between atoms: N_26  and  C_32
REMARK   12  A    between atoms: C_27  and  C_29
REMARK   13  A    between atoms: C_29  and  C_31
REMARK   14  A    between atoms: C_32  and  C_33
REMARK   15  A    between atoms: C_32  and  C_34
REMARK   16  A    between atoms: C_32  and  C_35
REMARK                            x       y       z     vdW  Elec       q    Type
REMARK                         _______ _______ _______ _____ _____    ______ ____
ROOT
ATOM      1  C   UNL     1       0.571  -5.690   2.245  0.00  0.00    +0.200 C 
ENDROOT
BRANCH   1   2
ATOM      2  C   UNL     1      -0.850  -5.308   2.574  0.00  0.00    +0.065 A 
ATOM      3  C   UNL     1      -1.384  -5.624   3.813  0.00  0.00    +0.129 A 
ATOM      4  C   UNL     1      -2.691  -5.272   4.116  0.00  0.00    +0.091 A 
ATOM      5  C   UNL     1      -3.463  -4.603   3.178  0.00  0.00    +0.124 A 
ATOM      6  C   UNL     1      -2.929  -4.286   1.938  0.00  0.00    +0.091 A 
ATOM      7  C   UNL     1      -1.620  -4.634   1.638  0.00  0.00    +0.129 A 
BRANCH   7   8
ATOM      8  O   UNL     1      -1.095  -4.319   0.425  0.00  0.00    -0.506 OA
ATOM      9  H   UNL     1      -1.225  -5.000  -0.249  0.00  0.00    +0.292 HD
ENDBRANCH   7   8
BRANCH   5  10
ATOM     10  O   UNL     1      -4.744  -4.259   3.474  0.00  0.00    -0.507 OA
ATOM     11  H   UNL     1      -4.833  -3.386   3.879  0.00  0.00    +0.292 HD
ENDBRANCH   5  10
BRANCH   3  12
ATOM     12  O   UNL     1      -0.627  -6.280   4.732  0.00  0.00    -0.506 OA
ATOM     13  H   UNL     1      -0.153  -5.696   5.340  0.00  0.00    +0.292 HD
ENDBRANCH   3  12
ENDBRANCH   1   2
BRANCH   1  15
ATOM     14  N   UNL     1       0.691  -7.103   0.219  0.00  0.00    -0.294 N 
ATOM     15  C   UNL     1       0.584  -7.032   1.560  0.00  0.00    +0.240 C 
ATOM     16  O   UNL     1       0.498  -8.049   2.216  0.00  0.00    -0.273 OA
ATOM     17  H   UNL     1       0.760  -6.290  -0.306  0.00  0.00    +0.150 HD
BRANCH  14  18
ATOM     18  C   UNL     1       0.704  -8.408  -0.447  0.00  0.00    +0.278 C 
BRANCH  18  19
ATOM     19  S   UNL     1      -0.975  -8.825  -0.993  0.00  0.00    +0.013 S 
ATOM     20  O   UNL     1      -1.903  -8.595   0.059  0.00  0.00    -0.168 OA
ATOM     21  O   UNL     1      -0.968 -10.059  -1.697  0.00  0.00    -0.168 OA
BRANCH  19  26
ATOM     22  C   UNL     1      -2.327  -4.681  -5.166  0.00  0.00    +0.044 C 
ATOM     23  C   UNL     1      -1.989  -5.716  -4.123  0.00  0.00    -0.050 A 
ATOM     24  C   UNL     1      -1.380  -6.900  -4.497  0.00  0.00    +0.005 A 
ATOM     25  C   UNL     1      -1.070  -7.849  -3.541  0.00  0.00    +0.027 A 
ATOM     26  C   UNL     1      -1.369  -7.614  -2.212  0.00  0.00    +0.090 A 
ATOM     27  C   UNL     1      -1.977  -6.430  -1.838  0.00  0.00    +0.027 A 
ATOM     28  C   UNL     1      -2.283  -5.479  -2.794  0.00  0.00    +0.005 A 
ENDBRANCH  19  26
ENDBRANCH  18  19
ENDBRANCH  14  18
ENDBRANCH   1  15
BRANCH   1  29
ATOM     29  N   UNL     1       1.354  -5.764   3.481  0.00  0.00    -0.277 N 
ATOM     30  C   UNL     1       1.579  -4.650   4.205  0.00  0.00    +0.243 C 
ATOM     31  O   UNL     1       2.200  -4.718   5.248  0.00  0.00    -0.270 OA
BRANCH  29  32
ATOM     32  C   UNL     1       1.894  -7.051   3.929  0.00  0.00    +0.030 C 
ATOM     33  C   UNL     1       2.748  -7.662   2.816  0.00  0.00    +0.031 C 
ATOM     34  C   UNL     1       2.757  -6.835   5.174  0.00  0.00    +0.031 C 
ATOM     35  C   UNL     1       0.741  -7.998   4.266  0.00  0.00    +0.031 C 
ENDBRANCH  29  32
BRANCH  30  36
ATOM     36  C   UNL     1       1.072  -3.352   3.733  0.00  0.00    +0.004 C 
ATOM     37  C   UNL     1       0.553  -2.486   4.600  0.00  0.00    +0.017 C 
ATOM     38  C   UNL     1       1.139  -3.004   2.269  0.00  0.00    +0.048 C 
ENDBRANCH  30  36
ENDBRANCH   1  29
TORSDOF 11
