REMARK  Name = ZINC20153394
REMARK  10 active torsions:
REMARK  status: ('A' for Active; 'I' for Inactive)
REMARK    1  A    between atoms: C_1  and  C_2
REMARK    2  A    between atoms: C_6  and  C_10
REMARK    3  A    between atoms: C_7  and  O_8
REMARK    4  A    between atoms: O_8  and  C_9
REMARK    5  A    between atoms: N_12  and  C_13
REMARK    6  A    between atoms: C_13  and  N_15
REMARK    7  A    between atoms: N_15  and  C_16
REMARK    8  A    between atoms: C_20  and  C_22
REMARK    9  A    between atoms: C_25  and  C_27
REMARK   10  A    between atoms: C_27  and  O_28
REMARK                            x       y       z     vdW  Elec       q    Type
REMARK                         _______ _______ _______ _____ _____    ______ ____
ROOT
ATOM      1  N   UNL     1       0.104  -6.244   3.574  0.00  0.00    -0.297 N 
ATOM      2  H   UNL     1       0.316  -6.672   2.730  0.00  0.00    +0.154 HD
ENDROOT
BRANCH   1   3
ATOM      3  C   UNL     1       0.225  -6.958   4.771  0.00  0.00    +0.033 A 
ATOM      4  C   UNL     1      -0.787  -6.896   5.723  0.00  0.00    +0.025 A 
ATOM      5  C   UNL     1      -0.673  -7.599   6.907  0.00  0.00    +0.022 A 
ATOM      6  C   UNL     1       0.447  -8.369   7.153  0.00  0.00    +0.052 A 
ATOM      7  C   UNL     1       1.469  -8.438   6.203  0.00  0.00    +0.037 A 
ATOM      8  C   UNL     1       1.350  -7.732   5.006  0.00  0.00    +0.036 A 
ATOM      9 CL   UNL     1       0.585  -9.250   8.642  0.00  0.00    -0.083 Cl
BRANCH   7  10
ATOM     10  C   UNL     1       2.669  -9.261   6.463  0.00  0.00    +0.137 A 
ATOM     11  C   UNL     1       3.426  -9.233   7.591  0.00  0.00    +0.050 A 
ATOM     12  C   UNL     1       4.461 -10.172   7.410  0.00  0.00    +0.047 A 
ATOM     13  C   UNL     1       4.286 -10.721   6.192  0.00  0.00    +0.131 A 
ATOM     14  O   UNL     1       3.199 -10.172   5.625  0.00  0.00    -0.457 OA
BRANCH  13  15
ATOM     15  C   UNL     1       5.161 -11.780   5.572  0.00  0.00    +0.230 C 
BRANCH  15  16
ATOM     16  O   UNL     1       4.662 -13.073   5.919  0.00  0.00    -0.387 OA
ATOM     17  H   UNL     1       5.178 -13.805   5.553  0.00  0.00    +0.210 HD
ENDBRANCH  15  16
ENDBRANCH  13  15
ENDBRANCH   7  10
ENDBRANCH   1   3
BRANCH   1  18
ATOM     18  C   UNL     1      -0.307  -4.960   3.594  0.00  0.00    +0.141 C 
ATOM     19  S   UNL     1      -0.785  -4.237   5.070  0.00  0.00    -0.018 S 
BRANCH  18  22
ATOM     20  C   UNL     1      -0.753  -2.963   2.471  0.00  0.00    +0.253 C 
ATOM     21  O   UNL     1      -1.093  -2.449   3.519  0.00  0.00    -0.270 OA
ATOM     22  N   UNL     1      -0.342  -4.246   2.451  0.00  0.00    -0.263 N 
ATOM     23  H   UNL     1      -0.071  -4.656   1.615  0.00  0.00    +0.157 HD
BRANCH  20  29
ATOM     24  C   UNL     1      -1.708   1.314   0.065  0.00  0.00    +0.047 C 
ATOM     25  C   UNL     1      -1.250  -0.121   0.054  0.00  0.00    -0.008 A 
ATOM     26  C   UNL     1      -0.863  -0.714  -1.132  0.00  0.00    +0.007 A 
ATOM     27  C   UNL     1      -0.440  -2.032  -1.151  0.00  0.00    +0.001 A 
ATOM     28  C   UNL     1      -0.402  -2.768   0.014  0.00  0.00    +0.017 A 
ATOM     29  C   UNL     1      -0.791  -2.182   1.220  0.00  0.00    +0.079 A 
ATOM     30  C   UNL     1      -1.213  -0.845   1.237  0.00  0.00    +0.135 A 
BRANCH  30  31
ATOM     31  O   UNL     1      -1.589  -0.263   2.404  0.00  0.00    -0.494 OA
ATOM     32  C   UNL     1      -2.967  -0.366   2.766  0.00  0.00    +0.277 C 
ENDBRANCH  30  31
ENDBRANCH  20  29
ENDBRANCH  18  22
ENDBRANCH   1  18
TORSDOF 8
