REMARK  Name = ZINC02068946
REMARK  13 active torsions:
REMARK  status: ('A' for Active; 'I' for Inactive)
REMARK    1  A    between atoms: C_1  and  C_2
REMARK    2  A    between atoms: C_2  and  C_3
REMARK    3  A    between atoms: C_2  and  C_4
REMARK    4  A    between atoms: C_2  and  C_5
REMARK    5  A    between atoms: C_5  and  C_6
REMARK    6  A    between atoms: C_6  and  C_7
REMARK    7  A    between atoms: C_6  and  C_8
REMARK    8  A    between atoms: C_6  and  N_9
REMARK    9  A    between atoms: C_10  and  C_12
REMARK   10  A    between atoms: C_12  and  C_14
REMARK   11  A    between atoms: C_12  and  N_24
REMARK   12  A    between atoms: C_14  and  C_15
REMARK   13  A    between atoms: C_18  and  N_21
REMARK                            x       y       z     vdW  Elec       q    Type
REMARK                         _______ _______ _______ _____ _____    ______ ____
ROOT
ATOM      1  C   UNL     1      -2.603  -0.178   2.266  0.00  0.00    +0.175 C 
ENDROOT
BRANCH   1   2
ATOM      2  N   UNL     1      -1.221  -0.214   2.751  0.00  0.00    -0.222 N 
ATOM      3  C   UNL     1      -0.556  -1.339   3.069  0.00  0.00    +0.255 C 
ATOM      4  O   UNL     1      -0.998  -2.468   3.002  0.00  0.00    -0.270 OA
ATOM      5  C   UNL     1       0.807  -0.972   3.509  0.00  0.00    +0.049 A 
ATOM      6  C   UNL     1       1.911  -1.689   3.942  0.00  0.00    +0.014 A 
ATOM      7  C   UNL     1       3.073  -1.018   4.290  0.00  0.00    +0.001 A 
ATOM      8  C   UNL     1       3.137   0.360   4.208  0.00  0.00    +0.001 A 
ATOM      9  C   UNL     1       2.041   1.091   3.778  0.00  0.00    +0.014 A 
ATOM     10  C   UNL     1       0.873   0.434   3.427  0.00  0.00    +0.049 A 
ATOM     11  C   UNL     1      -0.452   0.873   2.939  0.00  0.00    +0.255 C 
ATOM     12  O   UNL     1      -0.788   2.022   2.737  0.00  0.00    -0.270 OA
ENDBRANCH   1   2
BRANCH   1  14
ATOM     13  N   UNL     1      -4.787   0.484   3.220  0.00  0.00    -0.309 N 
ATOM     14  C   UNL     1      -3.448   0.632   3.216  0.00  0.00    +0.235 C 
ATOM     15  O   UNL     1      -2.922   1.416   3.977  0.00  0.00    -0.274 OA
ATOM     16  H   UNL     1      -5.208  -0.144   2.612  0.00  0.00    +0.149 HD
BRANCH  13  17
ATOM     17  C   UNL     1      -5.608   1.271   4.144  0.00  0.00    +0.030 C 
ATOM     18  C   UNL     1      -5.141   1.023   5.580  0.00  0.00    +0.031 C 
ATOM     19  C   UNL     1      -5.467   2.758   3.811  0.00  0.00    +0.031 C 
BRANCH  17  20
ATOM     20  C   UNL     1      -7.074   0.854   4.005  0.00  0.00    +0.031 C 
BRANCH  20  22
ATOM     21  C   UNL     1      -6.645   0.771   1.545  0.00  0.00    +0.010 C 
ATOM     22  C   UNL     1      -7.597   1.278   2.631  0.00  0.00    -0.036 C 
ATOM     23  C   UNL     1      -8.988   0.681   2.409  0.00  0.00    +0.010 C 
ATOM     24  C   UNL     1      -7.679   2.804   2.565  0.00  0.00    +0.010 C 
ENDBRANCH  20  22
ENDBRANCH  17  20
ENDBRANCH  13  17
ENDBRANCH   1  14
BRANCH   1  25
ATOM     25  C   UNL     1      -2.640   0.463   0.878  0.00  0.00    +0.067 C 
BRANCH  25  26
ATOM     26  C   UNL     1      -1.898  -0.411  -0.100  0.00  0.00    -0.045 A 
ATOM     27  C   UNL     1      -0.544  -0.221  -0.307  0.00  0.00    +0.006 A 
ATOM     28  C   UNL     1       0.137  -1.026  -1.201  0.00  0.00    +0.033 A 
ATOM     29  C   UNL     1      -0.536  -2.016  -1.893  0.00  0.00    +0.126 A 
ATOM     30  C   UNL     1      -1.890  -2.202  -1.689  0.00  0.00    +0.033 A 
ATOM     31  C   UNL     1      -2.571  -1.400  -0.792  0.00  0.00    +0.006 A 
BRANCH  29  32
ATOM     32  N   UNL     1       0.193  -2.875  -2.852  0.00  0.00    +0.056 N 
ATOM     33  O   UNL     1      -0.400  -3.747  -3.462  0.00  0.00    -0.126 OA
ATOM     34  O   UNL     1       1.387  -2.711  -3.032  0.00  0.00    -0.126 OA
ENDBRANCH  29  32
ENDBRANCH  25  26
ENDBRANCH   1  25
TORSDOF 8
