REMARK  Name = ZINC67288928
REMARK  9 active torsions:
REMARK  status: ('A' for Active; 'I' for Inactive)
REMARK    1  A    between atoms: C_1  and  C_2
REMARK    2  A    between atoms: C_2  and  C_3
REMARK    3  A    between atoms: C_2  and  C_4
REMARK    4  A    between atoms: C_7  and  N_10
REMARK    5  A    between atoms: C_11  and  C_13
REMARK    6  A    between atoms: C_13  and  N_14
REMARK    7  A    between atoms: C_17  and  C_22
REMARK    8  A    between atoms: C_25  and  S_28
REMARK    9  A    between atoms: S_28  and  C_29
REMARK                            x       y       z     vdW  Elec       q    Type
REMARK                         _______ _______ _______ _____ _____    ______ ____
ROOT
ATOM      1  N   UNL     1      -7.495  -3.822  -2.292  0.00  0.00    -0.247 N 
ATOM      2  C   UNL     1      -7.892  -3.115  -3.390  0.00  0.00    +0.065 C 
ATOM      3  C   UNL     1      -8.147  -3.733  -4.563  0.00  0.00    +0.082 C 
ATOM      4  C   UNL     1      -7.979  -5.237  -4.621  0.00  0.00    +0.144 C 
ATOM      5  N   UNL     1      -7.547  -5.906  -3.382  0.00  0.00    -0.288 N 
ATOM      6  C   UNL     1      -7.325  -5.151  -2.288  0.00  0.00    +0.307 C 
ATOM      7  O   UNL     1      -6.964  -5.694  -1.263  0.00  0.00    -0.252 OA
ATOM      8  C   UNL     1      -8.536  -2.782  -5.525  0.00  0.00    +0.339 C 
ATOM      9  O   UNL     1      -8.828  -3.045  -6.676  0.00  0.00    -0.245 OA
ATOM     10  O   UNL     1      -8.540  -1.542  -5.000  0.00  0.00    -0.455 OA
ATOM     11  C   UNL     1      -8.141  -1.644  -3.627  0.00  0.00    +0.284 C 
ATOM     12  H   UNL     1      -7.422  -6.868  -3.355  0.00  0.00    +0.151 HD
ENDROOT
BRANCH   4  13
ATOM     13  C   UNL     1      -9.297  -5.836  -5.038  0.00  0.00    -0.022 A 
ATOM     14  C   UNL     1     -10.308  -5.995  -4.108  0.00  0.00    +0.007 A 
ATOM     15  C   UNL     1     -11.517  -6.545  -4.487  0.00  0.00    +0.015 A 
ATOM     16  C   UNL     1     -11.717  -6.938  -5.804  0.00  0.00    +0.008 A 
ATOM     17  C   UNL     1     -10.699  -6.776  -6.737  0.00  0.00    +0.015 A 
ATOM     18  C   UNL     1      -9.495  -6.221  -6.352  0.00  0.00    +0.007 A 
BRANCH  16  19
ATOM     19  S   UNL     1     -13.258  -7.640  -6.292  0.00  0.00    -0.129 S 
ATOM     20  C   UNL     1     -13.043  -7.984  -8.060  0.00  0.00    +0.090 C 
ENDBRANCH  16  19
ENDBRANCH   4  13
BRANCH   1  21
ATOM     21  C   UNL     1      -7.236  -3.087  -1.052  0.00  0.00    +0.211 C 
BRANCH  21  23
ATOM     22  N   UNL     1      -5.320  -1.968   0.042  0.00  0.00    -0.284 N 
ATOM     23  C   UNL     1      -5.790  -2.663  -1.013  0.00  0.00    +0.235 C 
ATOM     24  O   UNL     1      -5.050  -2.946  -1.931  0.00  0.00    -0.274 OA
ATOM     25  H   UNL     1      -5.894  -1.799   0.806  0.00  0.00    +0.155 HD
BRANCH  22  29
ATOM     26  C   UNL     1      -1.405  -0.544   0.021  0.00  0.00    -0.045 A 
ATOM     27  C   UNL     1      -1.701  -1.757  -0.574  0.00  0.00    +0.006 A 
ATOM     28  C   UNL     1      -2.998  -2.232  -0.568  0.00  0.00    +0.023 A 
ATOM     29  C   UNL     1      -4.005  -1.490   0.035  0.00  0.00    +0.033 A 
ATOM     30  C   UNL     1      -3.704  -0.272   0.632  0.00  0.00    +0.023 A 
ATOM     31  C   UNL     1      -2.404   0.195   0.627  0.00  0.00    +0.006 A 
BRANCH  26  33
ATOM     32  C   UNL     1       0.922  -1.030   0.727  0.00  0.00    +0.012 C 
ATOM     33  C   UNL     1       0.011  -0.029   0.013  0.00  0.00    +0.013 C 
ATOM     34  C   UNL     1       0.482   0.147  -1.432  0.00  0.00    +0.012 C 
ENDBRANCH  26  33
ENDBRANCH  22  29
ENDBRANCH  21  23
ENDBRANCH   1  21
TORSDOF 6
