REMARK  Name = ZINC40337423
REMARK  9 active torsions:
REMARK  status: ('A' for Active; 'I' for Inactive)
REMARK    1  A    between atoms: C_1  and  O_2
REMARK    2  A    between atoms: O_2  and  C_3
REMARK    3  A    between atoms: C_5  and  C_12
REMARK    4  A    between atoms: C_7  and  O_10
REMARK    5  A    between atoms: C_8  and  O_9
REMARK    6  A    between atoms: O_10  and  C_11
REMARK    7  A    between atoms: C_15  and  C_31
REMARK    8  A    between atoms: N_22  and  C_23
REMARK    9  A    between atoms: C_23  and  C_24
REMARK                            x       y       z     vdW  Elec       q    Type
REMARK                         _______ _______ _______ _____ _____    ______ ____
ROOT
ATOM      1  C   UNL     1       2.462   0.340   4.203  0.00  0.00    +0.142 C 
ATOM      2  C   UNL     1       1.560   0.374   5.406  0.00  0.00    +0.035 A 
ATOM      3  C   UNL     1       0.314   0.728   5.936  0.00  0.00    +0.099 A 
ATOM      4  N   UNL     1       0.315   0.383   7.209  0.00  0.00    -0.173 NA
ATOM      5  N   UNL     1       1.437  -0.152   7.535  0.00  0.00    -0.272 N 
ATOM      6  H   UNL     1       1.661  -0.481   8.419  0.00  0.00    +0.189 HD
ATOM      7  C   UNL     1       2.267  -0.190   6.450  0.00  0.00    +0.126 A 
ATOM      8  C   UNL     1       3.591  -0.585   5.957  0.00  0.00    +0.266 C 
ATOM      9  O   UNL     1       4.455  -1.111   6.633  0.00  0.00    -0.268 OA
ATOM     10  N   UNL     1       3.716  -0.280   4.652  0.00  0.00    -0.281 N 
ENDROOT
BRANCH   1  13
ATOM     11  C   UNL     1       0.626  -0.619   1.042  0.00  0.00    +0.165 A 
ATOM     12  C   UNL     1       1.202   0.138   2.051  0.00  0.00    +0.055 A 
ATOM     13  C   UNL     1       1.837  -0.486   3.109  0.00  0.00    -0.015 A 
ATOM     14  C   UNL     1       1.900  -1.866   3.166  0.00  0.00    +0.055 A 
ATOM     15  C   UNL     1       1.327  -2.630   2.160  0.00  0.00    +0.165 A 
ATOM     16  C   UNL     1       0.683  -2.006   1.098  0.00  0.00    +0.201 A 
BRANCH  11  18
ATOM     17  C   UNL     1      -0.017   1.425   0.010  0.00  0.00    +0.277 C 
ATOM     18  O   UNL     1       0.002  -0.004   0.002  0.00  0.00    -0.491 OA
ENDBRANCH  11  18
BRANCH  16  19
ATOM     19  O   UNL     1       0.114  -2.753   0.113  0.00  0.00    -0.501 OA
ATOM     20  H   UNL     1       0.710  -2.955  -0.621  0.00  0.00    +0.292 HD
ENDBRANCH  16  19
BRANCH  15  21
ATOM     21  O   UNL     1       1.390  -3.987   2.217  0.00  0.00    -0.491 OA
ATOM     22  C   UNL     1       2.062  -4.559   3.340  0.00  0.00    +0.277 C 
ENDBRANCH  15  21
ENDBRANCH   1  13
BRANCH   3  23
ATOM     23  C   UNL     1      -0.803   1.373   5.201  0.00  0.00    +0.002 A 
ATOM     24  C   UNL     1      -0.535   2.300   4.197  0.00  0.00    +0.010 A 
ATOM     25  C   UNL     1      -1.578   2.896   3.516  0.00  0.00    +0.001 A 
ATOM     26  C   UNL     1      -2.886   2.574   3.830  0.00  0.00    +0.000 A 
ATOM     27  C   UNL     1      -3.157   1.655   4.827  0.00  0.00    +0.001 A 
ATOM     28  C   UNL     1      -2.122   1.048   5.510  0.00  0.00    +0.010 A 
ENDBRANCH   3  23
BRANCH  10  29
ATOM     29  C   UNL     1       4.897  -0.525   3.821  0.00  0.00    +0.144 C 
BRANCH  29  30
ATOM     30  C   UNL     1       5.811   0.672   3.882  0.00  0.00    -0.030 A 
ATOM     31  C   UNL     1       5.664   1.702   2.972  0.00  0.00    +0.008 A 
ATOM     32  C   UNL     1       6.501   2.800   3.028  0.00  0.00    +0.038 A 
ATOM     33  C   UNL     1       7.489   2.868   3.996  0.00  0.00    +0.123 A 
ATOM     34  C   UNL     1       7.636   1.835   4.907  0.00  0.00    +0.038 A 
ATOM     35  C   UNL     1       6.794   0.741   4.853  0.00  0.00    +0.008 A 
ATOM     36  F   UNL     1       8.309   3.940   4.052  0.00  0.00    -0.205 F 
ENDBRANCH  29  30
ENDBRANCH  10  29
TORSDOF 7
