REMARK  Name = ZINC14645799
REMARK  10 active torsions:
REMARK  status: ('A' for Active; 'I' for Inactive)
REMARK    1  A    between atoms: C_1  and  C_2
REMARK    2  A    between atoms: C_2  and  C_3
REMARK    3  A    between atoms: C_2  and  C_4
REMARK    4  A    between atoms: C_4  and  C_5
REMARK    5  A    between atoms: C_5  and  O_6
REMARK    6  A    between atoms: O_6  and  C_7
REMARK    7  A    between atoms: C_10  and  C_14
REMARK    8  A    between atoms: N_16  and  C_17
REMARK    9  A    between atoms: C_17  and  N_19
REMARK   10  A    between atoms: N_19  and  C_20
REMARK                            x       y       z     vdW  Elec       q    Type
REMARK                         _______ _______ _______ _____ _____    ______ ____
ROOT
ATOM      1  C   UNL     1      -2.427   7.904  -0.241  0.00  0.00    +0.250 C 
ATOM      2  O   UNL     1      -3.473   7.285  -0.234  0.00  0.00    -0.270 OA
ATOM      3  N   UNL     1      -1.254   7.245  -0.153  0.00  0.00    -0.264 N 
ATOM      4  H   UNL     1      -0.419   7.739  -0.159  0.00  0.00    +0.157 HD
ENDROOT
BRANCH   1   8
ATOM      5  C   UNL     1      -2.466  12.140  -0.540  0.00  0.00    +0.134 A 
ATOM      6  C   UNL     1      -1.255  11.462  -0.450  0.00  0.00    +0.047 A 
ATOM      7  C   UNL     1      -1.239  10.089  -0.347  0.00  0.00    +0.017 A 
ATOM      8  C   UNL     1      -2.441   9.376  -0.345  0.00  0.00    +0.038 A 
ATOM      9  C   UNL     1      -3.656  10.060  -0.436  0.00  0.00    +0.032 A 
ATOM     10  C   UNL     1      -3.664  11.434  -0.532  0.00  0.00    +0.060 A 
ATOM     11 BR   UNL     1      -5.307  12.363  -0.656  0.00  0.00    -0.046 Br
BRANCH   5  12
ATOM     12  O   UNL     1      -2.478  13.494  -0.635  0.00  0.00    -0.491 OA
BRANCH  12  13
ATOM     13  C   UNL     1      -1.211  14.155  -0.637  0.00  0.00    +0.229 C 
BRANCH  13  14
ATOM     14  C   UNL     1      -1.425  15.666  -0.750  0.00  0.00    +0.044 C 
BRANCH  14  16
ATOM     15  C   UNL     1       0.711  15.980  -2.008  0.00  0.00    +0.007 C 
ATOM     16  C   UNL     1      -0.068  16.374  -0.752  0.00  0.00    -0.014 C 
ATOM     17  C   UNL     1      -0.284  17.889  -0.739  0.00  0.00    +0.007 C 
ENDBRANCH  14  16
ENDBRANCH  13  14
ENDBRANCH  12  13
ENDBRANCH   5  12
ENDBRANCH   1   8
BRANCH   3  18
ATOM     18  C   UNL     1      -1.242   5.901  -0.058  0.00  0.00    +0.141 C 
ATOM     19  S   UNL     1      -2.716   5.030  -0.049  0.00  0.00    -0.018 S 
BRANCH  18  20
ATOM     20  N   UNL     1      -0.069   5.243   0.029  0.00  0.00    -0.296 N 
ATOM     21  H   UNL     1       0.763   5.739   0.085  0.00  0.00    +0.154 HD
BRANCH  20  22
ATOM     22  C   UNL     1      -0.051   3.844   0.038  0.00  0.00    +0.035 A 
ATOM     23  C   UNL     1       0.859   3.155  -0.752  0.00  0.00    +0.043 A 
ATOM     24  C   UNL     1       0.874   1.772  -0.741  0.00  0.00    +0.044 A 
ATOM     25  C   UNL     1      -0.017   1.076   0.057  0.00  0.00    +0.040 A 
ATOM     26  C   UNL     1      -0.928   1.760   0.841  0.00  0.00    +0.044 A 
ATOM     27  C   UNL     1      -0.944   3.143   0.838  0.00  0.00    +0.043 A 
ATOM     28 CL   UNL     1      -2.049   0.882   1.835  0.00  0.00    -0.083 Cl
ATOM     29 CL   UNL     1       2.011   0.910  -1.729  0.00  0.00    -0.083 Cl
ENDBRANCH  20  22
ENDBRANCH  18  20
ENDBRANCH   3  18
TORSDOF 8
