REMARK  Name = ZINC03125384
REMARK  10 active torsions:
REMARK  status: ('A' for Active; 'I' for Inactive)
REMARK    1  A    between atoms: C_1  and  N_2
REMARK    2  A    between atoms: C_3  and  C_16
REMARK    3  A    between atoms: C_6  and  S_7
REMARK    4  A    between atoms: S_7  and  C_8
REMARK    5  A    between atoms: C_8  and  C_9
REMARK    6  A    between atoms: C_16  and  C_18
REMARK    7  A    between atoms: C_16  and  N_25
REMARK    8  A    between atoms: C_18  and  C_19
REMARK    9  A    between atoms: N_25  and  S_26
REMARK   10  A    between atoms: S_26  and  C_29
REMARK                            x       y       z     vdW  Elec       q    Type
REMARK                         _______ _______ _______ _____ _____    ______ ____
ROOT
ATOM      1  C   UNL     1       2.225  -2.556  -2.529  0.00  0.00    +0.148 C 
ENDROOT
BRANCH   1   4
ATOM      2  C   UNL     1       4.896  -3.801  -3.629  0.00  0.00    +0.152 C 
ATOM      3  N   UNL     1       3.541  -4.104  -4.096  0.00  0.00    -0.308 N 
ATOM      4  C   UNL     1       2.369  -3.573  -3.631  0.00  0.00    +0.153 A 
ATOM      5  N   UNL     1       1.401  -4.107  -4.321  0.00  0.00    -0.132 NA
ATOM      6  N   UNL     1       1.877  -4.935  -5.181  0.00  0.00    -0.122 NA
ATOM      7  C   UNL     1       3.185  -4.976  -5.085  0.00  0.00    +0.192 A 
BRANCH   7   8
ATOM      8  S   UNL     1       4.277  -5.963  -6.054  0.00  0.00    -0.081 S 
BRANCH   8   9
ATOM      9  C   UNL     1       3.078  -6.809  -7.113  0.00  0.00    +0.112 C 
BRANCH   9  10
ATOM     10  C   UNL     1       3.805  -7.736  -8.054  0.00  0.00    -0.037 A 
ATOM     11  C   UNL     1       4.220  -7.278  -9.291  0.00  0.00    +0.005 A 
ATOM     12  C   UNL     1       4.891  -8.126 -10.152  0.00  0.00    +0.015 A 
ATOM     13  C   UNL     1       5.139  -9.435  -9.780  0.00  0.00    +0.018 A 
ATOM     14  C   UNL     1       4.719  -9.894  -8.544  0.00  0.00    +0.015 A 
ATOM     15  C   UNL     1       4.053  -9.044  -7.682  0.00  0.00    +0.005 A 
ATOM     16 BR   UNL     1       6.051 -10.597 -10.960  0.00  0.00    -0.050 Br
ENDBRANCH   9  10
ENDBRANCH   8   9
ENDBRANCH   7   8
ENDBRANCH   1   4
BRANCH   1  17
ATOM     17  N   UNL     1       1.139  -2.958  -1.632  0.00  0.00    -0.179 NA
ATOM     18  H   UNL     1       0.223  -2.714  -1.840  0.00  0.00    +0.149 HD
BRANCH  17  19
ATOM     19  S   UNL     1       1.474  -3.829  -0.264  0.00  0.00    +0.059 S 
ATOM     20  O   UNL     1       2.286  -4.923  -0.668  0.00  0.00    -0.153 OA
ATOM     21  O   UNL     1       0.239  -4.008   0.416  0.00  0.00    -0.153 OA
BRANCH  19  22
ATOM     22  C   UNL     1       2.475  -2.812   0.769  0.00  0.00    +0.105 A 
ATOM     23  C   UNL     1       1.883  -1.909   1.632  0.00  0.00    +0.030 A 
ATOM     24  C   UNL     1       2.669  -1.111   2.443  0.00  0.00    +0.022 A 
ATOM     25  C   UNL     1       4.047  -1.217   2.390  0.00  0.00    +0.041 A 
ATOM     26  C   UNL     1       4.639  -2.121   1.526  0.00  0.00    +0.022 A 
ATOM     27  C   UNL     1       3.853  -2.918   0.716  0.00  0.00    +0.030 A 
ATOM     28 CL   UNL     1       5.034  -0.215   3.408  0.00  0.00    -0.084 Cl
ENDBRANCH  19  22
ENDBRANCH  17  19
ENDBRANCH   1  17
BRANCH   1  29
ATOM     29  C   UNL     1       1.905  -1.188  -3.136  0.00  0.00    +0.063 C 
BRANCH  29  30
ATOM     30  C   UNL     1       1.896  -0.145  -2.049  0.00  0.00    -0.045 A 
ATOM     31  C   UNL     1       0.735   0.106  -1.342  0.00  0.00    +0.004 A 
ATOM     32  C   UNL     1       0.728   1.060  -0.341  0.00  0.00    +0.000 A 
ATOM     33  C   UNL     1       1.880   1.769  -0.053  0.00  0.00    +0.000 A 
ATOM     34  C   UNL     1       3.040   1.521  -0.764  0.00  0.00    +0.000 A 
ATOM     35  C   UNL     1       3.048   0.564  -1.761  0.00  0.00    +0.004 A 
ENDBRANCH  29  30
ENDBRANCH   1  29
TORSDOF 9
