REMARK  Name = ZINC39753509
REMARK  9 active torsions:
REMARK  status: ('A' for Active; 'I' for Inactive)
REMARK    1  A    between atoms: C_1  and  C_2
REMARK    2  A    between atoms: C_4  and  C_9
REMARK    3  A    between atoms: C_5  and  C_8
REMARK    4  A    between atoms: C_9  and  C_10
REMARK    5  A    between atoms: C_13  and  N_16
REMARK    6  A    between atoms: N_16  and  C_17
REMARK    7  A    between atoms: C_17  and  N_19
REMARK    8  A    between atoms: C_20  and  C_22
REMARK    9  A    between atoms: C_25  and  C_27
REMARK                            x       y       z     vdW  Elec       q    Type
REMARK                         _______ _______ _______ _____ _____    ______ ____
ROOT
ATOM      1  C   UNL     1      -3.264  -5.486  -3.808  0.00  0.00    +0.141 C 
ATOM      2  S   UNL     1      -2.154  -5.847  -2.556  0.00  0.00    -0.018 S 
ENDROOT
BRANCH   1   3
ATOM      3  N   UNL     1      -4.088  -6.444  -4.276  0.00  0.00    -0.261 N 
ATOM      4  C   UNL     1      -4.038  -7.688  -3.757  0.00  0.00    +0.285 C 
ATOM      5  O   UNL     1      -3.248  -7.944  -2.867  0.00  0.00    -0.266 OA
ATOM      6  H   UNL     1      -4.717  -6.240  -4.985  0.00  0.00    +0.157 HD
BRANCH   4   7
ATOM      7  C   UNL     1      -4.933  -8.729  -4.265  0.00  0.00    +0.190 A 
ATOM      8  C   UNL     1      -4.989 -10.033  -3.823  0.00  0.00    +0.055 A 
ATOM      9  C   UNL     1      -5.977 -10.672  -4.579  0.00  0.00    +0.051 A 
ATOM     10  C   UNL     1      -6.482  -9.746  -5.445  0.00  0.00    +0.137 A 
ATOM     11  O   UNL     1      -5.850  -8.578  -5.244  0.00  0.00    -0.450 OA
BRANCH  10  12
ATOM     12  C   UNL     1      -7.551  -9.986  -6.436  0.00  0.00    +0.037 A 
ATOM     13  C   UNL     1      -7.475 -11.083  -7.297  0.00  0.00    +0.013 A 
ATOM     14  C   UNL     1      -8.476 -11.303  -8.220  0.00  0.00    +0.002 A 
ATOM     15  C   UNL     1      -9.556 -10.440  -8.294  0.00  0.00    +0.021 A 
ATOM     16  C   UNL     1      -9.639  -9.350  -7.445  0.00  0.00    +0.060 A 
ATOM     17  C   UNL     1      -8.645  -9.121  -6.512  0.00  0.00    +0.070 A 
ATOM     18 CL   UNL     1      -8.753  -7.758  -5.441  0.00  0.00    -0.081 Cl
ATOM     19 CL   UNL     1     -10.996  -8.273  -7.547  0.00  0.00    -0.082 Cl
ENDBRANCH  10  12
ENDBRANCH   4   7
ENDBRANCH   1   3
BRANCH   1  20
ATOM     20  N   UNL     1      -3.314  -4.243  -4.327  0.00  0.00    -0.297 N 
ATOM     21  H   UNL     1      -3.996  -4.016  -4.978  0.00  0.00    +0.154 HD
BRANCH  20  25
ATOM     22  C   UNL     1      -0.541  -1.373  -3.131  0.00  0.00    -0.043 A 
ATOM     23  C   UNL     1      -0.130  -2.671  -3.375  0.00  0.00    +0.006 A 
ATOM     24  C   UNL     1      -1.046  -3.624  -3.771  0.00  0.00    +0.023 A 
ATOM     25  C   UNL     1      -2.383  -3.279  -3.925  0.00  0.00    +0.033 A 
ATOM     26  C   UNL     1      -2.793  -1.975  -3.678  0.00  0.00    +0.023 A 
ATOM     27  C   UNL     1      -1.872  -1.028  -3.277  0.00  0.00    +0.006 A 
BRANCH  22  28
ATOM     28  C   UNL     1       0.462  -0.335  -2.698  0.00  0.00    +0.070 C 
BRANCH  28  31
ATOM     29  C   UNL     1      -0.216   1.930  -0.422  0.00  0.00    +0.039 C 
ATOM     30  C   UNL     1      -0.318   0.419  -0.205  0.00  0.00    +0.153 C 
ATOM     31  C   UNL     1       0.559  -0.326  -1.194  0.00  0.00    -0.017 C 
ATOM     32  C   UNL     1       1.436  -0.972  -0.423  0.00  0.00    +0.062 C 
ATOM     33  N   UNL     1       1.205  -0.717   0.884  0.00  0.00    -0.159 NA
ATOM     34  N   UNL     1       0.252   0.041   1.100  0.00  0.00    -0.180 NA
ATOM     35  C   UNL     1       2.535  -1.865  -0.940  0.00  0.00    +0.067 C 
ENDBRANCH  28  31
ENDBRANCH  22  28
ENDBRANCH  20  25
ENDBRANCH   1  20
TORSDOF 7
