REMARK  Name = ZINC16812947
REMARK  9 active torsions:
REMARK  status: ('A' for Active; 'I' for Inactive)
REMARK    1  A    between atoms: N_9  and  C_23
REMARK    2  A    between atoms: C_10  and  S_12
REMARK    3  A    between atoms: S_12  and  C_13
REMARK    4  A    between atoms: C_13  and  C_14
REMARK    5  A    between atoms: C_17  and  C_20
REMARK    6  A    between atoms: C_23  and  C_24
REMARK    7  A    between atoms: C_24  and  C_25
REMARK    8  A    between atoms: C_28  and  S_31
REMARK    9  A    between atoms: S_31  and  N_34
REMARK                            x       y       z     vdW  Elec       q    Type
REMARK                         _______ _______ _______ _____ _____    ______ ____
ROOT
ATOM      1  C   UNL     1       1.288  -8.996   0.598  0.00  0.00    +0.001 A 
ATOM      2  C   UNL     1       1.290  -8.079   1.641  0.00  0.00    +0.002 A 
ATOM      3  C   UNL     1       1.275  -6.735   1.395  0.00  0.00    +0.028 A 
ATOM      4  C   UNL     1       1.257  -6.273   0.075  0.00  0.00    +0.079 A 
ATOM      5  C   UNL     1       1.255  -7.210  -0.984  0.00  0.00    +0.065 A 
ATOM      6  C   UNL     1       1.270  -8.576  -0.703  0.00  0.00    +0.015 A 
ATOM      7  C   UNL     1       1.237  -6.700  -2.361  0.00  0.00    +0.262 A 
ATOM      8  O   UNL     1       1.234  -7.457  -3.315  0.00  0.00    -0.267 OA
ATOM      9  N   UNL     1       1.223  -5.358  -2.531  0.00  0.00    -0.287 N 
ATOM     10  C   UNL     1       1.227  -4.524  -1.449  0.00  0.00    +0.172 A 
ATOM     11  N   UNL     1       1.248  -4.956  -0.213  0.00  0.00    -0.223 NA
ENDROOT
BRANCH  10  12
ATOM     12  S   UNL     1       1.209  -2.784  -1.730  0.00  0.00    -0.083 S 
BRANCH  12  13
ATOM     13  C   UNL     1       1.221  -2.189  -0.021  0.00  0.00    +0.112 C 
BRANCH  13  14
ATOM     14  C   UNL     1       1.208  -0.682  -0.013  0.00  0.00    -0.037 A 
ATOM     15  C   UNL     1       0.002  -0.004   0.002  0.00  0.00    +0.005 A 
ATOM     16  C   UNL     1      -0.017   1.375   0.010  0.00  0.00    +0.013 A 
ATOM     17  C   UNL     1       1.184   2.087   0.002  0.00  0.00    +0.037 A 
ATOM     18  C   UNL     1       2.397   1.396  -0.013  0.00  0.00    +0.013 A 
ATOM     19  C   UNL     1       2.402   0.016  -0.021  0.00  0.00    +0.005 A 
BRANCH  17  20
ATOM     20  C   UNL     1       1.172   3.565   0.009  0.00  0.00    +0.242 C 
ATOM     21  O   UNL     1       0.114   4.164   0.022  0.00  0.00    -0.270 OA
ATOM     22  N   UNL     1       2.333   4.249   0.002  0.00  0.00    -0.325 N 
ATOM     23  H   UNL     1       3.177   3.771  -0.008  0.00  0.00    +0.145 HD
ATOM     24  H   UNL     1       2.325   5.219   0.007  0.00  0.00    +0.145 HD
ENDBRANCH  17  20
ENDBRANCH  13  14
ENDBRANCH  12  13
ENDBRANCH  10  12
BRANCH   9  25
ATOM     25  C   UNL     1       1.205  -4.795  -3.883  0.00  0.00    +0.132 C 
BRANCH  25  26
ATOM     26  C   UNL     1       2.641  -4.587  -4.368  0.00  0.00    +0.057 C 
BRANCH  26  27
ATOM     27  C   UNL     1       2.623  -4.009  -5.760  0.00  0.00    -0.046 A 
ATOM     28  C   UNL     1       2.625  -4.848  -6.857  0.00  0.00    +0.005 A 
ATOM     29  C   UNL     1       2.604  -4.318  -8.134  0.00  0.00    +0.029 A 
ATOM     30  C   UNL     1       2.589  -2.947  -8.312  0.00  0.00    +0.105 A 
ATOM     31  C   UNL     1       2.592  -2.107  -7.214  0.00  0.00    +0.029 A 
ATOM     32  C   UNL     1       2.610  -2.638  -5.938  0.00  0.00    +0.005 A 
BRANCH  30  33
ATOM     33  S   UNL     1       2.567  -2.271  -9.939  0.00  0.00    +0.056 S 
ATOM     34  O   UNL     1       2.017  -3.270 -10.787  0.00  0.00    -0.153 OA
ATOM     35  O   UNL     1       2.005  -0.970  -9.830  0.00  0.00    -0.153 OA
BRANCH  33  36
ATOM     36  N   UNL     1       4.142  -2.068 -10.407  0.00  0.00    -0.204 NA
ATOM     37  H   UNL     1       4.381  -2.131 -11.345  0.00  0.00    +0.144 HD
ATOM     38  H   UNL     1       4.825  -1.885  -9.743  0.00  0.00    +0.144 HD
ENDBRANCH  33  36
ENDBRANCH  30  33
ENDBRANCH  26  27
ENDBRANCH  25  26
ENDBRANCH   9  25
TORSDOF 9
