REMARK  Name = ZINC20569016
REMARK  5 active torsions:
REMARK  status: ('A' for Active; 'I' for Inactive)
REMARK    1  A    between atoms: C_1  and  C_2
REMARK    2  A    between atoms: C_3  and  C_20
REMARK    3  A    between atoms: C_20  and  O_22
REMARK    4  A    between atoms: O_22  and  C_23
REMARK    5  A    between atoms: C_23  and  C_24
REMARK                            x       y       z     vdW  Elec       q    Type
REMARK                         _______ _______ _______ _____ _____    ______ ____
ROOT
ATOM      1  C   UNL     1       6.882   1.841   1.444  0.00  0.00    +0.061 C 
ATOM      2  C   UNL     1       5.637   2.057   0.623  0.00  0.00    +0.019 C 
ATOM      3  C   UNL     1       4.413   2.262   1.151  0.00  0.00    +0.079 C 
ATOM      4  C   UNL     1       3.483   2.425  -0.024  0.00  0.00    +0.151 C 
ATOM      5  C   UNL     1       2.396   1.389  -0.015  0.00  0.00    -0.011 A 
ATOM      6  C   UNL     1       2.401   0.013  -0.022  0.00  0.00    +0.006 A 
ATOM      7  C   UNL     1       1.206  -0.686  -0.013  0.00  0.00    +0.000 A 
ATOM      8  C   UNL     1       0.002  -0.004   0.002  0.00  0.00    +0.001 A 
ATOM      9  C   UNL     1      -0.017   1.374   0.010  0.00  0.00    +0.012 A 
ATOM     10  C   UNL     1       1.185   2.089   0.002  0.00  0.00    +0.024 A 
ATOM     11  C   UNL     1       1.462   3.539   0.010  0.00  0.00    +0.162 A 
ATOM     12  C   UNL     1       2.800   3.763  -0.004  0.00  0.00    +0.113 A 
ATOM     13  N   UNL     1       2.993   5.091   0.005  0.00  0.00    -0.198 NA
ATOM     14  C   UNL     1       1.825   5.688   0.023  0.00  0.00    +0.286 A 
ATOM     15  O   UNL     1       0.861   4.755   0.026  0.00  0.00    -0.424 OA
ATOM     16  N   UNL     1       1.622   7.053   0.038  0.00  0.00    -0.313 N 
ATOM     17  C   UNL     1       4.377   2.279  -1.229  0.00  0.00    +0.238 C 
ATOM     18  O   UNL     1       4.049   2.340  -2.395  0.00  0.00    -0.274 OA
ATOM     19  N   UNL     1       5.616   2.067  -0.741  0.00  0.00    -0.288 N 
ATOM     20  H   UNL     1       0.599   7.456   0.053  0.00  0.00    +0.147 HD
ATOM     21  H   UNL     1       2.483   7.737   0.035  0.00  0.00    +0.147 HD
ATOM     22  H   UNL     1       6.547   1.911  -1.306  0.00  0.00    +0.155 HD
ENDROOT
BRANCH   3  23
ATOM     23  C   UNL     1       4.073   2.313   2.524  0.00  0.00    +0.339 C 
ATOM     24  O   UNL     1       4.934   2.163   3.370  0.00  0.00    -0.245 OA
BRANCH  23  25
ATOM     25  O   UNL     1       2.793   2.528   2.894  0.00  0.00    -0.457 OA
BRANCH  25  26
ATOM     26  C   UNL     1       2.522   2.568   4.297  0.00  0.00    +0.259 C 
BRANCH  26  27
ATOM     27  C   UNL     1       1.052   2.816   4.517  0.00  0.00    +0.006 C 
ATOM     28  C   UNL     1       0.394   2.110   5.403  0.00  0.00    +0.007 C 
ENDBRANCH  26  27
ENDBRANCH  25  26
ENDBRANCH  23  25
ENDBRANCH   3  23
TORSDOF 4
