REMARK  Name = ZINC22779556
REMARK  6 active torsions:
REMARK  status: ('A' for Active; 'I' for Inactive)
REMARK    1  A    between atoms: C_1  and  C_2
REMARK    2  A    between atoms: C_3  and  C_20
REMARK    3  A    between atoms: C_4  and  C_12
REMARK    4  A    between atoms: C_6  and  C_10
REMARK    5  A    between atoms: C_7  and  N_9
REMARK    6  A    between atoms: N_25  and  C_28
REMARK                            x       y       z     vdW  Elec       q    Type
REMARK                         _______ _______ _______ _____ _____    ______ ____
ROOT
ATOM      1  C   UNL     1      -3.678   3.632   0.667  0.00  0.00    +0.087 C 
ATOM      2  C   UNL     1      -3.029   2.326   0.288  0.00  0.00    +0.113 C 
ATOM      3  C   UNL     1      -2.179   1.750   1.145  0.00  0.00    +0.065 C 
ATOM      4  C   UNL     1      -1.505   0.446   0.817  0.00  0.00    +0.104 C 
ATOM      5  C   UNL     1      -1.614   0.168  -0.657  0.00  0.00    +0.098 C 
ATOM      6  C   UNL     1      -2.506   0.840  -1.425  0.00  0.00    +0.198 C 
ATOM      7  O   UNL     1      -3.321   1.774  -0.901  0.00  0.00    -0.445 OA
ENDROOT
BRANCH   4   8
ATOM      8  C   UNL     1      -2.167  -0.667   1.587  0.00  0.00    -0.016 A 
ATOM      9  C   UNL     1      -3.530  -0.871   1.472  0.00  0.00    +0.007 A 
ATOM     10  C   UNL     1      -4.137  -1.896   2.173  0.00  0.00    +0.020 A 
ATOM     11  C   UNL     1      -3.381  -2.719   2.990  0.00  0.00    +0.042 A 
ATOM     12  C   UNL     1      -2.018  -2.515   3.105  0.00  0.00    +0.040 A 
ATOM     13  C   UNL     1      -1.411  -1.489   2.404  0.00  0.00    +0.046 A 
ATOM     14 CL   UNL     1       0.300  -1.232   2.547  0.00  0.00    -0.083 Cl
ATOM     15 CL   UNL     1      -4.144  -4.006   3.869  0.00  0.00    -0.083 Cl
ENDBRANCH   4   8
BRANCH   3  16
ATOM     16  C   UNL     1      -1.901   2.400   2.425  0.00  0.00    +0.247 C 
ATOM     17  O   UNL     1      -2.494   2.048   3.428  0.00  0.00    -0.270 OA
ATOM     18  N   UNL     1      -0.987   3.388   2.494  0.00  0.00    -0.295 N 
ATOM     19  C   UNL     1      -0.175   3.749   1.322  0.00  0.00    +0.127 C 
ATOM     20  C   UNL     1      -0.281   5.268   1.112  0.00  0.00    +0.124 C 
ATOM     21  N   UNL     1       0.086   5.956   2.357  0.00  0.00    -0.327 N 
ATOM     22  C   UNL     1      -0.850   5.630   3.442  0.00  0.00    +0.124 C 
ATOM     23  C   UNL     1      -0.772   4.130   3.746  0.00  0.00    +0.127 C 
BRANCH  21  24
ATOM     24  C   UNL     1       0.164   7.338   2.161  0.00  0.00    +0.030 A 
ATOM     25  C   UNL     1      -0.596   8.196   2.946  0.00  0.00    +0.026 A 
ATOM     26  C   UNL     1      -0.514   9.561   2.755  0.00  0.00    +0.040 A 
ATOM     27  C   UNL     1       0.318  10.075   1.773  0.00  0.00    +0.124 A 
ATOM     28  C   UNL     1       1.072   9.221   0.986  0.00  0.00    +0.040 A 
ATOM     29  C   UNL     1       0.997   7.856   1.178  0.00  0.00    +0.026 A 
ATOM     30  F   UNL     1       0.393  11.410   1.584  0.00  0.00    -0.205 F 
ENDBRANCH  21  24
ENDBRANCH   3  16
BRANCH   6  31
ATOM     31  N   UNL     1      -2.581   0.562  -2.768  0.00  0.00    -0.328 N 
ATOM     32  H   UNL     1      -3.300   1.100  -3.402  0.00  0.00    +0.145 HD
ATOM     33  H   UNL     1      -1.921  -0.200  -3.208  0.00  0.00    +0.145 HD
ENDBRANCH   6  31
BRANCH   5  34
ATOM     34  C   UNL     1      -0.766  -0.817  -1.257  0.00  0.00    +0.101 C 
ATOM     35  N   UNL     1      -0.093  -1.599  -1.732  0.00  0.00    -0.191 NA
ENDBRANCH   5  34
TORSDOF 5
