REMARK  Name = ZINC09550274
REMARK  14 active torsions:
REMARK  status: ('A' for Active; 'I' for Inactive)
REMARK    1  A    between atoms: C_4  and  C_7
REMARK    2  A    between atoms: C_7  and  N_62
REMARK    3  A    between atoms: C_8  and  C_9
REMARK    4  A    between atoms: C_8  and  N_62
REMARK    5  A    between atoms: C_9  and  O_10
REMARK    6  A    between atoms: C_11  and  C_12
REMARK    7  A    between atoms: C_11  and  N_62
REMARK    8  A    between atoms: C_12  and  C_14
REMARK    9  A    between atoms: C_12  and  O_33
REMARK   10  A    between atoms: C_14  and  O_15
REMARK   11  A    between atoms: O_15  and  C_16
REMARK   12  A    between atoms: C_19  and  S_25
REMARK   13  A    between atoms: C_21  and  N_22
REMARK   14  A    between atoms: S_25  and  N_28
REMARK                            x       y       z     vdW  Elec       q    Type
REMARK                         _______ _______ _______ _____ _____    ______ ____
ROOT
ATOM      1  C   UNL     1      -2.515   3.522   6.225  0.00  0.00    +0.258 C 
ENDROOT
BRANCH   1   2
ATOM      2  C   UNL     1      -3.502   4.108   7.237  0.00  0.00    +0.135 C 
BRANCH   2   3
ATOM      3  O   UNL     1      -4.839   3.869   6.793  0.00  0.00    -0.390 OA
ATOM      4  H   UNL     1      -5.044   4.262   5.934  0.00  0.00    +0.210 HD
ENDBRANCH   2   3
BRANCH   2   5
ATOM      5  C   UNL     1      -3.268   5.615   7.363  0.00  0.00    -0.043 C 
BRANCH   5   6
ATOM      6  N   UNL     1      -4.093   6.131   8.475  0.00  0.00    +0.386 N 
ATOM      7  H   UNL     1      -4.040   5.474   9.262  0.00  0.00    -0.081 HD
BRANCH   6   8
ATOM      8  C   UNL     1      -3.582   7.447   8.915  0.00  0.00    -0.043 C 
BRANCH   8  12
ATOM      9  C   UNL     1       0.310   6.925  10.597  0.00  0.00    +0.000 A 
ATOM     10  C   UNL     1       0.174   7.320   9.279  0.00  0.00    +0.000 A 
ATOM     11  C   UNL     1      -1.085   7.488   8.735  0.00  0.00    +0.002 A 
ATOM     12  C   UNL     1      -2.209   7.263   9.508  0.00  0.00    -0.064 A 
ATOM     13  C   UNL     1      -2.073   6.873  10.827  0.00  0.00    +0.002 A 
ATOM     14  C   UNL     1      -0.814   6.699  11.370  0.00  0.00    +0.000 A 
ENDBRANCH   8  12
ENDBRANCH   6   8
BRANCH   6  15
ATOM     15  C   UNL     1      -5.501   6.255   8.045  0.00  0.00    -0.050 C 
BRANCH  15  16
ATOM     16  C   UNL     1      -6.383   6.395   9.287  0.00  0.00    +0.137 C 
BRANCH  16  17
ATOM     17  O   UNL     1      -6.134   7.658   9.908  0.00  0.00    -0.397 OA
ATOM     18  H   UNL     1      -6.603   7.784  10.744  0.00  0.00    +0.209 HD
ENDBRANCH  16  17
ENDBRANCH  15  16
ENDBRANCH   6  15
ENDBRANCH   5   6
ENDBRANCH   2   5
ENDBRANCH   1   2
BRANCH   1  19
ATOM     19  O   UNL     1      -2.655   2.100   6.193  0.00  0.00    -0.487 OA
BRANCH  19  20
ATOM     20  C   UNL     1      -1.845   1.420   5.340  0.00  0.00    +0.151 A 
ATOM     21  C   UNL     1      -0.935   2.107   4.549  0.00  0.00    +0.050 A 
ATOM     22  C   UNL     1      -0.110   1.412   3.686  0.00  0.00    +0.032 A 
ATOM     23  C   UNL     1      -0.197   0.035   3.602  0.00  0.00    +0.108 A 
ATOM     24  C   UNL     1      -1.103  -0.652   4.389  0.00  0.00    +0.065 A 
ATOM     25  C   UNL     1      -1.927   0.037   5.258  0.00  0.00    +0.169 A 
BRANCH  25  26
ATOM     26  N   UNL     1      -2.896  -0.699   6.100  0.00  0.00    +0.060 N 
ATOM     27  O   UNL     1      -2.967  -1.912   6.028  0.00  0.00    -0.126 OA
ATOM     28  O   UNL     1      -3.623  -0.090   6.866  0.00  0.00    -0.126 OA
ENDBRANCH  25  26
BRANCH  23  29
ATOM     29  S   UNL     1       0.853  -0.848   2.496  0.00  0.00    +0.061 S 
ATOM     30  O   UNL     1       0.960  -2.170   3.005  0.00  0.00    -0.153 OA
ATOM     31  O   UNL     1       1.988  -0.024   2.269  0.00  0.00    -0.153 OA
BRANCH  29  32
ATOM     32  N   UNL     1       0.054  -0.961   1.049  0.00  0.00    -0.177 NA
ATOM     33  C   UNL     1      -0.847  -2.052   0.651  0.00  0.00    +0.109 C 
ATOM     34  C   UNL     1      -1.335  -1.744  -0.780  0.00  0.00    +0.018 C 
ATOM     35  C   UNL     1      -0.234  -0.796  -1.324  0.00  0.00    +0.018 C 
ATOM     36  C   UNL     1       0.135   0.013  -0.055  0.00  0.00    +0.109 C 
ENDBRANCH  29  32
ENDBRANCH  23  29
ENDBRANCH  19  20
ENDBRANCH   1  19
TORSDOF 14
