REMARK  Name = ZINC40812130
REMARK  9 active torsions:
REMARK  status: ('A' for Active; 'I' for Inactive)
REMARK    1  A    between atoms: C_1  and  C_2
REMARK    2  A    between atoms: C_6  and  C_7
REMARK    3  A    between atoms: C_7  and  O_9
REMARK    4  A    between atoms: O_9  and  C_10
REMARK    5  A    between atoms: C_10  and  C_11
REMARK    6  A    between atoms: C_10  and  C_12
REMARK    7  A    between atoms: N_17  and  N_18
REMARK    8  A    between atoms: C_19  and  C_21
REMARK    9  A    between atoms: C_24  and  O_27
REMARK                            x       y       z     vdW  Elec       q    Type
REMARK                         _______ _______ _______ _____ _____    ______ ____
ROOT
ATOM      1  C   UNL     1      -0.018   1.503   0.010  0.00  0.00    +0.048 C 
ATOM      2  C   UNL     1       0.002  -0.004   0.002  0.00  0.00    +0.011 A 
ATOM      3  C   UNL     1       0.008  -0.838  -1.122  0.00  0.00    +0.042 A 
ATOM      4  C   UNL     1       0.026  -2.138  -0.672  0.00  0.00    +0.115 A 
ATOM      5  O   UNL     1       0.034  -2.112   0.658  0.00  0.00    -0.452 OA
ATOM      6  C   UNL     1       0.024  -0.831   1.091  0.00  0.00    +0.215 A 
ATOM      7  C   UNL     1       0.033  -3.327  -1.599  0.00  0.00    +0.075 C 
ATOM      8  C   UNL     1      -0.492  -2.902  -2.974  0.00  0.00    +0.014 C 
ATOM      9  C   UNL     1       0.280  -1.685  -3.494  0.00  0.00    +0.058 C 
ATOM     10  C   UNL     1       0.001  -0.512  -2.566  0.00  0.00    +0.070 C 
ATOM     11  N   UNL     1      -0.227   0.687  -3.007  0.00  0.00    -0.184 NA
ENDROOT
BRANCH  11  12
ATOM     12  N   UNL     1      -0.222   0.938  -4.386  0.00  0.00    -0.203 N 
ATOM     13  C   UNL     1      -0.459   2.183  -4.844  0.00  0.00    +0.263 C 
ATOM     14  O   UNL     1      -0.677   3.088  -4.062  0.00  0.00    -0.268 OA
ATOM     15  H   UNL     1      -0.048   0.216  -5.010  0.00  0.00    +0.178 HD
BRANCH  13  16
ATOM     16  C   UNL     1      -0.454   2.448  -6.296  0.00  0.00    +0.039 A 
ATOM     17  C   UNL     1      -0.209   1.408  -7.197  0.00  0.00    +0.016 A 
ATOM     18  C   UNL     1      -0.204   1.659  -8.551  0.00  0.00    +0.046 A 
ATOM     19  C   UNL     1      -0.443   2.945  -9.022  0.00  0.00    +0.117 A 
ATOM     20  C   UNL     1      -0.687   3.982  -8.129  0.00  0.00    +0.046 A 
ATOM     21  C   UNL     1      -0.699   3.738  -6.774  0.00  0.00    +0.016 A 
BRANCH  19  22
ATOM     22  O   UNL     1      -0.438   3.189 -10.357  0.00  0.00    -0.507 OA
ATOM     23  H   UNL     1      -1.302   3.086 -10.779  0.00  0.00    +0.292 HD
ENDBRANCH  19  22
ENDBRANCH  13  16
ENDBRANCH  11  12
BRANCH   6  24
ATOM     24  C   UNL     1       0.032  -0.401   2.493  0.00  0.00    +0.375 C 
ATOM     25  O   UNL     1       0.019   0.784   2.765  0.00  0.00    -0.241 OA
BRANCH  24  26
ATOM     26  O   UNL     1       0.055  -1.320   3.480  0.00  0.00    -0.456 OA
BRANCH  26  27
ATOM     27  C   UNL     1       0.062  -0.829   4.822  0.00  0.00    +0.171 C 
ATOM     28  C   UNL     1      -1.378  -0.674   5.316  0.00  0.00    +0.052 C 
ATOM     29  C   UNL     1       0.805  -1.818   5.722  0.00  0.00    +0.052 C 
ENDBRANCH  26  27
ENDBRANCH  24  26
ENDBRANCH   6  24
TORSDOF 6
