REMARK  Name = ZINC63280922
REMARK  6 active torsions:
REMARK  status: ('A' for Active; 'I' for Inactive)
REMARK    1  A    between atoms: C_7  and  C_13
REMARK    2  A    between atoms: C_13  and  C_14
REMARK    3  A    between atoms: C_19  and  C_22
REMARK    4  A    between atoms: N_24  and  C_25
REMARK    5  A    between atoms: C_25  and  C_26
REMARK    6  A    between atoms: C_26  and  C_27
REMARK                            x       y       z     vdW  Elec       q    Type
REMARK                         _______ _______ _______ _____ _____    ______ ____
ROOT
ATOM      1  C   UNL     1       0.554  -4.205   1.181  0.00  0.00    +0.218 C 
ATOM      2  O   UNL     1       1.064  -4.798   0.254  0.00  0.00    -0.276 OA
ATOM      3  N   UNL     1      -0.037  -4.893   2.178  0.00  0.00    -0.301 N 
ATOM      4  C   UNL     1      -0.664  -4.188   3.304  0.00  0.00    +0.108 C 
ATOM      5  C   UNL     1      -2.108  -4.679   3.451  0.00  0.00    +0.032 C 
ATOM      6  C   UNL     1      -2.113  -6.204   3.582  0.00  0.00    +0.078 C 
ATOM      7  C   UNL     1      -1.516  -6.828   2.318  0.00  0.00    +0.032 C 
ATOM      8  C   UNL     1      -0.071  -6.361   2.156  0.00  0.00    +0.108 C 
ENDROOT
BRANCH   6   9
ATOM      9  C   UNL     1      -3.529  -6.688   3.760  0.00  0.00    +0.216 C 
ATOM     10  O   UNL     1      -4.444  -5.891   3.781  0.00  0.00    -0.276 OA
ATOM     11  N   UNL     1      -3.779  -8.005   3.897  0.00  0.00    -0.315 N 
ATOM     12  H   UNL     1      -3.047  -8.642   3.881  0.00  0.00    +0.149 HD
BRANCH  11  13
ATOM     13  C   UNL     1      -5.155  -8.475   4.070  0.00  0.00    +0.108 C 
BRANCH  13  14
ATOM     14  C   UNL     1      -5.161  -9.999   4.201  0.00  0.00    +0.052 C 
BRANCH  14  15
ATOM     15  C   UNL     1      -6.577 -10.483   4.380  0.00  0.00    -0.040 C 
ATOM     16  C   UNL     1      -7.412 -10.929   3.413  0.00  0.00    +0.000 A 
ATOM     17  C   UNL     1      -7.257 -11.091   1.963  0.00  0.00    +0.030 A 
ATOM     18  C   UNL     1      -8.296 -11.573   1.242  0.00  0.00    +0.042 A 
ATOM     19  C   UNL     1      -9.513 -11.921   1.845  0.00  0.00    +0.022 A 
ATOM     20  C   UNL     1      -9.730 -11.800   3.172  0.00  0.00    +0.027 A 
ATOM     21  C   UNL     1      -8.707 -11.304   4.026  0.00  0.00    +0.043 A 
ATOM     22  N   UNL     1      -8.674 -11.098   5.320  0.00  0.00    -0.380 N 
ATOM     23  C   UNL     1      -7.350 -10.574   5.676  0.00  0.00    +0.144 C 
ATOM     24 CL   UNL     1      -8.117 -11.766  -0.474  0.00  0.00    -0.084 Cl
ATOM     25  H   UNL     1      -9.401 -11.267   5.939  0.00  0.00    +0.160 HD
ENDBRANCH  14  15
ENDBRANCH  13  14
ENDBRANCH  11  13
ENDBRANCH   6   9
BRANCH   1  26
ATOM     26  C   UNL     1       0.581  -2.698   1.218  0.00  0.00    +0.126 C 
BRANCH  26  33
ATOM     27  C   UNL     1      -0.017   1.383   0.010  0.00  0.00    +0.000 A 
ATOM     28  C   UNL     1       1.167   2.100   0.002  0.00  0.00    +0.001 A 
ATOM     29  C   UNL     1       2.383   1.445  -0.013  0.00  0.00    +0.013 A 
ATOM     30  C   UNL     1       2.409   0.053  -0.021  0.00  0.00    +0.045 A 
ATOM     31  C   UNL     1       1.203  -0.664  -0.013  0.00  0.00    -0.011 A 
ATOM     32  C   UNL     1       0.002  -0.004   0.002  0.00  0.00    +0.006 A 
ATOM     33  C   UNL     1       1.305  -2.171  -0.022  0.00  0.00    +0.136 C 
ATOM     34  N   UNL     1       2.654  -2.755  -0.039  0.00  0.00    -0.306 N 
ATOM     35  N   UNL     1       3.664  -2.052  -0.046  0.00  0.00    -0.105 NA
ATOM     36  C   UNL     1       3.670  -0.711  -0.038  0.00  0.00    +0.283 C 
ATOM     37  O   UNL     1       4.729  -0.116  -0.045  0.00  0.00    -0.267 OA
ATOM     38  H   UNL     1       2.750  -3.720  -0.046  0.00  0.00    +0.181 HD
ENDBRANCH  26  33
ENDBRANCH   1  26
TORSDOF 6
