REMARK  Name = ZINC00824016
REMARK  6 active torsions:
REMARK  status: ('A' for Active; 'I' for Inactive)
REMARK    1  A    between atoms: C_1  and  C_2
REMARK    2  A    between atoms: C_5  and  N_8
REMARK    3  A    between atoms: C_9  and  C_11
REMARK    4  A    between atoms: C_11  and  N_20
REMARK    5  A    between atoms: C_12  and  C_13
REMARK    6  A    between atoms: C_21  and  C_23
REMARK                            x       y       z     vdW  Elec       q    Type
REMARK                         _______ _______ _______ _____ _____    ______ ____
ROOT
ATOM      1  C   UNL     1       2.422  -4.160  -0.250  0.00  0.00    +0.097 C 
ATOM      2  C   UNL     1       1.241  -4.822  -0.261  0.00  0.00    +0.036 C 
ENDROOT
BRANCH   2   3
ATOM      3  C   UNL     1       1.223  -6.293  -0.283  0.00  0.00    -0.023 A 
ATOM      4  C   UNL     1       2.305  -7.002  -0.814  0.00  0.00    +0.009 A 
ATOM      5  C   UNL     1       2.283  -8.380  -0.826  0.00  0.00    +0.016 A 
ATOM      6  C   UNL     1       1.187  -9.062  -0.323  0.00  0.00    +0.018 A 
ATOM      7  C   UNL     1       0.110  -8.367   0.200  0.00  0.00    +0.016 A 
ATOM      8  C   UNL     1       0.120  -6.989   0.223  0.00  0.00    +0.009 A 
ATOM      9 BR   UNL     1       1.163 -10.953  -0.351  0.00  0.00    -0.050 Br
ENDBRANCH   2   3
BRANCH   1  11
ATOM     10  N   UNL     1       1.285  -2.010  -0.050  0.00  0.00    -0.280 N 
ATOM     11  C   UNL     1       2.442  -2.695  -0.140  0.00  0.00    +0.262 C 
ATOM     12  O   UNL     1       3.504  -2.100  -0.131  0.00  0.00    -0.268 OA
ATOM     13  H   UNL     1       0.332  -2.551   0.041  0.00  0.00    +0.155 HD
BRANCH  10  18
ATOM     14  C   UNL     1       1.331   3.661  -0.145  0.00  0.00    +0.044 C 
ATOM     15  C   UNL     1       1.319   2.154  -0.120  0.00  0.00    -0.050 A 
ATOM     16  C   UNL     1       2.338   1.446  -0.729  0.00  0.00    +0.005 A 
ATOM     17  C   UNL     1       2.330   0.065  -0.708  0.00  0.00    +0.023 A 
ATOM     18  C   UNL     1       1.296  -0.612  -0.073  0.00  0.00    +0.034 A 
ATOM     19  C   UNL     1       0.274   0.102   0.538  0.00  0.00    +0.023 A 
ATOM     20  C   UNL     1       0.288   1.483   0.513  0.00  0.00    +0.005 A 
ENDBRANCH  10  18
ENDBRANCH   1  11
BRANCH   1  21
ATOM     21  N   UNL     1       3.622  -4.871  -0.344  0.00  0.00    -0.275 N 
ATOM     22  C   UNL     1       4.470  -4.630  -1.363  0.00  0.00    +0.284 C 
ATOM     23  O   UNL     1       4.233  -3.735  -2.154  0.00  0.00    -0.266 OA
ATOM     24  H   UNL     1       3.875  -5.626   0.415  0.00  0.00    +0.155 HD
BRANCH  22  25
ATOM     25  C   UNL     1       5.677  -5.447  -1.521  0.00  0.00    +0.191 A 
ATOM     26  C   UNL     1       6.660  -5.254  -2.449  0.00  0.00    +0.056 A 
ATOM     27  C   UNL     1       7.617  -6.258  -2.238  0.00  0.00    +0.058 A 
ATOM     28  C   UNL     1       7.178  -7.016  -1.207  0.00  0.00    +0.171 A 
ATOM     29  O   UNL     1       6.008  -6.524  -0.778  0.00  0.00    -0.444 OA
ATOM     30 BR   UNL     1       8.068  -8.523  -0.490  0.00  0.00    -0.008 Br
ENDBRANCH  22  25
ENDBRANCH   1  21
TORSDOF 5
