REMARK  Name = ZINC12955938
REMARK  5 active torsions:
REMARK  status: ('A' for Active; 'I' for Inactive)
REMARK    1  A    between atoms: C_2  and  C_24
REMARK    2  A    between atoms: C_5  and  C_8
REMARK    3  A    between atoms: N_9  and  O_10
REMARK    4  A    between atoms: N_11  and  N_12
REMARK    5  A    between atoms: C_16  and  C_19
REMARK                            x       y       z     vdW  Elec       q    Type
REMARK                         _______ _______ _______ _____ _____    ______ ____
ROOT
ATOM      1  C   UNL     1       1.269  -2.145  -0.023  0.00  0.00    +0.201 C 
ATOM      2  N   UNL     1       0.166  -2.825   0.082  0.00  0.00    -0.068 NA
ATOM      3  N   UNL     1       2.480  -2.805  -0.147  0.00  0.00    -0.245 N 
ATOM      4  H   UNL     1       3.304  -2.298  -0.225  0.00  0.00    +0.172 HD
ENDROOT
BRANCH   3   5
ATOM      5  N   UNL     1       2.516  -4.206  -0.159  0.00  0.00    -0.248 N 
ATOM      6  C   UNL     1       3.732  -4.869  -0.284  0.00  0.00    +0.153 A 
ATOM      7  C   UNL     1       3.760  -6.261  -0.301  0.00  0.00    +0.083 A 
ATOM      8  C   UNL     1       4.978  -6.908  -0.426  0.00  0.00    +0.037 A 
ATOM      9  C   UNL     1       6.129  -6.138  -0.529  0.00  0.00    +0.074 A 
ATOM     10  C   UNL     1       6.027  -4.762  -0.505  0.00  0.00    +0.125 A 
ATOM     11  N   UNL     1       4.852  -4.172  -0.390  0.00  0.00    -0.237 NA
ATOM     12 CL   UNL     1       2.289  -7.173  -0.167  0.00  0.00    -0.080 Cl
ATOM     13  H   UNL     1       1.693  -4.713  -0.081  0.00  0.00    +0.172 HD
BRANCH   9  14
ATOM     14  C   UNL     1       7.476  -6.799  -0.666  0.00  0.00    +0.419 C 
ATOM     15  F   UNL     1       7.766  -6.990  -2.022  0.00  0.00    -0.166 F 
ATOM     16  F   UNL     1       8.457  -5.983  -0.091  0.00  0.00    -0.166 F 
ATOM     17  F   UNL     1       7.457  -8.036  -0.015  0.00  0.00    -0.166 F 
ENDBRANCH   9  14
ENDBRANCH   3   5
BRANCH   1  22
ATOM     18  C   UNL     1       1.165   1.423  -1.186  0.00  0.00    +0.036 A 
ATOM     19  C   UNL     1       1.163   2.059   0.046  0.00  0.00    +0.074 A 
ATOM     20  C   UNL     1       1.195   1.299   1.203  0.00  0.00    +0.124 A 
ATOM     21  N   UNL     1       1.228  -0.016   1.148  0.00  0.00    -0.250 NA
ATOM     22  C   UNL     1       1.231  -0.664  -0.010  0.00  0.00    +0.126 A 
ATOM     23  C   UNL     1       1.199   0.038  -1.215  0.00  0.00    +0.070 A 
ATOM     24 CL   UNL     1       1.203  -0.812  -2.729  0.00  0.00    -0.081 Cl
BRANCH  19  25
ATOM     25  C   UNL     1       1.126   3.563   0.126  0.00  0.00    +0.419 C 
ATOM     26  F   UNL     1      -0.203   3.996   0.165  0.00  0.00    -0.166 F 
ATOM     27  F   UNL     1       1.789   3.985   1.284  0.00  0.00    -0.166 F 
ATOM     28  F   UNL     1       1.760   4.105  -0.998  0.00  0.00    -0.166 F 
ENDBRANCH  19  25
ENDBRANCH   1  22
BRANCH   2  29
ATOM     29  O   UNL     1      -1.081  -2.153   0.099  0.00  0.00    -0.408 OA
ATOM     30  H   UNL     1      -1.838  -2.733   0.256  0.00  0.00    +0.328 HD
ENDBRANCH   2  29
TORSDOF 5
