REMARK  Name = ZINC12415429
REMARK  7 active torsions:
REMARK  status: ('A' for Active; 'I' for Inactive)
REMARK    1  A    between atoms: C_1  and  C_2
REMARK    2  A    between atoms: C_4  and  N_9
REMARK    3  A    between atoms: C_10  and  C_12
REMARK    4  A    between atoms: C_12  and  S_13
REMARK    5  A    between atoms: S_13  and  C_14
REMARK    6  A    between atoms: N_23  and  C_25
REMARK    7  A    between atoms: C_25  and  C_26
REMARK                            x       y       z     vdW  Elec       q    Type
REMARK                         _______ _______ _______ _____ _____    ______ ____
ROOT
ATOM      1  C   UNL     1       3.295   6.435  -5.848  0.00  0.00    +0.192 A 
ATOM      2  N   UNL     1       2.030   6.779  -5.481  0.00  0.00    -0.183 NA
ATOM      3  C   UNL     1       1.574   6.435  -4.259  0.00  0.00    +0.276 A 
ATOM      4  O   UNL     1       0.444   6.736  -3.912  0.00  0.00    -0.266 OA
ATOM      5  C   UNL     1       2.423   5.721  -3.389  0.00  0.00    +0.024 A 
ATOM      6  C   UNL     1       3.676   5.400  -3.810  0.00  0.00    +0.049 A 
ATOM      7  N   UNL     1       4.081   5.766  -5.029  0.00  0.00    -0.227 NA
ATOM      8  C   UNL     1       4.632   4.631  -2.935  0.00  0.00    +0.037 C 
ATOM      9  C   UNL     1       4.160   4.673  -1.482  0.00  0.00    -0.072 C 
ATOM     10  N   UNL     1       2.741   4.285  -1.441  0.00  0.00    +0.385 N 
ATOM     11  C   UNL     1       1.910   5.342  -2.027  0.00  0.00    -0.035 C 
ATOM     12  H   UNL     1       2.609   3.370  -2.037  0.00  0.00    -0.081 HD
ENDROOT
BRANCH   1  13
ATOM     13  S   UNL     1       3.890   6.889  -7.443  0.00  0.00    -0.077 S 
BRANCH  13  14
ATOM     14  C   UNL     1       5.559   6.192  -7.366  0.00  0.00    +0.173 C 
BRANCH  14  16
ATOM     15  N   UNL     1       7.544   6.039  -8.834  0.00  0.00    -0.285 N 
ATOM     16  C   UNL     1       6.278   6.468  -8.662  0.00  0.00    +0.227 C 
ATOM     17  O   UNL     1       5.717   7.075  -9.549  0.00  0.00    -0.275 OA
ATOM     18  H   UNL     1       8.082   5.564  -8.000  0.00  0.00    +0.155 HD
BRANCH  15  22
ATOM     19  C   UNL     1      11.644   6.834 -11.427  0.00  0.00    +0.045 C 
ATOM     20  C   UNL     1      10.160   6.583 -11.360  0.00  0.00    -0.035 A 
ATOM     21  C   UNL     1       9.541   6.428 -10.135  0.00  0.00    +0.027 A 
ATOM     22  C   UNL     1       8.173   6.196 -10.074  0.00  0.00    +0.034 A 
ATOM     23  C   UNL     1       7.432   6.116 -11.246  0.00  0.00    +0.024 A 
ATOM     24  C   UNL     1       8.055   6.277 -12.468  0.00  0.00    +0.017 A 
ATOM     25  C   UNL     1       9.418   6.508 -12.525  0.00  0.00    +0.021 A 
ATOM     26 BR   UNL     1      10.269   6.721 -14.201  0.00  0.00    -0.050 Br
ENDBRANCH  15  22
ENDBRANCH  14  16
ENDBRANCH  13  14
ENDBRANCH   1  13
BRANCH  10  27
ATOM     27  C   UNL     1       2.317   3.984  -0.067  0.00  0.00    -0.043 C 
BRANCH  27  28
ATOM     28  C   UNL     1       0.935   3.384  -0.087  0.00  0.00    -0.064 A 
ATOM     29  C   UNL     1       0.777   2.014  -0.190  0.00  0.00    +0.002 A 
ATOM     30  C   UNL     1      -0.490   1.464  -0.208  0.00  0.00    +0.000 A 
ATOM     31  C   UNL     1      -1.601   2.283  -0.130  0.00  0.00    +0.000 A 
ATOM     32  C   UNL     1      -1.444   3.652  -0.023  0.00  0.00    +0.000 A 
ATOM     33  C   UNL     1      -0.176   4.203  -0.004  0.00  0.00    +0.002 A 
ENDBRANCH  27  28
ENDBRANCH  10  27
TORSDOF 6
