REMARK  Name = ZINC16927517
REMARK  7 active torsions:
REMARK  status: ('A' for Active; 'I' for Inactive)
REMARK    1  A    between atoms: C_4  and  C_7
REMARK    2  A    between atoms: C_7  and  C_8
REMARK    3  A    between atoms: C_8  and  C_10
REMARK    4  A    between atoms: C_8  and  N_13
REMARK    5  A    between atoms: C_17  and  C_18
REMARK    6  A    between atoms: C_20  and  N_25
REMARK    7  A    between atoms: C_23  and  O_24
REMARK                            x       y       z     vdW  Elec       q    Type
REMARK                         _______ _______ _______ _____ _____    ______ ____
ROOT
ATOM      1  N   UNL     1       4.658   0.138   2.284  0.00  0.00    -0.241 N 
ATOM      2  C   UNL     1       3.898   0.537   3.289  0.00  0.00    +0.259 C 
ATOM      3  O   UNL     1       3.004  -0.161   3.732  0.00  0.00    -0.269 OA
ATOM      4  C   UNL     1       4.188   1.873   3.848  0.00  0.00    +0.077 C 
ATOM      5  C   UNL     1       3.582   2.534   4.867  0.00  0.00    +0.032 C 
ATOM      6  S   UNL     1       5.556   2.379   2.815  0.00  0.00    -0.061 S 
ATOM      7  C   UNL     1       5.650   0.913   1.800  0.00  0.00    +0.121 C 
ATOM      8  S   UNL     1       6.737   0.574   0.521  0.00  0.00    -0.027 S 
ENDROOT
BRANCH   5   9
ATOM      9  C   UNL     1       4.145   3.797   5.361  0.00  0.00    +0.020 A 
ATOM     10  C   UNL     1       5.473   4.135   5.074  0.00  0.00    +0.044 A 
ATOM     11  C   UNL     1       5.995   5.322   5.540  0.00  0.00    +0.127 A 
ATOM     12  C   UNL     1       5.212   6.183   6.292  0.00  0.00    +0.036 A 
ATOM     13  C   UNL     1       3.900   5.862   6.583  0.00  0.00    +0.048 A 
ATOM     14  C   UNL     1       3.355   4.676   6.119  0.00  0.00    +0.124 A 
BRANCH  11  15
ATOM     15  N   UNL     1       7.399   5.679   5.236  0.00  0.00    +0.056 N 
ATOM     16  O   UNL     1       8.085   4.930   4.581  0.00  0.00    -0.126 OA
ATOM     17  O   UNL     1       7.860   6.719   5.644  0.00  0.00    -0.126 OA
ENDBRANCH  11  15
BRANCH  14  18
ATOM     18  O   UNL     1       2.064   4.362   6.400  0.00  0.00    -0.506 OA
ATOM     19  H   UNL     1       1.950   3.866   7.222  0.00  0.00    +0.292 HD
ENDBRANCH  14  18
ENDBRANCH   5   9
BRANCH   1  20
ATOM     20  C   UNL     1       4.421  -1.178   1.685  0.00  0.00    +0.200 C 
BRANCH  20  21
ATOM     21  C   UNL     1       5.660  -2.025   1.826  0.00  0.00    +0.377 C 
ATOM     22  O   UNL     1       6.702  -1.520   2.207  0.00  0.00    -0.244 OA
ATOM     23  O   UNL     1       5.619  -3.214   1.560  0.00  0.00    -0.244 OA
ENDBRANCH  20  21
BRANCH  20  24
ATOM     24  C   UNL     1       4.083  -1.011   0.202  0.00  0.00    +0.069 C 
BRANCH  24  28
ATOM     25  C   UNL     1       0.386   1.091  -0.191  0.00  0.00    +0.000 A 
ATOM     26  C   UNL     1       1.577   1.791  -0.144  0.00  0.00    +0.000 A 
ATOM     27  C   UNL     1       2.773   1.111  -0.016  0.00  0.00    +0.004 A 
ATOM     28  C   UNL     1       2.779  -0.269   0.065  0.00  0.00    -0.045 A 
ATOM     29  C   UNL     1       1.588  -0.969   0.018  0.00  0.00    +0.004 A 
ATOM     30  C   UNL     1       0.391  -0.289  -0.110  0.00  0.00    +0.000 A 
ENDBRANCH  24  28
ENDBRANCH  20  24
ENDBRANCH   1  20
TORSDOF 7
