REMARK  Name = ZINC00471590
REMARK  7 active torsions:
REMARK  status: ('A' for Active; 'I' for Inactive)
REMARK    1  A    between atoms: C_1  and  C_2
REMARK    2  A    between atoms: C_2  and  C_4
REMARK    3  A    between atoms: C_2  and  C_13
REMARK    4  A    between atoms: C_7  and  N_10
REMARK    5  A    between atoms: N_15  and  C_16
REMARK    6  A    between atoms: C_19  and  N_22
REMARK    7  A    between atoms: C_23  and  C_25
REMARK                            x       y       z     vdW  Elec       q    Type
REMARK                         _______ _______ _______ _____ _____    ______ ____
ROOT
ATOM      1  C   UNL     1      -0.131   8.414   0.368  0.00  0.00    +0.224 C 
ATOM      2  O   UNL     1       0.929   7.833   0.269  0.00  0.00    -0.275 OA
ATOM      3  N   UNL     1      -1.277   7.713   0.470  0.00  0.00    -0.285 N 
ATOM      4  H   UNL     1      -2.117   8.175   0.617  0.00  0.00    +0.155 HD
ENDROOT
BRANCH   3   5
ATOM      5  C   UNL     1      -1.255   6.316   0.365  0.00  0.00    +0.034 A 
ATOM      6  C   UNL     1      -2.312   5.649  -0.242  0.00  0.00    +0.025 A 
ATOM      7  C   UNL     1      -2.290   4.273  -0.346  0.00  0.00    +0.025 A 
ATOM      8  C   UNL     1      -1.212   3.555   0.155  0.00  0.00    +0.033 A 
ATOM      9  C   UNL     1      -0.158   4.222   0.766  0.00  0.00    +0.025 A 
ATOM     10  C   UNL     1      -0.178   5.598   0.867  0.00  0.00    +0.025 A 
BRANCH   8  11
ATOM     11  N   UNL     1      -1.190   2.159   0.049  0.00  0.00    -0.286 N 
ATOM     12  C   UNL     1      -0.013   1.503   0.030  0.00  0.00    +0.214 C 
ATOM     13  O   UNL     1       1.028   2.125  -0.004  0.00  0.00    -0.276 OA
ATOM     14  C   UNL     1       0.011  -0.004   0.045  0.00  0.00    +0.109 C 
ATOM     15  H   UNL     1      -2.022   1.663  -0.011  0.00  0.00    +0.155 HD
ENDBRANCH   8  11
ENDBRANCH   3   5
BRANCH   1  17
ATOM     16  C   UNL     1      -0.782  10.409   1.689  0.00  0.00    +0.022 C 
ATOM     17  C   UNL     1      -0.166   9.921   0.377  0.00  0.00    +0.102 C 
BRANCH  17  18
ATOM     18  C   UNL     1       1.237  10.457   0.250  0.00  0.00    -0.036 A 
ATOM     19  C   UNL     1       2.185  10.144   1.207  0.00  0.00    +0.006 A 
ATOM     20  C   UNL     1       3.473  10.632   1.088  0.00  0.00    +0.033 A 
ATOM     21  C   UNL     1       3.810  11.441   0.019  0.00  0.00    +0.126 A 
ATOM     22  C   UNL     1       2.861  11.757  -0.934  0.00  0.00    +0.033 A 
ATOM     23  C   UNL     1       1.574  11.265  -0.819  0.00  0.00    +0.006 A 
BRANCH  21  24
ATOM     24  N   UNL     1       5.188  11.968  -0.104  0.00  0.00    +0.056 N 
ATOM     25  O   UNL     1       5.485  12.681  -1.046  0.00  0.00    -0.126 OA
ATOM     26  O   UNL     1       6.024  11.689   0.736  0.00  0.00    -0.126 OA
ENDBRANCH  21  24
ENDBRANCH  17  18
ENDBRANCH   1  17
TORSDOF 5
