REMARK  Name = ZINC41545334
REMARK  7 active torsions:
REMARK  status: ('A' for Active; 'I' for Inactive)
REMARK    1  A    between atoms: C_1  and  C_2
REMARK    2  A    between atoms: C_2  and  C_13
REMARK    3  A    between atoms: N_15  and  C_16
REMARK    4  A    between atoms: C_18  and  C_21
REMARK    5  A    between atoms: C_21  and  C_22
REMARK    6  A    between atoms: C_21  and  C_23
REMARK    7  A    between atoms: C_21  and  C_24
REMARK                            x       y       z     vdW  Elec       q    Type
REMARK                         _______ _______ _______ _____ _____    ______ ____
ROOT
ATOM      1  C   UNL     1      -0.019   1.526   0.010  0.00  0.00    +0.076 C 
ATOM      2  C   UNL     1       0.002  -0.004   0.002  0.00  0.00    +0.258 C 
ATOM      3  C   UNL     1      -1.413  -0.525   0.008  0.00  0.00    +0.270 C 
ATOM      4  O   UNL     1      -2.310   0.144  -0.460  0.00  0.00    -0.271 OA
ATOM      5  N   UNL     1      -1.677  -1.739   0.535  0.00  0.00    -0.279 N 
ATOM      6  C   UNL     1      -0.651  -2.441   1.182  0.00  0.00    +0.076 A 
ATOM      7  C   UNL     1      -0.820  -3.772   1.531  0.00  0.00    +0.027 A 
ATOM      8  C   UNL     1       0.207  -4.454   2.158  0.00  0.00    +0.002 A 
ATOM      9  C   UNL     1       1.400  -3.813   2.436  0.00  0.00    +0.004 A 
ATOM     10  C   UNL     1       1.573  -2.484   2.095  0.00  0.00    +0.047 A 
ATOM     11  C   UNL     1       0.547  -1.792   1.472  0.00  0.00    +0.144 A 
ATOM     12  O   UNL     1       0.694  -0.477   1.160  0.00  0.00    -0.465 OA
ATOM     13  H   UNL     1      -2.566  -2.121   0.467  0.00  0.00    +0.155 HD
ENDROOT
BRANCH   2  14
ATOM     14  C   UNL     1       0.709  -0.489  -1.237  0.00  0.00    +0.272 C 
ATOM     15  O   UNL     1       0.070  -0.781  -2.225  0.00  0.00    -0.270 OA
ATOM     16  N   UNL     1       2.053  -0.599  -1.247  0.00  0.00    -0.251 N 
ATOM     17  H   UNL     1       2.564  -0.366  -0.456  0.00  0.00    +0.158 HD
BRANCH  16  18
ATOM     18  C   UNL     1       2.704  -1.046  -2.388  0.00  0.00    +0.224 A 
ATOM     19  C   UNL     1       4.044  -1.208  -2.532  0.00  0.00    +0.092 A 
ATOM     20  C   UNL     1       4.287  -1.675  -3.832  0.00  0.00    +0.091 A 
ATOM     21  N   UNL     1       3.142  -1.790  -4.445  0.00  0.00    -0.081 NA
ATOM     22  O   UNL     1       2.120  -1.401  -3.545  0.00  0.00    -0.339 OA
BRANCH  20  23
ATOM     23  C   UNL     1       5.639  -1.990  -4.418  0.00  0.00    +0.008 C 
ATOM     24  C   UNL     1       6.149  -3.313  -3.844  0.00  0.00    +0.017 C 
ATOM     25  C   UNL     1       5.520  -2.107  -5.939  0.00  0.00    +0.017 C 
ATOM     26  C   UNL     1       6.620  -0.870  -4.068  0.00  0.00    +0.017 C 
ENDBRANCH  20  23
ENDBRANCH  16  18
ENDBRANCH   2  14
TORSDOF 3
