REMARK  Name = ZINC39914408
REMARK  9 active torsions:
REMARK  status: ('A' for Active; 'I' for Inactive)
REMARK    1  A    between atoms: C_1  and  C_2
REMARK    2  A    between atoms: C_2  and  C_3
REMARK    3  A    between atoms: C_3  and  C_4
REMARK    4  A    between atoms: C_4  and  C_5
REMARK    5  A    between atoms: C_5  and  N_6
REMARK    6  A    between atoms: C_7  and  C_26
REMARK    7  A    between atoms: C_10  and  C_17
REMARK    8  A    between atoms: C_20  and  C_24
REMARK    9  A    between atoms: C_22  and  O_23
REMARK                            x       y       z     vdW  Elec       q    Type
REMARK                         _______ _______ _______ _____ _____    ______ ____
ROOT
ATOM      1  N   UNL     1      -2.828  -4.058   0.007  0.00  0.00    -0.285 N 
ATOM      2  C   UNL     1      -2.822  -4.912  -1.188  0.00  0.00    +0.141 C 
ATOM      3  C   UNL     1      -2.800  -6.330  -0.686  0.00  0.00    +0.035 A 
ATOM      4  C   UNL     1      -2.783  -7.692  -1.003  0.00  0.00    +0.102 A 
ATOM      5  N   UNL     1      -2.769  -8.361   0.134  0.00  0.00    -0.173 NA
ATOM      6  N   UNL     1      -2.776  -7.556   1.136  0.00  0.00    -0.272 N 
ATOM      7  H   UNL     1      -2.767  -7.826   2.067  0.00  0.00    +0.189 HD
ATOM      8  C   UNL     1      -2.795  -6.263   0.694  0.00  0.00    +0.126 A 
ATOM      9  C   UNL     1      -2.807  -4.852   1.093  0.00  0.00    +0.265 C 
ATOM     10  O   UNL     1      -2.800  -4.455   2.243  0.00  0.00    -0.268 OA
ENDROOT
BRANCH   4  11
ATOM     11  C   UNL     1      -2.782  -8.278  -2.366  0.00  0.00    +0.045 A 
ATOM     12  C   UNL     1      -2.793  -7.447  -3.484  0.00  0.00    +0.034 A 
ATOM     13  C   UNL     1      -2.791  -7.997  -4.751  0.00  0.00    +0.045 A 
ATOM     14  C   UNL     1      -2.779  -9.371  -4.914  0.00  0.00    -0.029 A 
ATOM     15  C   UNL     1      -2.768 -10.204  -3.811  0.00  0.00    +0.050 A 
ATOM     16  C   UNL     1      -2.764  -9.665  -2.535  0.00  0.00    +0.126 A 
ATOM     17  C   UNL     1      -2.778  -9.963  -6.300  0.00  0.00    +0.045 C 
ATOM     18 CL   UNL     1      -2.805  -6.960  -6.144  0.00  0.00    -0.083 Cl
BRANCH  16  19
ATOM     19  O   UNL     1      -2.747 -10.483  -1.450  0.00  0.00    -0.506 OA
ATOM     20  H   UNL     1      -3.626 -10.732  -1.131  0.00  0.00    +0.292 HD
ENDBRANCH  16  19
ENDBRANCH   4  11
BRANCH   2  21
ATOM     21  C   UNL     1      -4.064  -4.668  -2.006  0.00  0.00    -0.022 A 
ATOM     22  C   UNL     1      -5.280  -4.480  -1.376  0.00  0.00    +0.007 A 
ATOM     23  C   UNL     1      -6.420  -4.256  -2.126  0.00  0.00    +0.015 A 
ATOM     24  C   UNL     1      -6.343  -4.220  -3.506  0.00  0.00    +0.018 A 
ATOM     25  C   UNL     1      -5.125  -4.409  -4.136  0.00  0.00    +0.015 A 
ATOM     26  C   UNL     1      -3.986  -4.627  -3.385  0.00  0.00    +0.007 A 
ATOM     27 BR   UNL     1      -7.901  -3.915  -4.533  0.00  0.00    -0.050 Br
ENDBRANCH   2  21
BRANCH   1  28
ATOM     28  C   UNL     1      -2.848  -2.593   0.015  0.00  0.00    +0.109 C 
BRANCH  28  29
ATOM     29  C   UNL     1      -1.413  -2.063   0.004  0.00  0.00    +0.019 C 
BRANCH  29  30
ATOM     30  C   UNL     1      -1.433  -0.534   0.013  0.00  0.00    +0.001 C 
BRANCH  30  32
ATOM     31  C   UNL     1      -0.019   1.526   0.010  0.00  0.00    +0.004 C 
ATOM     32  C   UNL     1       0.002  -0.004   0.002  0.00  0.00    -0.003 C 
ENDBRANCH  30  32
ENDBRANCH  29  30
ENDBRANCH  28  29
ENDBRANCH   1  28
TORSDOF 7
