REMARK  Name = ZINC38774499
REMARK  8 active torsions:
REMARK  status: ('A' for Active; 'I' for Inactive)
REMARK    1  A    between atoms: C_1  and  C_2
REMARK    2  A    between atoms: C_2  and  C_3
REMARK    3  A    between atoms: N_15  and  C_18
REMARK    4  A    between atoms: C_18  and  C_19
REMARK    5  A    between atoms: C_19  and  N_20
REMARK    6  A    between atoms: C_21  and  C_23
REMARK    7  A    between atoms: C_24  and  C_25
REMARK    8  A    between atoms: C_29  and  N_31
REMARK                            x       y       z     vdW  Elec       q    Type
REMARK                         _______ _______ _______ _____ _____    ______ ____
ROOT
ATOM      1  C   UNL     1      -1.412  -0.526   0.013  0.00  0.00    -0.021 A 
ATOM      2  C   UNL     1      -2.002  -0.859   1.204  0.00  0.00    +0.006 A 
ATOM      3  C   UNL     1      -3.301  -1.342   1.259  0.00  0.00    +0.001 A 
ATOM      4  C   UNL     1      -4.018  -1.492   0.085  0.00  0.00    +0.017 A 
ATOM      5  C   UNL     1      -3.435  -1.161  -1.111  0.00  0.00    +0.041 A 
ATOM      6  C   UNL     1      -2.116  -0.661  -1.205  0.00  0.00    +0.083 A 
ATOM      7  N   UNL     1      -1.686  -0.375  -2.454  0.00  0.00    -0.224 NA
ATOM      8  C   UNL     1      -2.440  -0.544  -3.516  0.00  0.00    +0.162 A 
ATOM      9  S   UNL     1      -3.952  -1.187  -2.811  0.00  0.00    -0.052 S 
ATOM     10  N   UNL     1      -2.139  -0.297  -4.840  0.00  0.00    -0.307 N 
ATOM     11  C   UNL     1      -0.819   0.222  -5.229  0.00  0.00    +0.122 C 
ATOM     12  C   UNL     1      -1.024   1.450  -6.122  0.00  0.00    +0.103 C 
ATOM     13  N   UNL     1      -1.908   1.097  -7.242  0.00  0.00    -0.298 NA
ATOM     14  C   UNL     1      -3.243   0.712  -6.765  0.00  0.00    +0.103 C 
ATOM     15  C   UNL     1      -3.127  -0.553  -5.899  0.00  0.00    +0.122 C 
ENDROOT
BRANCH   1  17
ATOM     16  C   UNL     1      -0.019   1.526   0.010  0.00  0.00    +0.009 C 
ATOM     17  C   UNL     1       0.002  -0.004   0.002  0.00  0.00    +0.034 C 
ENDBRANCH   1  17
BRANCH  13  18
ATOM     18  C   UNL     1      -1.992   2.195  -8.213  0.00  0.00    +0.103 C 
BRANCH  18  19
ATOM     19  C   UNL     1      -2.710   1.707  -9.473  0.00  0.00    +0.120 C 
BRANCH  19  20
ATOM     20  N   UNL     1      -2.794   2.802 -10.443  0.00  0.00    -0.311 N 
ATOM     21  C   UNL     1      -3.389   2.603 -11.635  0.00  0.00    +0.237 C 
ATOM     22  O   UNL     1      -3.857   1.513 -11.907  0.00  0.00    -0.271 OA
ATOM     23  H   UNL     1      -2.421   3.671 -10.226  0.00  0.00    +0.149 HD
BRANCH  21  24
ATOM     24  C   UNL     1      -3.473   3.698 -12.604  0.00  0.00    +0.068 C 
ATOM     25  C   UNL     1      -4.069   3.498 -13.796  0.00  0.00    +0.013 C 
BRANCH  25  26
ATOM     26  C   UNL     1      -4.154   4.599 -14.770  0.00  0.00    -0.023 A 
ATOM     27  C   UNL     1      -3.612   5.851 -14.464  0.00  0.00    +0.008 A 
ATOM     28  C   UNL     1      -3.695   6.877 -15.382  0.00  0.00    +0.003 A 
ATOM     29  C   UNL     1      -4.312   6.670 -16.603  0.00  0.00    +0.033 A 
ATOM     30  C   UNL     1      -4.851   5.433 -16.913  0.00  0.00    +0.127 A 
ATOM     31  C   UNL     1      -4.771   4.396 -16.008  0.00  0.00    +0.040 A 
BRANCH  30  32
ATOM     32  N   UNL     1      -5.510   5.223 -18.222  0.00  0.00    +0.056 N 
ATOM     33  O   UNL     1      -5.577   6.130 -19.018  0.00  0.00    -0.126 OA
ATOM     34  O   UNL     1      -5.981   4.143 -18.494  0.00  0.00    -0.126 OA
ENDBRANCH  30  32
ENDBRANCH  25  26
ENDBRANCH  21  24
ENDBRANCH  19  20
ENDBRANCH  18  19
ENDBRANCH  13  18
TORSDOF 7
