REMARK  Name = ZINC13027125
REMARK  7 active torsions:
REMARK  status: ('A' for Active; 'I' for Inactive)
REMARK    1  A    between atoms: C_3  and  O_33
REMARK    2  A    between atoms: C_6  and  C_7
REMARK    3  A    between atoms: C_7  and  C_9
REMARK    4  A    between atoms: C_7  and  N_18
REMARK    5  A    between atoms: N_11  and  C_12
REMARK    6  A    between atoms: N_18  and  C_19
REMARK    7  A    between atoms: C_24  and  C_26
REMARK                            x       y       z     vdW  Elec       q    Type
REMARK                         _______ _______ _______ _____ _____    ______ ____
ROOT
ATOM      1  C   UNL     1      -1.167   2.091  -0.213  0.00  0.00    +0.193 C 
ENDROOT
BRANCH   1   7
ATOM      2  C   UNL     1       0.540   3.183   1.254  0.00  0.00    +0.009 A 
ATOM      3  C   UNL     1       0.909   4.128   2.192  0.00  0.00    +0.046 A 
ATOM      4  C   UNL     1      -0.038   5.005   2.701  0.00  0.00    +0.117 A 
ATOM      5  C   UNL     1      -1.352   4.935   2.262  0.00  0.00    +0.046 A 
ATOM      6  C   UNL     1      -1.714   3.992   1.320  0.00  0.00    +0.009 A 
ATOM      7  C   UNL     1      -0.769   3.119   0.814  0.00  0.00    -0.018 A 
BRANCH   4   8
ATOM      8  O   UNL     1       0.321   5.931   3.629  0.00  0.00    -0.507 OA
ATOM      9  H   UNL     1       0.240   5.625   4.542  0.00  0.00    +0.292 HD
ENDBRANCH   4   8
ENDBRANCH   1   7
BRANCH   1  10
ATOM     10  C   UNL     1      -0.018   1.146  -0.451  0.00  0.00    +0.238 C 
ATOM     11  O   UNL     1      -0.153  -0.040  -0.235  0.00  0.00    -0.273 OA
ATOM     12  N   UNL     1       1.159   1.618  -0.908  0.00  0.00    -0.311 N 
ATOM     13  H   UNL     1       1.268   2.566  -1.080  0.00  0.00    +0.149 HD
BRANCH  12  14
ATOM     14  C   UNL     1       2.275   0.698  -1.144  0.00  0.00    +0.073 C 
ATOM     15  C   UNL     1       3.039   0.477   0.163  0.00  0.00    +0.022 C 
ATOM     16  C   UNL     1       4.204  -0.484  -0.084  0.00  0.00    +0.002 C 
ATOM     17  C   UNL     1       5.146   0.116  -1.129  0.00  0.00    +0.000 C 
ATOM     18  C   UNL     1       4.382   0.337  -2.437  0.00  0.00    +0.002 C 
ATOM     19  C   UNL     1       3.217   1.298  -2.190  0.00  0.00    +0.022 C 
ENDBRANCH  12  14
ENDBRANCH   1  10
BRANCH   1  20
ATOM     20  N   UNL     1      -2.326   1.338   0.273  0.00  0.00    -0.278 N 
ATOM     21  C   UNL     1      -3.435   1.244  -0.487  0.00  0.00    +0.268 C 
ATOM     22  O   UNL     1      -3.437   1.690  -1.619  0.00  0.00    -0.268 OA
BRANCH  21  23
ATOM     23  C   UNL     1      -4.648   0.599   0.054  0.00  0.00    +0.154 A 
ATOM     24  C   UNL     1      -5.769   0.386  -0.747  0.00  0.00    +0.098 A 
ATOM     25  C   UNL     1      -6.793  -0.219  -0.086  0.00  0.00    +0.117 A 
ATOM     26  S   UNL     1      -6.138  -0.423   1.501  0.00  0.00    +0.026 S 
ATOM     27  N   UNL     1      -4.706   0.202   1.306  0.00  0.00    -0.203 NA
ATOM     28 CL   UNL     1      -8.358  -0.671  -0.684  0.00  0.00    -0.073 Cl
ATOM     29 CL   UNL     1      -5.851   0.845  -2.419  0.00  0.00    -0.079 Cl
ENDBRANCH  21  23
BRANCH  20  30
ATOM     30  C   UNL     1      -2.279   0.688   1.585  0.00  0.00    +0.078 C 
ATOM     31  C   UNL     1      -0.923   0.967   2.264  0.00  0.00    +0.022 C 
ATOM     32  C   UNL     1      -0.588  -0.356   2.998  0.00  0.00    +0.002 C 
ATOM     33  C   UNL     1      -1.088  -1.435   2.006  0.00  0.00    +0.002 C 
ATOM     34  C   UNL     1      -2.385  -0.838   1.420  0.00  0.00    +0.022 C 
ENDBRANCH  20  30
ENDBRANCH   1  20
TORSDOF 7
