REMARK  Name = ZINC09677788
REMARK  6 active torsions:
REMARK  status: ('A' for Active; 'I' for Inactive)
REMARK    1  A    between atoms: C_3  and  C_19
REMARK    2  A    between atoms: N_21  and  C_22
REMARK    3  A    between atoms: C_22  and  C_23
REMARK    4  A    between atoms: C_23  and  C_24
REMARK    5  A    between atoms: C_27  and  S_30
REMARK    6  A    between atoms: S_30  and  N_33
REMARK                            x       y       z     vdW  Elec       q    Type
REMARK                         _______ _______ _______ _____ _____    ______ ____
ROOT
ATOM      1  C   UNL     1       0.002  -0.004   0.023  0.00  0.00    +0.019 A 
ATOM      2  C   UNL     1      -0.017   1.393   0.030  0.00  0.00    +0.018 A 
ATOM      3  C   UNL     1       1.188   2.086   0.004  0.00  0.00    +0.080 A 
ATOM      4  C   UNL     1       2.434   1.315  -0.029  0.00  0.00    +0.154 A 
ATOM      5  N   UNL     1       3.598   1.948  -0.055  0.00  0.00    -0.221 NA
ATOM      6  C   UNL     1       4.735   1.273  -0.087  0.00  0.00    +0.116 A 
ATOM      7  C   UNL     1       4.770  -0.135  -0.094  0.00  0.00    +0.076 A 
ATOM      8  C   UNL     1       6.104  -0.739  -0.132  0.00  0.00    -0.023 A 
ATOM      9  C   UNL     1       7.157   0.103  -0.155  0.00  0.00    -0.004 A 
ATOM     10  S   UNL     1       6.450   1.728  -0.129  0.00  0.00    -0.073 S 
ATOM     11  C   UNL     1       8.610  -0.262  -0.195  0.00  0.00    +0.043 C 
ATOM     12  C   UNL     1       8.747  -1.747   0.169  0.00  0.00    +0.005 C 
ATOM     13  C   UNL     1       7.727  -2.548  -0.645  0.00  0.00    +0.005 C 
ATOM     14  C   UNL     1       6.314  -2.250  -0.145  0.00  0.00    +0.037 C 
ATOM     15  C   UNL     1       3.504  -0.791  -0.065  0.00  0.00    +0.267 A 
ATOM     16  O   UNL     1       3.443  -2.009  -0.067  0.00  0.00    -0.267 OA
ATOM     17  N   UNL     1       2.375  -0.054  -0.034  0.00  0.00    -0.267 N 
ATOM     18  C   UNL     1       1.167  -0.688  -0.008  0.00  0.00    +0.096 A 
ENDROOT
BRANCH   3  19
ATOM     19  C   UNL     1       1.212   3.558   0.009  0.00  0.00    +0.248 C 
ATOM     20  O   UNL     1       0.172   4.183  -0.071  0.00  0.00    -0.270 OA
ATOM     21  N   UNL     1       2.386   4.213   0.103  0.00  0.00    -0.311 N 
ATOM     22  H   UNL     1       3.220   3.717   0.093  0.00  0.00    +0.149 HD
BRANCH  21  23
ATOM     23  C   UNL     1       2.403   5.673   0.221  0.00  0.00    +0.109 C 
BRANCH  23  24
ATOM     24  C   UNL     1       3.851   6.160   0.311  0.00  0.00    +0.054 C 
BRANCH  24  25
ATOM     25  C   UNL     1       3.868   7.662   0.433  0.00  0.00    -0.046 A 
ATOM     26  C   UNL     1       3.924   8.447  -0.704  0.00  0.00    +0.005 A 
ATOM     27  C   UNL     1       3.936   9.825  -0.593  0.00  0.00    +0.029 A 
ATOM     28  C   UNL     1       3.901  10.418   0.655  0.00  0.00    +0.105 A 
ATOM     29  C   UNL     1       3.850   9.633   1.792  0.00  0.00    +0.029 A 
ATOM     30  C   UNL     1       3.834   8.255   1.681  0.00  0.00    +0.005 A 
BRANCH  28  31
ATOM     31  S   UNL     1       3.920  12.174   0.797  0.00  0.00    +0.056 S 
ATOM     32  O   UNL     1       3.419  12.686  -0.430  0.00  0.00    -0.153 OA
ATOM     33  O   UNL     1       3.329  12.487   2.051  0.00  0.00    -0.153 OA
BRANCH  31  34
ATOM     34  N   UNL     1       5.506  12.640   0.891  0.00  0.00    -0.204 NA
ATOM     35  H   UNL     1       6.210  11.974   0.863  0.00  0.00    +0.144 HD
ATOM     36  H   UNL     1       5.731  13.580   0.975  0.00  0.00    +0.144 HD
ENDBRANCH  31  34
ENDBRANCH  28  31
ENDBRANCH  24  25
ENDBRANCH  23  24
ENDBRANCH  21  23
ENDBRANCH   3  19
TORSDOF 6
