REMARK  Name = ZINC63557914
REMARK  7 active torsions:
REMARK  status: ('A' for Active; 'I' for Inactive)
REMARK    1  A    between atoms: C_4  and  N_16
REMARK    2  A    between atoms: C_5  and  C_7
REMARK    3  A    between atoms: N_9  and  C_10
REMARK    4  A    between atoms: C_17  and  C_19
REMARK    5  A    between atoms: N_24  and  C_26
REMARK    6  A    between atoms: C_26  and  C_27
REMARK    7  A    between atoms: C_27  and  C_28
REMARK                            x       y       z     vdW  Elec       q    Type
REMARK                         _______ _______ _______ _____ _____    ______ ____
ROOT
ATOM      1  N   UNL     1       3.496  -0.527  -0.058  0.00  0.00    -0.285 N 
ATOM      2  C   UNL     1       4.606   0.223  -0.207  0.00  0.00    +0.222 C 
ATOM      3  O   UNL     1       4.523   1.433  -0.225  0.00  0.00    -0.275 OA
ATOM      4  H   UNL     1       3.570  -1.489   0.038  0.00  0.00    +0.155 HD
ENDROOT
BRANCH   1   8
ATOM      5  C   UNL     1      -0.256   1.292  -0.007  0.00  0.00    +0.001 A 
ATOM      6  C   UNL     1       0.808   1.902  -0.652  0.00  0.00    +0.002 A 
ATOM      7  C   UNL     1       2.051   1.303  -0.670  0.00  0.00    +0.024 A 
ATOM      8  C   UNL     1       2.243   0.081  -0.040  0.00  0.00    +0.046 A 
ATOM      9  C   UNL     1       1.168  -0.540   0.614  0.00  0.00    +0.058 A 
ATOM     10  C   UNL     1      -0.084   0.079   0.624  0.00  0.00    +0.015 A 
BRANCH   9  11
ATOM     11  C   UNL     1       1.359  -1.839   1.287  0.00  0.00    +0.246 C 
ATOM     12  O   UNL     1       2.470  -2.329   1.359  0.00  0.00    -0.270 OA
ATOM     13  N   UNL     1       0.303  -2.482   1.822  0.00  0.00    -0.308 N 
ATOM     14  H   UNL     1      -0.583  -2.091   1.765  0.00  0.00    +0.149 HD
BRANCH  13  15
ATOM     15  C   UNL     1       0.492  -3.772   2.490  0.00  0.00    +0.073 C 
ATOM     16  C   UNL     1       0.463  -4.894   1.451  0.00  0.00    +0.022 C 
ATOM     17  C   UNL     1       0.661  -6.241   2.149  0.00  0.00    +0.002 C 
ATOM     18  C   UNL     1      -0.461  -6.459   3.166  0.00  0.00    +0.000 C 
ATOM     19  C   UNL     1      -0.432  -5.337   4.205  0.00  0.00    +0.002 C 
ATOM     20  C   UNL     1      -0.630  -3.990   3.507  0.00  0.00    +0.022 C 
ENDBRANCH  13  15
ENDBRANCH   9  11
ENDBRANCH   1   8
BRANCH   2  21
ATOM     21  C   UNL     1       5.951  -0.442  -0.353  0.00  0.00    +0.101 C 
ATOM     22  C   UNL     1       6.019  -1.274  -1.655  0.00  0.00    +0.110 C 
ATOM     23  C   UNL     1       7.436  -1.077  -2.147  0.00  0.00    +0.216 C 
ATOM     24  O   UNL     1       7.985  -1.770  -2.977  0.00  0.00    -0.276 OA
ATOM     25  N   UNL     1       7.997  -0.024  -1.530  0.00  0.00    -0.300 N 
ATOM     26  C   UNL     1       7.062   0.604  -0.588  0.00  0.00    +0.121 C 
BRANCH  25  27
ATOM     27  C   UNL     1       9.367   0.439  -1.767  0.00  0.00    +0.112 C 
BRANCH  27  28
ATOM     28  C   UNL     1       9.370   1.468  -2.899  0.00  0.00    +0.052 C 
BRANCH  28  29
ATOM     29  C   UNL     1      10.779   1.944  -3.143  0.00  0.00    -0.040 C 
ATOM     30  C   UNL     1      11.649   1.471  -4.064  0.00  0.00    +0.002 A 
ATOM     31  C   UNL     1      11.548   0.412  -5.075  0.00  0.00    +0.048 A 
ATOM     32  C   UNL     1      12.613   0.161  -5.872  0.00  0.00    +0.124 A 
ATOM     33  C   UNL     1      13.809   0.888  -5.754  0.00  0.00    +0.040 A 
ATOM     34  C   UNL     1      13.976   1.874  -4.849  0.00  0.00    +0.029 A 
ATOM     35  C   UNL     1      12.921   2.221  -3.960  0.00  0.00    +0.043 A 
ATOM     36  N   UNL     1      12.840   3.123  -3.012  0.00  0.00    -0.380 N 
ATOM     37  C   UNL     1      11.504   3.051  -2.411  0.00  0.00    +0.144 C 
ATOM     38  F   UNL     1      12.524  -0.813  -6.804  0.00  0.00    -0.205 F 
ATOM     39  H   UNL     1      13.544   3.738  -2.754  0.00  0.00    +0.160 HD
ENDBRANCH  28  29
ENDBRANCH  27  28
ENDBRANCH  25  27
ENDBRANCH   2  21
TORSDOF 7
