REMARK  Name = ZINC39674099
REMARK  11 active torsions:
REMARK  status: ('A' for Active; 'I' for Inactive)
REMARK    1  A    between atoms: C_1  and  C_2
REMARK    2  A    between atoms: C_4  and  C_12
REMARK    3  A    between atoms: C_12  and  C_13
REMARK    4  A    between atoms: C_13  and  N_14
REMARK    5  A    between atoms: C_15  and  C_17
REMARK    6  A    between atoms: C_28  and  C_30
REMARK    7  A    between atoms: C_30  and  C_32
REMARK    8  A    between atoms: C_30  and  O_35
REMARK    9  A    between atoms: C_32  and  C_33
REMARK   10  A    between atoms: C_32  and  C_34
REMARK   11  A    between atoms: O_35  and  C_36
REMARK                            x       y       z     vdW  Elec       q    Type
REMARK                         _______ _______ _______ _____ _____    ______ ____
ROOT
ATOM      1  C   UNL     1      -5.609   4.306   4.017  0.00  0.00    +0.100 C 
ATOM      2  C   UNL     1      -5.162   2.994   4.700  0.00  0.00    +0.121 C 
ATOM      3  N   UNL     1      -4.361   3.434   5.867  0.00  0.00    -0.297 N 
ATOM      4  C   UNL     1      -5.089   4.615   6.389  0.00  0.00    +0.115 C 
ATOM      5  C   UNL     1      -5.564   5.366   5.130  0.00  0.00    -0.004 C 
ATOM      6  C   UNL     1      -6.954   5.953   5.357  0.00  0.00    -0.010 C 
ATOM      7  C   UNL     1      -6.873   7.046   6.427  0.00  0.00    -0.082 C 
ATOM      8  N   UNL     1      -5.943   8.094   5.989  0.00  0.00    +0.379 N 
ATOM      9  C   UNL     1      -4.589   7.540   5.862  0.00  0.00    -0.082 C 
ATOM     10  C   UNL     1      -4.574   6.469   4.769  0.00  0.00    -0.010 C 
ATOM     11  C   UNL     1      -3.227   2.885   6.345  0.00  0.00    +0.257 C 
ATOM     12  O   UNL     1      -2.701   1.967   5.752  0.00  0.00    -0.272 OA
ATOM     13  H   UNL     1      -6.242   8.455   5.096  0.00  0.00    -0.086 HD
ATOM     14  H   UNL     1      -5.938   8.841   6.667  0.00  0.00    -0.086 HD
ENDROOT
BRANCH   1  16
ATOM     15  N   UNL     1      -5.102   5.366   1.840  0.00  0.00    -0.315 N 
ATOM     16  C   UNL     1      -4.659   4.670   2.906  0.00  0.00    +0.218 C 
ATOM     17  O   UNL     1      -3.494   4.337   2.971  0.00  0.00    -0.275 OA
ATOM     18  H   UNL     1      -6.033   5.633   1.789  0.00  0.00    +0.149 HD
BRANCH  15  19
ATOM     19  C   UNL     1      -4.177   5.720   0.761  0.00  0.00    +0.109 C 
BRANCH  19  20
ATOM     20  C   UNL     1      -4.929   6.503  -0.318  0.00  0.00    +0.056 C 
BRANCH  20  24
ATOM     21  C   UNL     1      -4.325   4.798  -2.840  0.00  0.00    +0.063 C 
ATOM     22  C   UNL     1      -3.711   6.137  -2.523  0.00  0.00    +0.017 A 
ATOM     23  H   UNL     1      -2.442   6.452  -4.145  0.00  0.00    +0.166 HD
ATOM     24  C   UNL     1      -3.978   6.867  -1.429  0.00  0.00    -0.018 A 
ATOM     25  C   UNL     1      -3.171   8.086  -1.520  0.00  0.00    +0.003 A 
ATOM     26  C   UNL     1      -3.014   9.209  -0.706  0.00  0.00    +0.010 A 
ATOM     27  C   UNL     1      -2.156  10.205  -1.082  0.00  0.00    +0.001 A 
ATOM     28  C   UNL     1      -1.440  10.109  -2.267  0.00  0.00    +0.002 A 
ATOM     29  C   UNL     1      -1.580   9.009  -3.085  0.00  0.00    +0.026 A 
ATOM     30  C   UNL     1      -2.447   7.984  -2.723  0.00  0.00    +0.047 A 
ATOM     31  N   UNL     1      -2.794   6.785  -3.305  0.00  0.00    -0.358 N 
ENDBRANCH  20  24
ENDBRANCH  19  20
ENDBRANCH  15  19
ENDBRANCH   1  16
BRANCH  11  32
ATOM     32  C   UNL     1      -2.612   3.411   7.616  0.00  0.00    +0.261 C 
BRANCH  32  33
ATOM     33  C   UNL     1      -3.555   3.136   8.790  0.00  0.00    +0.033 C 
ATOM     34  C   UNL     1      -3.700   1.626   8.984  0.00  0.00    +0.011 C 
ATOM     35  C   UNL     1      -2.981   3.762  10.062  0.00  0.00    +0.011 C 
ENDBRANCH  32  33
BRANCH  32  36
ATOM     36  O   UNL     1      -1.362   2.759   7.846  0.00  0.00    -0.479 OA
BRANCH  36  37
ATOM     37  C   UNL     1      -0.369   3.505   8.397  0.00  0.00    +0.122 A 
ATOM     38  C   UNL     1       0.874   2.939   8.638  0.00  0.00    +0.045 A 
ATOM     39  C   UNL     1       1.882   3.700   9.197  0.00  0.00    +0.004 A 
ATOM     40  C   UNL     1       1.653   5.025   9.517  0.00  0.00    +0.000 A 
ATOM     41  C   UNL     1       0.415   5.592   9.278  0.00  0.00    +0.004 A 
ATOM     42  C   UNL     1      -0.595   4.837   8.713  0.00  0.00    +0.045 A 
ENDBRANCH  36  37
ENDBRANCH  32  36
ENDBRANCH  11  32
TORSDOF 8
