REMARK  Name = ZINC13643626
REMARK  6 active torsions:
REMARK  status: ('A' for Active; 'I' for Inactive)
REMARK    1  A    between atoms: C_1  and  C_2
REMARK    2  A    between atoms: C_3  and  N_27
REMARK    3  A    between atoms: C_9  and  C_18
REMARK    4  A    between atoms: C_21  and  N_24
REMARK    5  A    between atoms: N_24  and  C_25
REMARK    6  A    between atoms: N_24  and  C_26
REMARK                            x       y       z     vdW  Elec       q    Type
REMARK                         _______ _______ _______ _____ _____    ______ ____
ROOT
ATOM      1  C   UNL     1      -4.725   0.047   0.413  0.00  0.00    +0.048 C 
ATOM      2  C   UNL     1      -3.602   0.323   1.379  0.00  0.00    +0.001 A 
ATOM      3  C   UNL     1      -3.769   0.038   2.716  0.00  0.00    +0.131 A 
ATOM      4  C   UNL     1      -2.747   0.287   3.614  0.00  0.00    +0.033 A 
ATOM      5  C   UNL     1      -1.558   0.829   3.163  0.00  0.00    +0.008 A 
ATOM      6  C   UNL     1      -1.384   1.121   1.827  0.00  0.00    -0.019 A 
ATOM      7  C   UNL     1      -2.405   0.864   0.907  0.00  0.00    +0.036 A 
ATOM      8  N   UNL     1      -2.302   1.105  -0.461  0.00  0.00    -0.336 N 
ATOM      9  C   UNL     1      -1.060   1.731  -0.948  0.00  0.00    +0.105 C 
ATOM     10  C   UNL     1       0.076   1.157  -0.126  0.00  0.00    +0.029 C 
ATOM     11  C   UNL     1      -0.129   1.715   1.317  0.00  0.00    +0.049 C 
ATOM     12  C   UNL     1       1.187   1.476   1.959  0.00  0.00    -0.023 C 
ATOM     13  C   UNL     1       2.126   1.496   1.019  0.00  0.00    -0.030 C 
ATOM     14  C   UNL     1       1.484   1.718  -0.354  0.00  0.00    +0.033 C 
ATOM     15  H   UNL     1      -3.115   1.593  -0.805  0.00  0.00    +0.147 HD
ENDROOT
BRANCH   9  16
ATOM     16  C   UNL     1      -1.158   3.217  -0.720  0.00  0.00    -0.027 A 
ATOM     17  C   UNL     1      -2.009   3.711   0.252  0.00  0.00    +0.007 A 
ATOM     18  C   UNL     1      -2.097   5.073   0.467  0.00  0.00    +0.023 A 
ATOM     19  C   UNL     1      -1.339   5.946  -0.302  0.00  0.00    +0.029 A 
ATOM     20  C   UNL     1      -0.490   5.447  -1.281  0.00  0.00    +0.023 A 
ATOM     21  C   UNL     1      -0.402   4.084  -1.487  0.00  0.00    +0.007 A 
BRANCH  19  22
ATOM     22  N   UNL     1      -1.431   7.324  -0.091  0.00  0.00    -0.336 N 
ATOM     23  C   UNL     1      -0.631   8.244  -0.904  0.00  0.00    +0.129 C 
ATOM     24  C   UNL     1      -2.327   7.849   0.942  0.00  0.00    +0.129 C 
ENDBRANCH  19  22
ENDBRANCH   9  16
BRANCH   3  25
ATOM     25  N   UNL     1      -5.046  -0.536   3.194  0.00  0.00    +0.057 N 
ATOM     26  O   UNL     1      -5.501  -0.198   4.272  0.00  0.00    -0.126 OA
ATOM     27  O   UNL     1      -5.643  -1.347   2.509  0.00  0.00    -0.126 OA
ENDBRANCH   3  25
TORSDOF 3
