REMARK  Name = ZINC22145475
REMARK  7 active torsions:
REMARK  status: ('A' for Active; 'I' for Inactive)
REMARK    1  A    between atoms: C_1  and  C_2
REMARK    2  A    between atoms: C_2  and  C_25
REMARK    3  A    between atoms: C_3  and  O_17
REMARK    4  A    between atoms: C_7  and  C_14
REMARK    5  A    between atoms: C_8  and  C_9
REMARK    6  A    between atoms: C_8  and  C_11
REMARK    7  A    between atoms: O_17  and  N_18
REMARK                            x       y       z     vdW  Elec       q    Type
REMARK                         _______ _______ _______ _____ _____    ______ ____
ROOT
ATOM      1  C   UNL     1       2.435   1.542  -0.899  0.00  0.00    +0.019 C 
ATOM      2  C   UNL     1       1.408   2.097   0.090  0.00  0.00    +0.053 C 
ATOM      3  C   UNL     1       1.830   1.745   1.523  0.00  0.00    +0.299 C 
ATOM      4  N   UNL     1       0.836   2.321   2.439  0.00  0.00    -0.297 N 
ATOM      5  C   UNL     1      -0.496   2.188   2.145  0.00  0.00    +0.113 C 
ATOM      6  C   UNL     1      -0.914   1.798   0.929  0.00  0.00    +0.091 C 
ATOM      7  C   UNL     1       0.040   1.470  -0.185  0.00  0.00    +0.179 C 
ATOM      8 CL   UNL     1      -1.673   2.532   3.374  0.00  0.00    -0.066 Cl
ATOM      9  C   UNL     1       1.317   3.616  -0.064  0.00  0.00    +0.019 C 
ATOM     10  H   UNL     1       1.165   2.850   3.346  0.00  0.00    +0.150 HD
ENDROOT
BRANCH   7  11
ATOM     11  C   UNL     1      -0.507   2.010  -1.481  0.00  0.00    +0.237 C 
ATOM     12  O   UNL     1       0.135   2.817  -2.120  0.00  0.00    -0.274 OA
ATOM     13  N   UNL     1      -1.708   1.597  -1.931  0.00  0.00    -0.328 N 
ATOM     14  H   UNL     1      -2.107   1.991  -2.877  0.00  0.00    +0.145 HD
ATOM     15  H   UNL     1      -2.290   0.865  -1.351  0.00  0.00    +0.145 HD
ENDBRANCH   7  11
BRANCH   7  16
ATOM     16  C   UNL     1       0.184   0.008  -0.288  0.00  0.00    +0.085 C 
ATOM     17  N   UNL     1       0.296  -1.119  -0.368  0.00  0.00    -0.195 NA
ENDBRANCH   7  16
BRANCH   6  18
ATOM     18  C   UNL     1      -2.321   1.692   0.686  0.00  0.00    +0.100 C 
ATOM     19  N   UNL     1      -3.437   1.607   0.492  0.00  0.00    -0.191 NA
ENDBRANCH   6  18
BRANCH   3  20
ATOM     20  O   UNL     1       1.868   0.325   1.681  0.00  0.00    -0.371 OA
BRANCH  20  21
ATOM     21  N   UNL     1       2.820  -0.123   2.628  0.00  0.00    -0.092 NA
ATOM     22  C   UNL     1       2.951  -1.375   2.861  0.00  0.00    +0.058 C 
ATOM     23  C   UNL     1       2.095  -2.392   2.139  0.00  0.00    +0.054 C 
ATOM     24  C   UNL     1       3.019  -3.459   1.534  0.00  0.00    +0.006 C 
ATOM     25  C   UNL     1       3.901  -4.048   2.636  0.00  0.00    +0.001 C 
ATOM     26  C   UNL     1       4.815  -2.962   3.205  0.00  0.00    +0.006 C 
ATOM     27  C   UNL     1       3.962  -1.875   3.869  0.00  0.00    +0.054 C 
ENDBRANCH  20  21
ENDBRANCH   3  20
TORSDOF 5
