REMARK  Name = ZINC64743956
REMARK  10 active torsions:
REMARK  status: ('A' for Active; 'I' for Inactive)
REMARK    1  A    between atoms: C_1  and  C_2
REMARK    2  A    between atoms: C_2  and  C_4
REMARK    3  A    between atoms: C_2  and  N_30
REMARK    4  A    between atoms: C_4  and  C_5
REMARK    5  A    between atoms: C_5  and  N_6
REMARK    6  A    between atoms: C_7  and  C_9
REMARK    7  A    between atoms: C_9  and  C_10
REMARK    8  A    between atoms: C_16  and  C_18
REMARK    9  A    between atoms: C_24  and  O_28
REMARK   10  A    between atoms: O_28  and  C_29
REMARK                            x       y       z     vdW  Elec       q    Type
REMARK                         _______ _______ _______ _____ _____    ______ ____
ROOT
ATOM      1  C   UNL     1      -2.837  -6.823   0.141  0.00  0.00    +0.001 C 
ATOM      2  C   UNL     1      -1.885  -7.211   1.275  0.00  0.00    +0.023 C 
ATOM      3  C   UNL     1      -1.485  -8.681   1.119  0.00  0.00    +0.108 C 
ATOM      4  N   UNL     1      -2.704  -9.498   1.049  0.00  0.00    -0.300 N 
ATOM      5  C   UNL     1      -3.728  -9.155   0.054  0.00  0.00    +0.108 C 
ATOM      6  C   UNL     1      -4.104  -7.679   0.221  0.00  0.00    +0.023 C 
ATOM      7  C   UNL     1      -2.879 -10.543   1.882  0.00  0.00    +0.242 C 
ATOM      8  O   UNL     1      -2.026 -10.817   2.699  0.00  0.00    -0.273 OA
ENDROOT
BRANCH   7   9
ATOM      9  C   UNL     1      -4.135 -11.372   1.798  0.00  0.00    +0.190 C 
ATOM     10  C   UNL     1      -5.344 -10.520   2.114  0.00  0.00    +0.016 C 
ATOM     11  C   UNL     1      -5.919 -11.072   3.204  0.00  0.00    -0.003 A 
ATOM     12  C   UNL     1      -7.109 -10.714   3.988  0.00  0.00    +0.013 A 
ATOM     13  C   UNL     1      -7.445 -11.472   5.054  0.00  0.00    +0.046 A 
ATOM     14  C   UNL     1      -6.684 -12.595   5.431  0.00  0.00    +0.122 A 
ATOM     15  C   UNL     1      -5.574 -12.985   4.754  0.00  0.00    +0.071 A 
ATOM     16  C   UNL     1      -5.134 -12.257   3.620  0.00  0.00    +0.047 A 
ATOM     17  N   UNL     1      -4.111 -12.431   2.813  0.00  0.00    -0.370 N 
ATOM     18  H   UNL     1      -3.451 -13.139   2.877  0.00  0.00    +0.161 HD
BRANCH  14  19
ATOM     19  O   UNL     1      -7.075 -13.315   6.511  0.00  0.00    -0.495 OA
ATOM     20  C   UNL     1      -8.249 -12.872   7.196  0.00  0.00    +0.277 C 
ENDBRANCH  14  19
ENDBRANCH   7   9
BRANCH   1  21
ATOM     21  C   UNL     1      -3.212  -5.345   0.274  0.00  0.00    +0.099 C 
BRANCH  21  23
ATOM     22  N   UNL     1      -2.074  -3.153   0.145  0.00  0.00    -0.315 N 
ATOM     23  C   UNL     1      -1.984  -4.496   0.073  0.00  0.00    +0.213 C 
ATOM     24  O   UNL     1      -0.914  -5.020  -0.154  0.00  0.00    -0.276 OA
ATOM     25  H   UNL     1      -2.930  -2.733   0.326  0.00  0.00    +0.149 HD
BRANCH  22  26
ATOM     26  C   UNL     1      -0.880  -2.327  -0.050  0.00  0.00    +0.102 C 
BRANCH  26  27
ATOM     27  C   UNL     1      -1.255  -0.849   0.082  0.00  0.00    +0.003 C 
BRANCH  27  29
ATOM     28  C   UNL     1      -0.418   1.495  -0.135  0.00  0.00    -0.013 C 
ATOM     29  C   UNL     1      -0.039   0.017  -0.252  0.00  0.00    -0.070 C 
BRANCH  29  30
ATOM     30  N   UNL     1       1.050  -0.285   0.686  0.00  0.00    +0.381 N 
ATOM     31  C   UNL     1       0.617   0.080   2.048  0.00  0.00    -0.078 C 
ATOM     32  C   UNL     1       1.409  -0.743   3.033  0.00  0.00    -0.019 C 
ATOM     33  C   UNL     1       2.632   0.032   3.559  0.00  0.00    -0.002 C 
ATOM     34  C   UNL     1       3.329   0.830   2.439  0.00  0.00    -0.002 C 
ATOM     35  C   UNL     1       3.420   0.051   1.151  0.00  0.00    -0.019 C 
ATOM     36  C   UNL     1       2.199   0.391   0.271  0.00  0.00    -0.078 C 
ATOM     37  H   UNL     1       1.232  -1.278   0.660  0.00  0.00    -0.081 HD
ENDBRANCH  29  30
ENDBRANCH  27  29
ENDBRANCH  26  27
ENDBRANCH  22  26
ENDBRANCH  21  23
ENDBRANCH   1  21
TORSDOF 8
