REMARK  Name = ZINC21878106
REMARK  9 active torsions:
REMARK  status: ('A' for Active; 'I' for Inactive)
REMARK    1  A    between atoms: C_1  and  C_2
REMARK    2  A    between atoms: C_2  and  C_3
REMARK    3  A    between atoms: C_3  and  C_4
REMARK    4  A    between atoms: C_4  and  N_5
REMARK    5  A    between atoms: C_10  and  C_24
REMARK    6  A    between atoms: C_14  and  C_15
REMARK    7  A    between atoms: C_14  and  C_16
REMARK    8  A    between atoms: N_18  and  C_19
REMARK    9  A    between atoms: C_29  and  N_32
REMARK                            x       y       z     vdW  Elec       q    Type
REMARK                         _______ _______ _______ _____ _____    ______ ____
ROOT
ATOM      1  N   UNL     1      -0.455   0.923   2.600  0.00  0.00    -0.281 N 
ATOM      2  C   UNL     1      -0.770   0.032   3.570  0.00  0.00    +0.266 C 
ATOM      3  O   UNL     1      -1.851  -0.524   3.604  0.00  0.00    -0.268 OA
ATOM      4  C   UNL     1       0.268  -0.232   4.579  0.00  0.00    +0.124 A 
ATOM      5  C   UNL     1       0.358  -1.178   5.542  0.00  0.00    +0.067 A 
ATOM      6  C   UNL     1       1.595  -0.939   6.182  0.00  0.00    +0.148 A 
ATOM      7  N   UNL     1       2.156   0.103   5.588  0.00  0.00    -0.166 NA
ATOM      8  N   UNL     1       1.405   0.545   4.656  0.00  0.00    -0.256 N 
ATOM      9  C   UNL     1       1.607   1.688   3.756  0.00  0.00    +0.179 C 
ATOM     10  C   UNL     1       0.908   1.413   2.426  0.00  0.00    +0.130 C 
ATOM     11  C   UNL     1       1.714   0.367   1.653  0.00  0.00    +0.044 C 
ENDROOT
BRANCH   6  12
ATOM     12  C   UNL     1       2.160  -1.711   7.307  0.00  0.00    +0.267 C 
ATOM     13  O   UNL     1       1.605  -2.723   7.689  0.00  0.00    -0.268 OA
ATOM     14  N   UNL     1       3.291  -1.294   7.911  0.00  0.00    -0.296 N 
ATOM     15  C   UNL     1       3.950  -2.127   8.925  0.00  0.00    +0.106 C 
ATOM     16  C   UNL     1       4.149  -1.302  10.195  0.00  0.00    +0.004 C 
ATOM     17  C   UNL     1       4.904  -0.015   9.851  0.00  0.00    -0.066 C 
ATOM     18  C   UNL     1       4.082   0.811   8.860  0.00  0.00    +0.004 C 
ATOM     19  C   UNL     1       3.885   0.007   7.571  0.00  0.00    +0.106 C 
BRANCH  17  20
ATOM     20  N   UNL     1       5.122   0.766  11.076  0.00  0.00    +0.382 N 
ATOM     21  C   UNL     1       5.758   2.054  10.772  0.00  0.00    -0.078 C 
ATOM     22  C   UNL     1       5.838   2.899  12.046  0.00  0.00    -0.019 C 
ATOM     23  C   UNL     1       6.650   2.144  13.102  0.00  0.00    -0.004 C 
ATOM     24  C   UNL     1       5.994   0.786  13.365  0.00  0.00    -0.019 C 
ATOM     25  C   UNL     1       5.910   0.003  12.053  0.00  0.00    -0.078 C 
ATOM     26  H   UNL     1       4.141   0.974  11.526  0.00  0.00    -0.081 HD
ENDBRANCH  17  20
ENDBRANCH   6  12
BRANCH  10  27
ATOM     27  C   UNL     1       0.869   2.688   1.624  0.00  0.00    +0.238 C 
ATOM     28  O   UNL     1       1.633   2.844   0.695  0.00  0.00    -0.273 OA
ATOM     29  N   UNL     1      -0.016   3.655   1.938  0.00  0.00    -0.311 N 
ATOM     30  H   UNL     1      -0.652   3.550   2.829  0.00  0.00    +0.149 HD
BRANCH  29  31
ATOM     31  C   UNL     1      -0.130   4.846   1.093  0.00  0.00    +0.073 C 
ATOM     32  C   UNL     1       0.890   5.912   1.542  0.00  0.00    +0.022 C 
ATOM     33  C   UNL     1       0.139   7.256   1.361  0.00  0.00    +0.002 C 
ATOM     34  C   UNL     1      -1.305   6.902   1.796  0.00  0.00    +0.002 C 
ATOM     35  C   UNL     1      -1.525   5.475   1.254  0.00  0.00    +0.022 C 
ENDBRANCH  29  31
ENDBRANCH  10  27
BRANCH   1  36
ATOM     36  C   UNL     1      -1.510   1.411   1.708  0.00  0.00    +0.109 C 
BRANCH  36  37
ATOM     37  C   UNL     1      -1.508   0.588   0.418  0.00  0.00    +0.019 C 
BRANCH  37  39
ATOM     38  C   UNL     1      -2.608   0.275  -1.804  0.00  0.00    +0.004 C 
ATOM     39  C   UNL     1      -2.609   1.098  -0.514  0.00  0.00    -0.002 C 
ENDBRANCH  37  39
ENDBRANCH  36  37
ENDBRANCH   1  36
TORSDOF 7
