REMARK  Name = ZINC36569444
REMARK  7 active torsions:
REMARK  status: ('A' for Active; 'I' for Inactive)
REMARK    1  A    between atoms: C_1  and  C_2
REMARK    2  A    between atoms: C_5  and  C_9
REMARK    3  A    between atoms: N_11  and  C_12
REMARK    4  A    between atoms: C_12  and  N_14
REMARK    5  A    between atoms: N_14  and  C_15
REMARK    6  A    between atoms: C_17  and  N_22
REMARK    7  A    between atoms: C_20  and  O_21
REMARK                            x       y       z     vdW  Elec       q    Type
REMARK                         _______ _______ _______ _____ _____    ______ ____
ROOT
ATOM      1  C   UNL     1      -0.152  -6.265   1.171  0.00  0.00    +0.141 C 
ATOM      2  S   UNL     1      -0.481  -7.092  -0.291  0.00  0.00    -0.018 S 
ENDROOT
BRANCH   1   5
ATOM      3  C   UNL     1      -0.415  -4.221   0.074  0.00  0.00    +0.250 C 
ATOM      4  O   UNL     1      -0.649  -4.809  -0.964  0.00  0.00    -0.270 OA
ATOM      5  N   UNL     1      -0.154  -4.917   1.198  0.00  0.00    -0.264 N 
ATOM      6  H   UNL     1       0.033  -4.448   2.026  0.00  0.00    +0.157 HD
BRANCH   3  11
ATOM      7  C   UNL     1      -0.423   1.532   0.185  0.00  0.00    +0.045 C 
ATOM      8  C   UNL     1      -0.421   0.026   0.157  0.00  0.00    -0.036 A 
ATOM      9  C   UNL     1      -0.687  -0.641  -1.026  0.00  0.00    +0.005 A 
ATOM     10  C   UNL     1      -0.687  -2.020  -1.060  0.00  0.00    +0.013 A 
ATOM     11  C   UNL     1      -0.417  -2.744   0.103  0.00  0.00    +0.038 A 
ATOM     12  C   UNL     1      -0.149  -2.066   1.293  0.00  0.00    +0.028 A 
ATOM     13  C   UNL     1      -0.147  -0.685   1.312  0.00  0.00    +0.021 A 
ATOM     14 BR   UNL     1       0.222   0.236   2.922  0.00  0.00    -0.050 Br
ENDBRANCH   3  11
ENDBRANCH   1   5
BRANCH   1  15
ATOM     15  N   UNL     1       0.109  -6.960   2.296  0.00  0.00    -0.294 N 
ATOM     16  H   UNL     1       0.357  -6.493   3.109  0.00  0.00    +0.154 HD
BRANCH  15  17
ATOM     17  C   UNL     1       0.022  -8.359   2.290  0.00  0.00    +0.077 A 
ATOM     18  C   UNL     1       0.618  -9.088   1.271  0.00  0.00    +0.059 A 
ATOM     19  C   UNL     1       0.531 -10.468   1.268  0.00  0.00    +0.128 A 
ATOM     20  C   UNL     1      -0.148 -11.124   2.279  0.00  0.00    +0.036 A 
ATOM     21  C   UNL     1      -0.744 -10.403   3.297  0.00  0.00    +0.049 A 
ATOM     22  C   UNL     1      -0.657  -9.020   3.310  0.00  0.00    +0.138 A 
BRANCH  19  23
ATOM     23  N   UNL     1       1.167 -11.245   0.180  0.00  0.00    +0.056 N 
ATOM     24  O   UNL     1       1.760 -10.673  -0.704  0.00  0.00    -0.126 OA
ATOM     25  O   UNL     1       1.092 -12.452   0.176  0.00  0.00    -0.126 OA
ENDBRANCH  19  23
BRANCH  22  26
ATOM     26  O   UNL     1      -1.238  -8.311   4.314  0.00  0.00    -0.505 OA
ATOM     27  H   UNL     1      -2.154  -8.057   4.138  0.00  0.00    +0.292 HD
ENDBRANCH  22  26
ENDBRANCH  15  17
ENDBRANCH   1  15
TORSDOF 6
