REMARK  Name = ZINC14655744
REMARK  10 active torsions:
REMARK  status: ('A' for Active; 'I' for Inactive)
REMARK    1  A    between atoms: C_1  and  C_2
REMARK    2  A    between atoms: C_2  and  O_3
REMARK    3  A    between atoms: O_3  and  C_4
REMARK    4  A    between atoms: C_9  and  C_10
REMARK    5  A    between atoms: N_12  and  C_13
REMARK    6  A    between atoms: C_13  and  N_15
REMARK    7  A    between atoms: N_15  and  N_16
REMARK    8  A    between atoms: C_17  and  C_19
REMARK    9  A    between atoms: C_22  and  N_25
REMARK   10  A    between atoms: C_26  and  C_28
REMARK                            x       y       z     vdW  Elec       q    Type
REMARK                         _______ _______ _______ _____ _____    ______ ____
ROOT
ATOM      1  N   UNL     1       2.356   1.191   0.018  0.00  0.00    -0.245 N 
ATOM      2  H   UNL     1       2.366   0.221   0.021  0.00  0.00    +0.172 HD
ENDROOT
BRANCH   1   3
ATOM      3  N   UNL     1       1.136   1.879   0.026  0.00  0.00    -0.231 N 
ATOM      4  C   UNL     1      -0.024   1.194   0.038  0.00  0.00    +0.260 C 
ATOM      5  O   UNL     1      -0.012  -0.022   0.041  0.00  0.00    -0.269 OA
ATOM      6  H   UNL     1       1.126   2.849   0.024  0.00  0.00    +0.173 HD
BRANCH   4   7
ATOM      7  C   UNL     1      -1.310   1.919   0.040  0.00  0.00    +0.038 A 
ATOM      8  C   UNL     1      -1.325   3.317   0.043  0.00  0.00    +0.015 A 
ATOM      9  C   UNL     1      -2.526   3.990   0.038  0.00  0.00    +0.024 A 
ATOM     10  C   UNL     1      -3.723   3.281   0.045  0.00  0.00    +0.033 A 
ATOM     11  C   UNL     1      -3.711   1.889   0.048  0.00  0.00    +0.024 A 
ATOM     12  C   UNL     1      -2.514   1.210   0.046  0.00  0.00    +0.015 A 
BRANCH  10  13
ATOM     13  N   UNL     1      -4.938   3.966   0.047  0.00  0.00    -0.285 N 
ATOM     14  C   UNL     1      -5.996   3.464  -0.620  0.00  0.00    +0.220 C 
ATOM     15  O   UNL     1      -5.917   2.377  -1.153  0.00  0.00    -0.275 OA
ATOM     16  H   UNL     1      -5.021   4.803   0.529  0.00  0.00    +0.155 HD
BRANCH  14  17
ATOM     17  C   UNL     1      -7.277   4.253  -0.705  0.00  0.00    +0.075 C 
ATOM     18  C   UNL     1      -8.492   3.711   0.051  0.00  0.00    +0.013 C 
ATOM     19  C   UNL     1      -8.442   3.629  -1.476  0.00  0.00    +0.013 C 
ENDBRANCH  14  17
ENDBRANCH  10  13
ENDBRANCH   4   7
ENDBRANCH   1   3
BRANCH   1  20
ATOM     20  C   UNL     1       3.517   1.877   0.007  0.00  0.00    +0.153 C 
ATOM     21  S   UNL     1       5.008   1.035  -0.003  0.00  0.00    -0.017 S 
BRANCH  20  24
ATOM     22  C   UNL     1       4.664   3.910  -0.007  0.00  0.00    +0.253 C 
ATOM     23  O   UNL     1       5.722   3.312  -0.014  0.00  0.00    -0.270 OA
ATOM     24  N   UNL     1       3.503   3.224   0.004  0.00  0.00    -0.263 N 
ATOM     25  H   UNL     1       2.658   3.701   0.010  0.00  0.00    +0.157 HD
BRANCH  22  31
ATOM     26  C   UNL     1       5.853   6.101  -0.022  0.00  0.00    +0.133 A 
ATOM     27  C   UNL     1       5.828   7.488  -0.026  0.00  0.00    +0.047 A 
ATOM     28  C   UNL     1       4.621   8.158  -0.018  0.00  0.00    +0.019 A 
ATOM     29  C   UNL     1       3.427   7.453  -0.007  0.00  0.00    +0.019 A 
ATOM     30  C   UNL     1       3.434   6.075  -0.008  0.00  0.00    +0.032 A 
ATOM     31  C   UNL     1       4.649   5.384  -0.011  0.00  0.00    +0.080 A 
ATOM     32 BR   UNL     1       1.783   8.387   0.004  0.00  0.00    -0.050 Br
BRANCH  26  33
ATOM     33  O   UNL     1       7.039   5.441  -0.029  0.00  0.00    -0.491 OA
BRANCH  33  35
ATOM     34  C   UNL     1       9.453   5.326  -0.047  0.00  0.00    +0.048 C 
ATOM     35  C   UNL     1       8.225   6.239  -0.041  0.00  0.00    +0.226 C 
ENDBRANCH  33  35
ENDBRANCH  26  33
ENDBRANCH  22  31
ENDBRANCH  20  24
ENDBRANCH   1  20
TORSDOF 9
