REMARK  Name = ZINC40804024
REMARK  6 active torsions:
REMARK  status: ('A' for Active; 'I' for Inactive)
REMARK    1  A    between atoms: C_1  and  C_2
REMARK    2  A    between atoms: C_6  and  C_7
REMARK    3  A    between atoms: N_9  and  C_10
REMARK    4  A    between atoms: C_12  and  C_17
REMARK    5  A    between atoms: N_25  and  N_26
REMARK    6  A    between atoms: C_27  and  C_29
REMARK                            x       y       z     vdW  Elec       q    Type
REMARK                         _______ _______ _______ _____ _____    ______ ____
ROOT
ATOM      1  C   UNL     1      -0.005   1.502   0.010  0.00  0.00    +0.048 C 
ATOM      2  C   UNL     1       0.021  -0.005   0.002  0.00  0.00    +0.009 A 
ATOM      3  C   UNL     1       0.039  -0.839  -1.123  0.00  0.00    +0.042 A 
ATOM      4  C   UNL     1       0.059  -2.138  -0.672  0.00  0.00    +0.115 A 
ATOM      5  O   UNL     1       0.057  -2.112   0.658  0.00  0.00    -0.454 OA
ATOM      6  C   UNL     1       0.039  -0.831   1.091  0.00  0.00    +0.193 A 
ATOM      7  C   UNL     1       0.077  -3.327  -1.599  0.00  0.00    +0.075 C 
ATOM      8  C   UNL     1      -0.439  -2.905  -2.978  0.00  0.00    +0.014 C 
ATOM      9  C   UNL     1       0.331  -1.685  -3.493  0.00  0.00    +0.058 C 
ATOM     10  C   UNL     1       0.041  -0.513  -2.566  0.00  0.00    +0.070 C 
ATOM     11  N   UNL     1      -0.189   0.685  -3.010  0.00  0.00    -0.184 NA
ENDROOT
BRANCH   6  12
ATOM     12  C   UNL     1       0.036  -0.400   2.493  0.00  0.00    +0.284 C 
ATOM     13  O   UNL     1       0.016   0.786   2.765  0.00  0.00    -0.266 OA
ATOM     14  N   UNL     1       0.055  -1.317   3.480  0.00  0.00    -0.278 N 
ATOM     15  H   UNL     1      -0.010  -2.261   3.266  0.00  0.00    +0.155 HD
BRANCH  14  16
ATOM     16  C   UNL     1       0.168  -0.909   4.813  0.00  0.00    +0.053 A 
ATOM     17  C   UNL     1       0.761   0.309   5.119  0.00  0.00    +0.037 A 
ATOM     18  C   UNL     1       0.871   0.710   6.436  0.00  0.00    +0.057 A 
ATOM     19  C   UNL     1       0.393  -0.100   7.450  0.00  0.00    +0.014 A 
ATOM     20  C   UNL     1      -0.198  -1.313   7.150  0.00  0.00    +0.022 A 
ATOM     21  C   UNL     1      -0.317  -1.718   5.833  0.00  0.00    +0.062 A 
ATOM     22 CL   UNL     1      -1.066  -3.238   5.456  0.00  0.00    -0.082 Cl
BRANCH  18  23
ATOM     23  C   UNL     1       1.515   2.031   6.769  0.00  0.00    +0.417 C 
ATOM     24  F   UNL     1       0.539   3.033   6.791  0.00  0.00    -0.166 F 
ATOM     25  F   UNL     1       2.126   1.949   8.025  0.00  0.00    -0.166 F 
ATOM     26  F   UNL     1       2.477   2.338   5.801  0.00  0.00    -0.166 F 
ENDBRANCH  18  23
ENDBRANCH  14  16
ENDBRANCH   6  12
BRANCH  11  27
ATOM     27  N   UNL     1      -0.175   0.936  -4.388  0.00  0.00    -0.203 N 
ATOM     28  C   UNL     1      -0.413   2.180  -4.848  0.00  0.00    +0.263 C 
ATOM     29  O   UNL     1      -0.639   3.085  -4.068  0.00  0.00    -0.268 OA
ATOM     30  H   UNL     1       0.006   0.215  -5.011  0.00  0.00    +0.178 HD
BRANCH  28  31
ATOM     31  C   UNL     1      -0.398   2.445  -6.302  0.00  0.00    +0.038 A 
ATOM     32  C   UNL     1      -0.144   1.408  -7.202  0.00  0.00    +0.013 A 
ATOM     33  C   UNL     1      -0.132   1.662  -8.557  0.00  0.00    +0.001 A 
ATOM     34  C   UNL     1      -0.372   2.942  -9.027  0.00  0.00    +0.000 A 
ATOM     35  C   UNL     1      -0.624   3.974  -8.141  0.00  0.00    +0.001 A 
ATOM     36  C   UNL     1      -0.644   3.733  -6.783  0.00  0.00    +0.013 A 
ENDBRANCH  28  31
ENDBRANCH  11  27
TORSDOF 5
