REMARK  Name = ZINC39623414
REMARK  8 active torsions:
REMARK  status: ('A' for Active; 'I' for Inactive)
REMARK    1  A    between atoms: C_1  and  C_2
REMARK    2  A    between atoms: C_2  and  C_3
REMARK    3  A    between atoms: C_3  and  C_4
REMARK    4  A    between atoms: C_4  and  C_5
REMARK    5  A    between atoms: C_5  and  N_6
REMARK    6  A    between atoms: C_7  and  C_9
REMARK    7  A    between atoms: C_20  and  C_22
REMARK    8  A    between atoms: C_26  and  C_28
REMARK                            x       y       z     vdW  Elec       q    Type
REMARK                         _______ _______ _______ _____ _____    ______ ____
ROOT
ATOM      1  C   UNL     1       2.658  -5.798  -3.388  0.00  0.00    +0.100 C 
ATOM      2  C   UNL     1       3.309  -6.587  -2.230  0.00  0.00    +0.121 C 
ATOM      3  N   UNL     1       3.903  -7.780  -2.877  0.00  0.00    -0.296 N 
ATOM      4  C   UNL     1       4.459  -7.269  -4.153  0.00  0.00    +0.115 C 
ATOM      5  C   UNL     1       3.416  -6.248  -4.648  0.00  0.00    -0.004 C 
ATOM      6  C   UNL     1       2.457  -6.909  -5.633  0.00  0.00    -0.010 C 
ATOM      7  C   UNL     1       3.223  -7.297  -6.901  0.00  0.00    -0.082 C 
ATOM      8  N   UNL     1       3.821  -6.097  -7.500  0.00  0.00    +0.379 N 
ATOM      9  C   UNL     1       4.810  -5.520  -6.582  0.00  0.00    -0.082 C 
ATOM     10  C   UNL     1       4.111  -5.057  -5.300  0.00  0.00    -0.010 C 
ATOM     11  C   UNL     1       3.931  -9.045  -2.412  0.00  0.00    +0.247 C 
ATOM     12  O   UNL     1       3.318  -9.335  -1.404  0.00  0.00    -0.270 OA
ATOM     13  H   UNL     1       4.273  -6.345  -8.367  0.00  0.00    -0.086 HD
ATOM     14  H   UNL     1       3.098  -5.418  -7.683  0.00  0.00    -0.086 HD
ENDROOT
BRANCH  11  15
ATOM     15  C   UNL     1       4.708 -10.079  -3.128  0.00  0.00    +0.037 A 
ATOM     16  C   UNL     1       5.735  -9.707  -3.997  0.00  0.00    +0.014 A 
ATOM     17  C   UNL     1       6.457 -10.676  -4.662  0.00  0.00    +0.016 A 
ATOM     18  C   UNL     1       6.164 -12.016  -4.469  0.00  0.00    +0.021 A 
ATOM     19  C   UNL     1       5.146 -12.391  -3.608  0.00  0.00    -0.036 A 
ATOM     20  C   UNL     1       4.422 -11.431  -2.933  0.00  0.00    +0.017 A 
ATOM     21  C   UNL     1       4.834 -13.851  -3.404  0.00  0.00    +0.045 C 
ATOM     22 BR   UNL     1       7.157 -13.338  -5.386  0.00  0.00    -0.050 Br
ENDBRANCH  11  15
BRANCH   1  24
ATOM     23  N   UNL     1       1.903  -3.457  -3.645  0.00  0.00    -0.315 N 
ATOM     24  C   UNL     1       2.828  -4.316  -3.174  0.00  0.00    +0.218 C 
ATOM     25  O   UNL     1       3.797  -3.897  -2.578  0.00  0.00    -0.275 OA
ATOM     26  H   UNL     1       1.128  -3.792  -4.122  0.00  0.00    +0.149 HD
BRANCH  23  27
ATOM     27  C   UNL     1       2.069  -2.016  -3.438  0.00  0.00    +0.104 C 
BRANCH  27  28
ATOM     28  C   UNL     1       0.889  -1.271  -4.066  0.00  0.00    +0.019 C 
BRANCH  28  29
ATOM     29  C   UNL     1       1.062   0.234  -3.849  0.00  0.00    +0.001 C 
BRANCH  29  31
ATOM     30  C   UNL     1       0.056   2.483  -4.260  0.00  0.00    +0.004 C 
ATOM     31  C   UNL     1      -0.117   0.979  -4.477  0.00  0.00    -0.003 C 
ENDBRANCH  29  31
ENDBRANCH  28  29
ENDBRANCH  27  28
ENDBRANCH  23  27
ENDBRANCH   1  24
TORSDOF 6
