REMARK  Name = ZINC67461217
REMARK  9 active torsions:
REMARK  status: ('A' for Active; 'I' for Inactive)
REMARK    1  A    between atoms: C_1  and  N_2
REMARK    2  A    between atoms: C_3  and  C_5
REMARK    3  A    between atoms: C_8  and  C_11
REMARK    4  A    between atoms: C_11  and  N_12
REMARK    5  A    between atoms: N_12  and  C_13
REMARK    6  A    between atoms: N_16  and  C_17
REMARK    7  A    between atoms: C_17  and  C_18
REMARK    8  A    between atoms: C_18  and  C_19
REMARK    9  A    between atoms: C_19  and  C_20
REMARK                            x       y       z     vdW  Elec       q    Type
REMARK                         _______ _______ _______ _____ _____    ______ ____
ROOT
ATOM      1  N   UNL     1      -1.065  -6.944   1.357  0.00  0.00    -0.284 N 
ATOM      2  C   UNL     1      -2.327  -7.209   2.052  0.00  0.00    +0.134 C 
ATOM      3  C   UNL     1       0.108  -7.156   1.985  0.00  0.00    +0.302 C 
ATOM      4  O   UNL     1       1.156  -6.936   1.409  0.00  0.00    -0.253 OA
ATOM      5  N   UNL     1       0.121  -7.612   3.254  0.00  0.00    -0.299 N 
ATOM      6  H   UNL     1      -0.715  -7.787   3.714  0.00  0.00    +0.150 HD
ENDROOT
BRANCH   1   7
ATOM      7  C   UNL     1      -1.078  -6.448  -0.022  0.00  0.00    +0.144 C 
BRANCH   7  11
ATOM      8  C   UNL     1      -1.136  -2.172   0.001  0.00  0.00    +0.037 A 
ATOM      9  C   UNL     1       0.081  -2.857  -0.008  0.00  0.00    +0.013 A 
ATOM     10  C   UNL     1       0.092  -4.236  -0.015  0.00  0.00    +0.006 A 
ATOM     11  C   UNL     1      -1.098  -4.941  -0.013  0.00  0.00    -0.030 A 
ATOM     12  C   UNL     1      -2.307  -4.269  -0.005  0.00  0.00    +0.006 A 
ATOM     13  C   UNL     1      -2.333  -2.889   0.009  0.00  0.00    +0.013 A 
BRANCH   8  16
ATOM     14  C   UNL     1      -0.018   1.461   0.010  0.00  0.00    +0.128 C 
ATOM     15  N   UNL     1       0.002  -0.004   0.002  0.00  0.00    -0.314 N 
ATOM     16  C   UNL     1      -1.156  -0.694   0.009  0.00  0.00    +0.244 C 
ATOM     17  O   UNL     1      -2.217  -0.100   0.023  0.00  0.00    -0.270 OA
ATOM     18  H   UNL     1       0.849  -0.478  -0.009  0.00  0.00    +0.149 HD
ENDBRANCH   8  16
ENDBRANCH   7  11
ENDBRANCH   1   7
BRANCH   5  19
ATOM     19  C   UNL     1       1.396  -7.843   3.937  0.00  0.00    +0.106 C 
BRANCH  19  20
ATOM     20  C   UNL     1       1.130  -8.355   5.354  0.00  0.00    +0.026 C 
BRANCH  20  21
ATOM     21  C   UNL     1       2.462  -8.596   6.067  0.00  0.00    +0.078 C 
BRANCH  21  22
ATOM     22  C   UNL     1       2.199  -9.101   7.463  0.00  0.00    +0.134 A 
ATOM     23  N   UNL     1       2.047  -8.372   8.536  0.00  0.00    -0.134 NA
ATOM     24  N   UNL     1       1.831  -9.134   9.552  0.00  0.00    -0.134 NA
ATOM     25  C   UNL     1       1.832 -10.379   9.170  0.00  0.00    +0.133 A 
ATOM     26  N   UNL     1       2.072 -10.393   7.838  0.00  0.00    -0.315 N 
ATOM     27  C   UNL     1       2.187 -11.578   6.986  0.00  0.00    +0.125 C 
ATOM     28  C   UNL     1       1.347 -12.713   7.578  0.00  0.00    +0.022 C 
ATOM     29  C   UNL     1       2.194 -13.524   8.558  0.00  0.00    +0.002 C 
ATOM     30  C   UNL     1       2.664 -12.644   9.713  0.00  0.00    +0.008 C 
ATOM     31  C   UNL     1       1.600 -11.595  10.029  0.00  0.00    +0.076 C 
ENDBRANCH  21  22
ENDBRANCH  20  21
ENDBRANCH  19  20
ENDBRANCH   5  19
TORSDOF 7
