REMARK  Name = ZINC38690791
REMARK  7 active torsions:
REMARK  status: ('A' for Active; 'I' for Inactive)
REMARK    1  A    between atoms: C_1  and  C_2
REMARK    2  A    between atoms: C_2  and  C_3
REMARK    3  A    between atoms: N_5  and  C_6
REMARK    4  A    between atoms: C_6  and  C_7
REMARK    5  A    between atoms: C_7  and  C_8
REMARK    6  A    between atoms: C_16  and  C_18
REMARK    7  A    between atoms: N_25  and  C_28
REMARK                            x       y       z     vdW  Elec       q    Type
REMARK                         _______ _______ _______ _____ _____    ______ ____
ROOT
ATOM      1  C   UNL     1      -4.490  -4.319  -0.164  0.00  0.00    -0.033 C 
ATOM      2  C   UNL     1      -5.692  -3.706  -0.066  0.00  0.00    -0.000 A 
ATOM      3  C   UNL     1      -6.099  -2.298  -0.149  0.00  0.00    +0.010 A 
ATOM      4  C   UNL     1      -7.407  -1.984  -0.007  0.00  0.00    +0.001 A 
ATOM      5  C   UNL     1      -8.381  -2.967   0.219  0.00  0.00    +0.002 A 
ATOM      6  C   UNL     1      -8.084  -4.281   0.308  0.00  0.00    +0.026 A 
ATOM      7  C   UNL     1      -6.739  -4.724   0.173  0.00  0.00    +0.043 A 
ATOM      8  N   UNL     1      -6.206  -5.921   0.220  0.00  0.00    -0.374 N 
ATOM      9  C   UNL     1      -4.759  -5.797   0.010  0.00  0.00    +0.130 C 
ATOM     10  H   UNL     1      -6.688  -6.750   0.364  0.00  0.00    +0.161 HD
ENDROOT
BRANCH   9  11
ATOM     11  C   UNL     1      -4.344  -6.550  -1.227  0.00  0.00    +0.020 C 
ATOM     12  C   UNL     1      -3.519  -7.613  -1.126  0.00  0.00    +0.098 C 
ATOM     13  C   UNL     1      -2.916  -8.245  -2.324  0.00  0.00    +0.256 C 
ATOM     14  O   UNL     1      -3.149  -7.821  -3.439  0.00  0.00    -0.270 OA
ATOM     15  N   UNL     1      -2.101  -9.305  -2.141  0.00  0.00    -0.236 N 
ATOM     16  C   UNL     1      -1.836  -9.783  -0.918  0.00  0.00    +0.316 C 
ATOM     17  O   UNL     1      -1.093 -10.740  -0.826  0.00  0.00    -0.252 OA
ATOM     18  N   UNL     1      -2.342  -9.266   0.210  0.00  0.00    -0.218 N 
ATOM     19  C   UNL     1      -3.169  -8.200   0.191  0.00  0.00    +0.259 C 
ATOM     20  O   UNL     1      -3.618  -7.738   1.221  0.00  0.00    -0.269 OA
ATOM     21  H   UNL     1      -1.698  -9.730  -2.913  0.00  0.00    +0.159 HD
BRANCH  18  22
ATOM     22  C   UNL     1      -1.984  -9.869   1.496  0.00  0.00    +0.086 C 
ATOM     23  C   UNL     1      -0.468  -9.795   1.690  0.00  0.00    +0.023 C 
ATOM     24  C   UNL     1      -0.094 -10.426   3.033  0.00  0.00    +0.002 C 
ATOM     25  C   UNL     1      -0.540 -11.889   3.051  0.00  0.00    +0.000 C 
ATOM     26  C   UNL     1      -2.056 -11.963   2.858  0.00  0.00    +0.002 C 
ATOM     27  C   UNL     1      -2.430 -11.333   1.514  0.00  0.00    +0.023 C 
ENDBRANCH  18  22
ENDBRANCH   9  11
BRANCH   1  28
ATOM     28  C   UNL     1      -3.155  -3.663  -0.405  0.00  0.00    +0.052 C 
BRANCH  28  29
ATOM     29  C   UNL     1      -3.344  -2.149  -0.521  0.00  0.00    +0.108 C 
BRANCH  29  32
ATOM     30  C   UNL     1      -1.968  -0.173  -0.891  0.00  0.00    +0.213 C 
ATOM     31  O   UNL     1      -2.972   0.504  -0.819  0.00  0.00    -0.276 OA
ATOM     32  N   UNL     1      -2.046  -1.511  -0.755  0.00  0.00    -0.315 N 
ATOM     33  H   UNL     1      -1.243  -2.053  -0.812  0.00  0.00    +0.149 HD
BRANCH  30  35
ATOM     34  C   UNL     1      -0.822   1.997  -1.247  0.00  0.00    +0.013 C 
ATOM     35  C   UNL     1      -0.633   0.483  -1.131  0.00  0.00    +0.092 C 
ENDBRANCH  30  35
ENDBRANCH  29  32
ENDBRANCH  28  29
ENDBRANCH   1  28
TORSDOF 6
