REMARK  Name = ZINC40140554
REMARK  6 active torsions:
REMARK  status: ('A' for Active; 'I' for Inactive)
REMARK    1  A    between atoms: C_1  and  C_2
REMARK    2  A    between atoms: C_2  and  C_3
REMARK    3  A    between atoms: C_2  and  C_4
REMARK    4  A    between atoms: C_9  and  C_12
REMARK    5  A    between atoms: C_12  and  C_13
REMARK    6  A    between atoms: C_18  and  C_21
REMARK                            x       y       z     vdW  Elec       q    Type
REMARK                         _______ _______ _______ _____ _____    ______ ____
ROOT
ATOM      1  C   UNL     1       0.965   0.738   7.533  0.00  0.00    +0.224 C 
ATOM      2  O   UNL     1       1.141   1.533   6.634  0.00  0.00    -0.275 OA
ATOM      3  N   UNL     1       0.675   1.177   8.774  0.00  0.00    -0.264 N 
ATOM      4  C   UNL     1       0.578   2.540   9.023  0.00  0.00    +0.165 A 
ATOM      5  N   UNL     1       0.312   3.142  10.160  0.00  0.00    -0.225 NA
ATOM      6  C   UNL     1       0.254   4.466  10.238  0.00  0.00    +0.082 A 
ATOM      7  C   UNL     1       0.484   5.157   9.082  0.00  0.00    +0.077 A 
ATOM      8  S   UNL     1       0.781   3.814   7.944  0.00  0.00    -0.060 S 
ATOM      9  H   UNL     1       0.534   0.541   9.492  0.00  0.00    +0.157 HD
ENDROOT
BRANCH   6  10
ATOM     10  C   UNL     1      -0.046   5.159  11.515  0.00  0.00    +0.026 A 
ATOM     11  C   UNL     1      -0.136   6.497  11.707  0.00  0.00    +0.093 A 
ATOM     12  N   UNL     1      -0.427   6.758  13.018  0.00  0.00    -0.360 N 
ATOM     13  H   UNL     1      -0.541   7.643  13.396  0.00  0.00    +0.165 HD
ATOM     14  C   UNL     1      -0.536   5.579  13.722  0.00  0.00    +0.047 A 
ATOM     15  C   UNL     1      -0.310   4.527  12.817  0.00  0.00    +0.009 A 
ATOM     16  C   UNL     1      -0.364   3.205  13.257  0.00  0.00    +0.010 A 
ATOM     17  C   UNL     1      -0.641   2.937  14.569  0.00  0.00    +0.001 A 
ATOM     18  C   UNL     1      -0.869   3.970  15.466  0.00  0.00    +0.002 A 
ATOM     19  C   UNL     1      -0.812   5.284  15.053  0.00  0.00    +0.026 A 
ENDBRANCH   6  10
BRANCH   1  20
ATOM     20  C   UNL     1       1.069  -0.741   7.262  0.00  0.00    +0.152 C 
BRANCH  20  26
ATOM     21  C   UNL     1       0.731  -0.503   1.223  0.00  0.00    +0.221 C 
ATOM     22  O   UNL     1       1.725  -1.187   1.099  0.00  0.00    -0.275 OA
ATOM     23  N   UNL     1       0.278  -0.191   2.453  0.00  0.00    -0.264 N 
ATOM     24  C   UNL     1       0.950  -0.651   3.579  0.00  0.00    +0.165 A 
ATOM     25  N   UNL     1       0.654  -0.453   4.846  0.00  0.00    -0.229 NA
ATOM     26  C   UNL     1       1.400  -0.963   5.808  0.00  0.00    +0.059 A 
ATOM     27  C   UNL     1       2.477  -1.695   5.431  0.00  0.00    +0.072 A 
ATOM     28  S   UNL     1       2.336  -1.603   3.654  0.00  0.00    -0.060 S 
ATOM     29  H   UNL     1      -0.517   0.356   2.553  0.00  0.00    +0.157 HD
BRANCH  21  31
ATOM     30  C   UNL     1      -0.019   1.526   0.010  0.00  0.00    +0.017 C 
ATOM     31  C   UNL     1       0.002  -0.004   0.002  0.00  0.00    +0.069 C 
ATOM     32  C   UNL     1       0.718  -0.497  -1.257  0.00  0.00    +0.017 C 
ENDBRANCH  21  31
ENDBRANCH  20  26
ENDBRANCH   1  20
TORSDOF 4
