REMARK  Name = ZINC49909496
REMARK  8 active torsions:
REMARK  status: ('A' for Active; 'I' for Inactive)
REMARK    1  A    between atoms: C_1  and  C_2
REMARK    2  A    between atoms: C_2  and  C_3
REMARK    3  A    between atoms: C_2  and  C_4
REMARK    4  A    between atoms: C_4  and  C_6
REMARK    5  A    between atoms: C_4  and  N_16
REMARK    6  A    between atoms: N_8  and  C_9
REMARK    7  A    between atoms: C_17  and  C_19
REMARK    8  A    between atoms: C_22  and  N_26
REMARK                            x       y       z     vdW  Elec       q    Type
REMARK                         _______ _______ _______ _____ _____    ______ ____
ROOT
ATOM      1  C   UNL     1       0.660  -0.607   1.246  0.00  0.00    +0.162 C 
ENDROOT
BRANCH   1   2
ATOM      2  C   UNL     1       2.071  -0.090   1.367  0.00  0.00    +0.234 C 
ATOM      3  O   UNL     1       3.007  -0.854   1.264  0.00  0.00    -0.274 OA
ATOM      4  N   UNL     1       2.292   1.221   1.589  0.00  0.00    -0.311 N 
ATOM      5  H   UNL     1       1.548   1.843   1.598  0.00  0.00    +0.149 HD
BRANCH   4   6
ATOM      6  C   UNL     1       3.655   1.706   1.816  0.00  0.00    +0.073 C 
ATOM      7  C   UNL     1       4.029   1.470   3.294  0.00  0.00    +0.022 C 
ATOM      8  C   UNL     1       5.529   1.477   3.415  0.00  0.00    +0.002 C 
ATOM      9  C   UNL     1       6.084   2.864   3.792  0.00  0.00    +0.000 C 
ATOM     10  C   UNL     1       5.386   4.012   3.039  0.00  0.00    +0.000 C 
ATOM     11  C   UNL     1       5.147   3.688   1.589  0.00  0.00    +0.002 C 
ATOM     12  C   UNL     1       3.724   3.111   1.444  0.00  0.00    +0.022 C 
ENDBRANCH   4   6
ENDBRANCH   1   2
BRANCH   1  13
ATOM     13  N   UNL     1       0.626  -2.025   1.611  0.00  0.00    -0.300 N 
ATOM     14  C   UNL     1      -0.516  -2.576   2.066  0.00  0.00    +0.246 C 
ATOM     15  O   UNL     1      -1.519  -1.897   2.172  0.00  0.00    -0.270 OA
ATOM     16  H   UNL     1       1.426  -2.567   1.526  0.00  0.00    +0.150 HD
BRANCH  14  17
ATOM     17  C   UNL     1      -0.550  -4.007   2.434  0.00  0.00    +0.055 A 
ATOM     18  C   UNL     1       0.601  -4.789   2.319  0.00  0.00    +0.017 A 
ATOM     19  C   UNL     1       0.562  -6.123   2.665  0.00  0.00    +0.033 A 
ATOM     20  C   UNL     1      -0.614  -6.689   3.126  0.00  0.00    +0.128 A 
ATOM     21  C   UNL     1      -1.758  -5.921   3.243  0.00  0.00    +0.053 A 
ATOM     22  C   UNL     1      -1.733  -4.582   2.906  0.00  0.00    +0.055 A 
ATOM     23 CL   UNL     1      -3.168  -3.618   3.060  0.00  0.00    -0.083 Cl
BRANCH  20  24
ATOM     24  N   UNL     1      -0.647  -8.122   3.495  0.00  0.00    +0.056 N 
ATOM     25  O   UNL     1       0.352  -8.795   3.393  0.00  0.00    -0.126 OA
ATOM     26  O   UNL     1      -1.673  -8.619   3.898  0.00  0.00    -0.126 OA
ENDBRANCH  20  24
ENDBRANCH  14  17
ENDBRANCH   1  13
BRANCH   1  28
ATOM     27  C   UNL     1       1.006  -1.338  -1.118  0.00  0.00    +0.009 C 
ATOM     28  C   UNL     1       0.178  -0.440  -0.197  0.00  0.00    +0.012 C 
ATOM     29  C   UNL     1      -1.297  -0.835  -0.291  0.00  0.00    +0.009 C 
ENDBRANCH   1  28
TORSDOF 6
