REMARK  Name = ZINC03227092
REMARK  9 active torsions:
REMARK  status: ('A' for Active; 'I' for Inactive)
REMARK    1  A    between atoms: C_1  and  O_2
REMARK    2  A    between atoms: O_2  and  C_3
REMARK    3  A    between atoms: C_8  and  C_9
REMARK    4  A    between atoms: N_10  and  N_11
REMARK    5  A    between atoms: C_15  and  S_16
REMARK    6  A    between atoms: S_16  and  C_17
REMARK    7  A    between atoms: C_29  and  N_31
REMARK    8  A    between atoms: N_31  and  S_32
REMARK    9  A    between atoms: S_32  and  C_35
REMARK                            x       y       z     vdW  Elec       q    Type
REMARK                         _______ _______ _______ _____ _____    ______ ____
ROOT
ATOM      1  C   UNL     1       8.260   3.256  -0.058  0.00  0.00    +0.108 C 
ATOM      2  C   UNL     1       8.747   2.734  -1.387  0.00  0.00    -0.024 A 
ATOM      3  C   UNL     1       8.578   1.573  -2.079  0.00  0.00    +0.005 A 
ATOM      4  C   UNL     1       9.184   1.400  -3.325  0.00  0.00    +0.001 A 
ATOM      5  C   UNL     1       9.961   2.364  -3.900  0.00  0.00    +0.008 A 
ATOM      6  C   UNL     1      10.156   3.574  -3.213  0.00  0.00    -0.017 A 
ATOM      7  C   UNL     1       9.535   3.726  -1.960  0.00  0.00    -0.009 A 
ATOM      8  C   UNL     1       9.660   4.881  -1.195  0.00  0.00    -0.019 A 
ATOM      9  C   UNL     1      10.417   5.897  -1.692  0.00  0.00    +0.006 A 
ATOM     10  C   UNL     1      11.043   5.769  -2.934  0.00  0.00    +0.001 A 
ATOM     11  C   UNL     1      10.929   4.643  -3.696  0.00  0.00    +0.008 A 
ATOM     12  C   UNL     1       8.863   4.672   0.070  0.00  0.00    +0.125 C 
ENDROOT
BRANCH  12  13
ATOM     13  N   UNL     1       9.737   4.748   1.242  0.00  0.00    -0.181 NA
ATOM     14  H   UNL     1      10.267   3.979   1.503  0.00  0.00    +0.149 HD
BRANCH  13  15
ATOM     15  S   UNL     1       9.821   6.148   2.123  0.00  0.00    +0.059 S 
ATOM     16  O   UNL     1      10.720   5.900   3.195  0.00  0.00    -0.153 OA
ATOM     17  O   UNL     1      10.019   7.203   1.192  0.00  0.00    -0.153 OA
BRANCH  15  18
ATOM     18  C   UNL     1       8.235   6.405   2.845  0.00  0.00    +0.105 A 
ATOM     19  C   UNL     1       7.278   7.137   2.168  0.00  0.00    +0.028 A 
ATOM     20  C   UNL     1       6.032   7.335   2.733  0.00  0.00    +0.002 A 
ATOM     21  C   UNL     1       5.746   6.810   3.979  0.00  0.00    +0.000 A 
ATOM     22  C   UNL     1       6.705   6.082   4.658  0.00  0.00    +0.002 A 
ATOM     23  C   UNL     1       7.950   5.880   4.092  0.00  0.00    +0.028 A 
ENDBRANCH  15  18
ENDBRANCH  13  15
ENDBRANCH  12  13
BRANCH   1  24
ATOM     24  S   UNL     1       6.452   3.340  -0.041  0.00  0.00    -0.074 S 
BRANCH  24  29
ATOM     25  N   UNL     1       4.814   1.068  -0.036  0.00  0.00    -0.194 N 
ATOM     26  C   UNL     1       5.009  -0.288  -0.038  0.00  0.00    +0.249 A 
ATOM     27  N   UNL     1       6.296  -0.494  -0.056  0.00  0.00    -0.135 NA
ATOM     28  N   UNL     1       6.924   0.627  -0.057  0.00  0.00    -0.121 NA
ATOM     29  C   UNL     1       6.066   1.621  -0.045  0.00  0.00    +0.212 A 
BRANCH  25  31
ATOM     30  C   UNL     1       2.476   1.078  -0.015  0.00  0.00    +0.145 C 
ATOM     31  N   UNL     1       3.588   1.747  -0.022  0.00  0.00    -0.171 NA
BRANCH  30  37
ATOM     32  C   UNL     1       1.157   3.193   0.008  0.00  0.00    +0.129 A 
ATOM     33  C   UNL     1      -0.060   3.854   0.022  0.00  0.00    +0.046 A 
ATOM     34  C   UNL     1      -1.240   3.134   0.029  0.00  0.00    +0.004 A 
ATOM     35  C   UNL     1      -1.215   1.750   0.017  0.00  0.00    +0.001 A 
ATOM     36  C   UNL     1      -0.013   1.076   0.008  0.00  0.00    +0.013 A 
ATOM     37  C   UNL     1       1.187   1.792   0.000  0.00  0.00    +0.036 A 
BRANCH  32  39
ATOM     38  C   UNL     1       2.208   5.324   0.008  0.00  0.00    +0.277 C 
ATOM     39  O   UNL     1       2.317   3.900  -0.000  0.00  0.00    -0.494 OA
ENDBRANCH  32  39
ENDBRANCH  30  37
ENDBRANCH  25  31
ENDBRANCH  24  29
ENDBRANCH   1  24
TORSDOF 8
