REMARK  Name = ZINC13064639
REMARK  12 active torsions:
REMARK  status: ('A' for Active; 'I' for Inactive)
REMARK    1  A    between atoms: C_1  and  C_2
REMARK    2  A    between atoms: C_2  and  C_3
REMARK    3  A    between atoms: C_3  and  C_5
REMARK    4  A    between atoms: C_3  and  N_69
REMARK    5  A    between atoms: N_9  and  C_10
REMARK    6  A    between atoms: C_10  and  C_11
REMARK    7  A    between atoms: C_17  and  C_18
REMARK    8  A    between atoms: C_17  and  N_69
REMARK    9  A    between atoms: C_25  and  C_26
REMARK   10  A    between atoms: C_25  and  N_69
REMARK   11  A    between atoms: C_30  and  C_39
REMARK   12  A    between atoms: C_31  and  C_38
REMARK                            x       y       z     vdW  Elec       q    Type
REMARK                         _______ _______ _______ _____ _____    ______ ____
ROOT
ATOM      1  N   UNL     1      -0.016   0.135   0.404  0.00  0.00    +0.392 N 
ATOM      2  H   UNL     1       0.680  -0.344   0.987  0.00  0.00    -0.080 HD
ENDROOT
BRANCH   1   3
ATOM      3  C   UNL     1      -1.359  -0.084   0.981  0.00  0.00    +0.003 C 
BRANCH   3   4
ATOM      4  C   UNL     1      -1.471   0.682   2.273  0.00  0.00    +0.138 A 
ATOM      5  N   UNL     1      -0.572   0.748   3.225  0.00  0.00    -0.115 NA
ATOM      6  N   UNL     1      -1.038   1.501   4.161  0.00  0.00    -0.023 NA
ATOM      7  N   UNL     1      -2.214   1.910   3.835  0.00  0.00    -0.044 NA
ATOM      8  N   UNL     1      -2.517   1.427   2.678  0.00  0.00    -0.226 N 
BRANCH   8   9
ATOM      9  C   UNL     1      -3.765   1.647   1.943  0.00  0.00    +0.182 C 
BRANCH   9  10
ATOM     10  C   UNL     1      -4.763   0.581   2.317  0.00  0.00    -0.026 A 
ATOM     11  C   UNL     1      -4.821  -0.596   1.594  0.00  0.00    +0.005 A 
ATOM     12  C   UNL     1      -5.733  -1.575   1.941  0.00  0.00    +0.000 A 
ATOM     13  C   UNL     1      -6.594  -1.373   3.003  0.00  0.00    +0.000 A 
ATOM     14  C   UNL     1      -6.540  -0.194   3.722  0.00  0.00    +0.000 A 
ATOM     15  C   UNL     1      -5.624   0.783   3.379  0.00  0.00    +0.005 A 
ENDBRANCH   9  10
ENDBRANCH   8   9
ENDBRANCH   3   4
BRANCH   3  17
ATOM     16  C   UNL     1      -0.518  -2.031   2.302  0.00  0.00    +0.002 C 
ATOM     17  C   UNL     1      -1.539  -1.579   1.257  0.00  0.00    -0.011 C 
ENDBRANCH   3  17
ENDBRANCH   1   3
BRANCH   1  18
ATOM     18  C   UNL     1       0.293   1.580   0.377  0.00  0.00    -0.042 C 
BRANCH  18  19
ATOM     19  C   UNL     1       1.782   1.753   0.221  0.00  0.00    -0.064 A 
ATOM     20  C   UNL     1       2.604   1.687   1.331  0.00  0.00    +0.004 A 
ATOM     21  C   UNL     1       3.970   1.840   1.188  0.00  0.00    +0.038 A 
ATOM     22  C   UNL     1       4.514   2.071  -0.064  0.00  0.00    +0.123 A 
ATOM     23  C   UNL     1       3.689   2.142  -1.173  0.00  0.00    +0.038 A 
ATOM     24  C   UNL     1       2.323   1.983  -1.030  0.00  0.00    +0.004 A 
ATOM     25  F   UNL     1       5.849   2.226  -0.203  0.00  0.00    -0.205 F 
ENDBRANCH  18  19
ENDBRANCH   1  18
BRANCH   1  26
ATOM     26  C   UNL     1       0.042  -0.419  -0.966  0.00  0.00    -0.036 C 
BRANCH  26  27
ATOM     27  C   UNL     1      -1.024   0.200  -1.832  0.00  0.00    +0.001 A 
ATOM     28  C   UNL     1      -0.734   1.288  -2.587  0.00  0.00    +0.017 A 
ATOM     29  C   UNL     1      -1.790   1.864  -3.421  0.00  0.00    -0.001 A 
ATOM     30  C   UNL     1      -1.549   2.982  -4.225  0.00  0.00    +0.013 A 
ATOM     31  C   UNL     1      -2.558   3.498  -4.988  0.00  0.00    -0.047 A 
ATOM     32  C   UNL     1      -3.821   2.922  -4.973  0.00  0.00    -0.046 A 
ATOM     33  C   UNL     1      -4.081   1.819  -4.188  0.00  0.00    +0.030 A 
ATOM     34  C   UNL     1      -3.069   1.276  -3.403  0.00  0.00    +0.049 A 
ATOM     35  N   UNL     1      -3.302   0.173  -2.609  0.00  0.00    -0.322 N 
ATOM     36  H   UNL     1      -4.184  -0.230  -2.598  0.00  0.00    +0.169 HD
ATOM     37  C   UNL     1      -2.324  -0.351  -1.850  0.00  0.00    +0.251 A 
ATOM     38  O   UNL     1      -2.565  -1.327  -1.161  0.00  0.00    -0.268 OA
ATOM     39  C   UNL     1      -4.918   3.508  -5.822  0.00  0.00    +0.044 C 
ATOM     40  C   UNL     1      -2.297   4.704  -5.854  0.00  0.00    +0.044 C 
ENDBRANCH  26  27
ENDBRANCH   1  26
TORSDOF 9
