REMARK  Name = ZINC30836216
REMARK  1 active torsions:
REMARK  status: ('A' for Active; 'I' for Inactive)
REMARK    1  A    between atoms: C_4  and  N_7
REMARK                            x       y       z     vdW  Elec       q    Type
REMARK                         _______ _______ _______ _____ _____    ______ ____
ROOT
ATOM      1  N   UNL     1       3.584   2.123  -0.020  0.00  0.00    -0.231 N 
ATOM      2  C   UNL     1       4.669   1.873   0.740  0.00  0.00    +0.179 A 
ATOM      3  S   UNL     1       4.818   0.615   1.892  0.00  0.00    -0.011 S 
ATOM      4  N   UNL     1       5.617   2.779   0.436  0.00  0.00    -0.313 N 
ATOM      5  H   UNL     1       6.593   2.745   0.943  0.00  0.00    +0.170 HD
ATOM      6  C   UNL     1       5.145   3.614  -0.507  0.00  0.00    +0.172 A 
ATOM      7  S   UNL     1       5.996   4.929  -1.199  0.00  0.00    -0.012 S 
ATOM      8  N   UNL     1       3.886   3.239  -0.815  0.00  0.00    -0.270 N 
ATOM      9  H   UNL     1       3.138   3.632  -1.520  0.00  0.00    +0.189 HD
ENDROOT
BRANCH   1  13
ATOM     10  C   UNL     1       0.002  -0.004   0.002  0.00  0.00    +0.000 A 
ATOM     11  C   UNL     1      -0.017   1.379   0.010  0.00  0.00    +0.002 A 
ATOM     12  C   UNL     1       1.169   2.087   0.002  0.00  0.00    +0.028 A 
ATOM     13  C   UNL     1       2.381   1.409  -0.013  0.00  0.00    +0.066 A 
ATOM     14  C   UNL     1       2.396   0.020  -0.020  0.00  0.00    +0.028 A 
ATOM     15  C   UNL     1       1.207  -0.682  -0.013  0.00  0.00    +0.002 A 
ENDBRANCH   1  13
TORSDOF 1
