REMARK  Name = ZINC23506217
REMARK  7 active torsions:
REMARK  status: ('A' for Active; 'I' for Inactive)
REMARK    1  A    between atoms: C_1  and  C_2
REMARK    2  A    between atoms: C_2  and  C_3
REMARK    3  A    between atoms: C_2  and  C_4
REMARK    4  A    between atoms: C_2  and  C_5
REMARK    5  A    between atoms: C_9  and  C_15
REMARK    6  A    between atoms: C_15  and  C_16
REMARK    7  A    between atoms: C_16  and  N_17
REMARK                            x       y       z     vdW  Elec       q    Type
REMARK                         _______ _______ _______ _____ _____    ______ ____
ROOT
ATOM      1  C   UNL     1       0.707  -0.490  -1.238  0.00  0.00    +0.071 A 
ATOM      2  C   UNL     1       2.087  -0.470  -1.451  0.00  0.00    +0.072 A 
ATOM      3  C   UNL     1       2.327  -0.993  -2.686  0.00  0.00    +0.138 A 
ATOM      4  N   UNL     1       3.493  -1.209  -3.396  0.00  0.00    -0.343 N 
ATOM      5  C   UNL     1       3.444  -1.760  -4.640  0.00  0.00    +0.024 A 
ATOM      6  C   UNL     1       2.251  -2.097  -5.183  0.00  0.00    +0.093 A 
ATOM      7  C   UNL     1       1.063  -1.876  -4.458  0.00  0.00    +0.275 A 
ATOM      8  O   UNL     1      -0.013  -2.177  -4.943  0.00  0.00    -0.266 OA
ATOM      9  N   UNL     1       1.120  -1.331  -3.228  0.00  0.00    -0.180 N 
ATOM     10  N   UNL     1       0.129  -1.007  -2.293  0.00  0.00    -0.166 NA
ATOM     11  H   UNL     1       4.348  -0.968  -3.007  0.00  0.00    +0.167 HD
ENDROOT
BRANCH   1  13
ATOM     12  C   UNL     1      -0.019   1.526   0.010  0.00  0.00    +0.017 C 
ATOM     13  C   UNL     1       0.002  -0.004   0.002  0.00  0.00    +0.006 C 
ATOM     14  C   UNL     1       0.742  -0.511   1.242  0.00  0.00    +0.017 C 
ATOM     15  C   UNL     1      -1.433  -0.534   0.013  0.00  0.00    +0.017 C 
ENDBRANCH   1  13
BRANCH   5  16
ATOM     16  C   UNL     1       4.716  -1.994  -5.412  0.00  0.00    +0.075 C 
BRANCH  16  17
ATOM     17  C   UNL     1       5.105  -0.714  -6.155  0.00  0.00    +0.133 C 
BRANCH  17  18
ATOM     18  N   UNL     1       6.343  -0.942  -6.905  0.00  0.00    -0.292 N 
ATOM     19  C   UNL     1       7.635  -0.739  -6.427  0.00  0.00    +0.070 A 
ATOM     20  C   UNL     1       8.143  -0.301  -5.213  0.00  0.00    +0.028 A 
ATOM     21  C   UNL     1       9.509  -0.200  -5.036  0.00  0.00    +0.002 A 
ATOM     22  C   UNL     1      10.373  -0.535  -6.064  0.00  0.00    +0.002 A 
ATOM     23  C   UNL     1       9.877  -0.972  -7.277  0.00  0.00    +0.028 A 
ATOM     24  C   UNL     1       8.507  -1.076  -7.464  0.00  0.00    +0.067 A 
ATOM     25  N   UNL     1       7.717  -1.474  -8.540  0.00  0.00    -0.306 N 
ATOM     26  H   UNL     1       8.043  -1.767  -9.406  0.00  0.00    +0.170 HD
ATOM     27  C   UNL     1       6.425  -1.388  -8.173  0.00  0.00    +0.328 A 
ATOM     28  O   UNL     1       5.475  -1.668  -8.880  0.00  0.00    -0.247 OA
ENDBRANCH  17  18
ENDBRANCH  16  17
ENDBRANCH   5  16
TORSDOF 4
