REMARK  Name = ZINC01185870
REMARK  6 active torsions:
REMARK  status: ('A' for Active; 'I' for Inactive)
REMARK    1  A    between atoms: C_1  and  C_2
REMARK    2  A    between atoms: C_2  and  O_3
REMARK    3  A    between atoms: O_3  and  C_4
REMARK    4  A    between atoms: C_6  and  C_12
REMARK    5  A    between atoms: C_9  and  O_10
REMARK    6  A    between atoms: N_19  and  C_22
REMARK                            x       y       z     vdW  Elec       q    Type
REMARK                         _______ _______ _______ _____ _____    ______ ____
ROOT
ATOM      1  C   UNL     1       1.179   3.552   0.010  0.00  0.00    +0.026 C 
ATOM      2  C   UNL     1       2.366   4.253   0.107  0.00  0.00    +0.100 C 
ATOM      3  C   UNL     1       3.671   3.563   0.094  0.00  0.00    +0.255 C 
ATOM      4  O   UNL     1       3.738   2.352  -0.003  0.00  0.00    -0.270 OA
ATOM      5  N   UNL     1       4.789   4.312   0.193  0.00  0.00    -0.263 N 
ATOM      6  C   UNL     1       4.730   5.647   0.300  0.00  0.00    +0.151 C 
ATOM      7  S   UNL     1       6.201   6.515   0.420  0.00  0.00    -0.018 S 
ATOM      8  N   UNL     1       3.583   6.339   0.318  0.00  0.00    -0.216 N 
ATOM      9  C   UNL     1       2.386   5.724   0.222  0.00  0.00    +0.262 C 
ATOM     10  O   UNL     1       1.351   6.364   0.235  0.00  0.00    -0.269 OA
ATOM     11  H   UNL     1       5.654   3.875   0.185  0.00  0.00    +0.157 HD
ENDROOT
BRANCH   8  12
ATOM     12  C   UNL     1       3.627   7.735   0.433  0.00  0.00    +0.063 A 
ATOM     13  C   UNL     1       3.695   8.525  -0.706  0.00  0.00    +0.025 A 
ATOM     14  C   UNL     1       3.734   9.901  -0.591  0.00  0.00    +0.003 A 
ATOM     15  C   UNL     1       3.716  10.493   0.659  0.00  0.00    +0.021 A 
ATOM     16  C   UNL     1       3.654   9.709   1.798  0.00  0.00    +0.061 A 
ATOM     17  C   UNL     1       3.609   8.331   1.688  0.00  0.00    +0.081 A 
ATOM     18 CL   UNL     1       3.531   7.347   3.116  0.00  0.00    -0.080 Cl
ATOM     19 CL   UNL     1       3.631  10.456   3.365  0.00  0.00    -0.082 Cl
ENDBRANCH   8  12
BRANCH   1  22
ATOM     20  C   UNL     1       0.455  -0.054  -0.698  0.00  0.00    +0.164 A 
ATOM     21  C   UNL     1       0.450   1.321  -0.802  0.00  0.00    +0.057 A 
ATOM     22  C   UNL     1       1.180   2.093   0.114  0.00  0.00    -0.019 A 
ATOM     23  C   UNL     1       1.910   1.460   1.132  0.00  0.00    +0.031 A 
ATOM     24  C   UNL     1       1.908   0.087   1.227  0.00  0.00    +0.087 A 
ATOM     25  C   UNL     1       1.184  -0.676   0.316  0.00  0.00    +0.177 A 
ATOM     26 CL   UNL     1       2.812  -0.695   2.485  0.00  0.00    -0.080 Cl
BRANCH  25  27
ATOM     27  O   UNL     1       1.186  -2.030   0.415  0.00  0.00    -0.502 OA
ATOM     28  H   UNL     1       1.892  -2.459  -0.086  0.00  0.00    +0.292 HD
ENDBRANCH  25  27
BRANCH  20  29
ATOM     29  O   UNL     1      -0.252  -0.805  -1.585  0.00  0.00    -0.489 OA
BRANCH  29  31
ATOM     30  C   UNL     1      -1.704  -1.107  -3.493  0.00  0.00    +0.048 C 
ATOM     31  C   UNL     1      -0.976  -0.103  -2.597  0.00  0.00    +0.226 C 
ENDBRANCH  29  31
ENDBRANCH  20  29
ENDBRANCH   1  22
TORSDOF 5
