REMARK  Name = ZINC20754220
REMARK  4 active torsions:
REMARK  status: ('A' for Active; 'I' for Inactive)
REMARK    1  A    between atoms: C_1  and  O_2
REMARK    2  A    between atoms: O_2  and  C_3
REMARK    3  A    between atoms: C_6  and  N_26
REMARK    4  A    between atoms: C_10  and  C_19
REMARK                            x       y       z     vdW  Elec       q    Type
REMARK                         _______ _______ _______ _____ _____    ______ ____
ROOT
ATOM      1  C   UNL     1       2.019  -1.371  -1.252  0.00  0.00    +0.141 A 
ATOM      2  C   UNL     1       3.227  -1.602  -1.880  0.00  0.00    +0.050 A 
ATOM      3  C   UNL     1       4.006  -0.540  -2.301  0.00  0.00    +0.037 A 
ATOM      4  C   UNL     1       3.567   0.754  -2.097  0.00  0.00    +0.132 A 
ATOM      5  C   UNL     1       2.357   0.995  -1.477  0.00  0.00    +0.014 A 
ATOM      6  C   UNL     1       1.565  -0.065  -1.034  0.00  0.00    +0.076 A 
ATOM      7  N   UNL     1       0.342   0.093  -0.379  0.00  0.00    -0.334 N 
ATOM      8  C   UNL     1      -0.166   1.468  -0.249  0.00  0.00    +0.105 C 
ATOM      9  C   UNL     1       1.025   2.355   0.048  0.00  0.00    +0.029 C 
ATOM     10  C   UNL     1       1.846   2.369  -1.279  0.00  0.00    +0.051 C 
ATOM     11  C   UNL     1       2.744   3.534  -1.084  0.00  0.00    -0.023 C 
ATOM     12  C   UNL     1       2.136   4.409  -0.290  0.00  0.00    -0.030 C 
ATOM     13  C   UNL     1       0.773   3.861   0.141  0.00  0.00    +0.033 C 
ATOM     14  H   UNL     1      -0.236  -0.748   0.032  0.00  0.00    +0.147 HD
ENDROOT
BRANCH   8  15
ATOM     15  C   UNL     1      -0.819   1.898  -1.537  0.00  0.00    -0.027 A 
ATOM     16  C   UNL     1      -1.783   2.889  -1.526  0.00  0.00    +0.008 A 
ATOM     17  C   UNL     1      -2.379   3.288  -2.707  0.00  0.00    +0.038 A 
ATOM     18  C   UNL     1      -2.018   2.687  -3.901  0.00  0.00    +0.123 A 
ATOM     19  C   UNL     1      -1.057   1.691  -3.911  0.00  0.00    +0.038 A 
ATOM     20  C   UNL     1      -0.458   1.298  -2.729  0.00  0.00    +0.008 A 
ATOM     21  F   UNL     1      -2.604   3.073  -5.056  0.00  0.00    -0.205 F 
ENDBRANCH   8  15
BRANCH   4  22
ATOM     22  N   UNL     1       4.400   1.892  -2.546  0.00  0.00    +0.057 N 
ATOM     23  O   UNL     1       3.908   2.778  -3.221  0.00  0.00    -0.126 OA
ATOM     24  O   UNL     1       5.578   1.942  -2.240  0.00  0.00    -0.126 OA
ENDBRANCH   4  22
BRANCH   1  26
ATOM     25  C   UNL     1       1.780  -3.732  -1.092  0.00  0.00    +0.277 C 
ATOM     26  O   UNL     1       1.263  -2.424  -0.841  0.00  0.00    -0.493 OA
ENDBRANCH   1  26
TORSDOF 3
