REMARK  Name = ZINC20706350
REMARK  8 active torsions:
REMARK  status: ('A' for Active; 'I' for Inactive)
REMARK    1  A    between atoms: C_1  and  C_2
REMARK    2  A    between atoms: C_2  and  C_3
REMARK    3  A    between atoms: C_3  and  C_5
REMARK    4  A    between atoms: C_3  and  N_6
REMARK    5  A    between atoms: N_6  and  S_7
REMARK    6  A    between atoms: S_7  and  C_10
REMARK    7  A    between atoms: C_23  and  C_26
REMARK    8  A    between atoms: C_28  and  N_33
REMARK                            x       y       z     vdW  Elec       q    Type
REMARK                         _______ _______ _______ _____ _____    ______ ____
ROOT
ATOM      1  C   UNL     1       2.831  -1.513  -0.533  0.00  0.00    +0.106 A 
ATOM      2  C   UNL     1       3.749  -0.802   0.220  0.00  0.00    +0.030 A 
ATOM      3  C   UNL     1       4.786  -0.144  -0.410  0.00  0.00    +0.025 A 
ATOM      4  C   UNL     1       4.907  -0.199  -1.793  0.00  0.00    +0.031 A 
ATOM      5  C   UNL     1       3.991  -0.912  -2.551  0.00  0.00    -0.018 A 
ATOM      6  C   UNL     1       2.954  -1.572  -1.906  0.00  0.00    +0.034 A 
ATOM      7  C   UNL     1       4.093  -1.014  -4.027  0.00  0.00    +0.049 C 
ATOM      8  C   UNL     1       3.040  -0.150  -4.679  0.00  0.00    -0.023 C 
ATOM      9  C   UNL     1       3.511   0.388  -5.778  0.00  0.00    -0.030 C 
ATOM     10  C   UNL     1       4.965  -0.053  -6.018  0.00  0.00    +0.033 C 
ATOM     11  C   UNL     1       5.424  -0.484  -4.594  0.00  0.00    +0.029 C 
ATOM     12  C   UNL     1       5.844   0.784  -3.846  0.00  0.00    +0.106 C 
ATOM     13  N   UNL     1       5.962   0.475  -2.417  0.00  0.00    -0.336 N 
ATOM     14  H   UNL     1       6.865   0.773  -1.863  0.00  0.00    +0.147 HD
ENDROOT
BRANCH  12  15
ATOM     15  C   UNL     1       4.804   1.856  -4.046  0.00  0.00    -0.007 A 
ATOM     16  C   UNL     1       3.668   1.873  -3.258  0.00  0.00    +0.039 A 
ATOM     17  C   UNL     1       2.714   2.856  -3.441  0.00  0.00    +0.127 A 
ATOM     18  C   UNL     1       2.895   3.824  -4.412  0.00  0.00    +0.034 A 
ATOM     19  C   UNL     1       4.030   3.808  -5.200  0.00  0.00    +0.022 A 
ATOM     20  C   UNL     1       4.988   2.826  -5.014  0.00  0.00    +0.046 A 
ATOM     21 CL   UNL     1       6.417   2.809  -6.000  0.00  0.00    -0.083 Cl
BRANCH  17  22
ATOM     22  N   UNL     1       1.499   2.874  -2.597  0.00  0.00    +0.056 N 
ATOM     23  O   UNL     1       1.299   1.976  -1.798  0.00  0.00    -0.126 OA
ATOM     24  O   UNL     1       0.698   3.786  -2.701  0.00  0.00    -0.126 OA
ENDBRANCH  17  22
ENDBRANCH  12  15
BRANCH   1  25
ATOM     25  S   UNL     1       1.505  -2.354   0.266  0.00  0.00    +0.059 S 
ATOM     26  O   UNL     1       2.059  -2.995   1.407  0.00  0.00    -0.153 OA
ATOM     27  O   UNL     1       0.808  -3.067  -0.746  0.00  0.00    -0.153 OA
BRANCH  25  28
ATOM     28  N   UNL     1       0.463  -1.197   0.833  0.00  0.00    -0.187 NA
ATOM     29  H   UNL     1       0.379  -1.035   1.917  0.00  0.00    +0.148 HD
BRANCH  28  30
ATOM     30  C   UNL     1      -0.167  -0.260  -0.100  0.00  0.00    +0.073 C 
ATOM     31  C   UNL     1      -1.526  -0.811  -0.536  0.00  0.00    +0.025 C 
BRANCH  30  33
ATOM     32  C   UNL     1       0.995   1.638   1.037  0.00  0.00    +0.005 C 
ATOM     33  C   UNL     1      -0.363   1.092   0.591  0.00  0.00    +0.017 C 
ENDBRANCH  30  33
ENDBRANCH  28  30
ENDBRANCH  25  28
ENDBRANCH   1  25
TORSDOF 6
