REMARK  Name = ZINC25692283
REMARK  6 active torsions:
REMARK  status: ('A' for Active; 'I' for Inactive)
REMARK    1  A    between atoms: C_6  and  N_7
REMARK    2  A    between atoms: N_7  and  C_8
REMARK    3  A    between atoms: C_8  and  C_10
REMARK    4  A    between atoms: C_8  and  N_14
REMARK    5  A    between atoms: C_15  and  O_17
REMARK    6  A    between atoms: O_17  and  C_18
REMARK                            x       y       z     vdW  Elec       q    Type
REMARK                         _______ _______ _______ _____ _____    ______ ____
ROOT
ATOM      1  C   UNL     1      -0.099   0.313  -0.374  0.00  0.00    +0.213 C 
ENDROOT
BRANCH   1   2
ATOM      2  C   UNL     1      -0.144   1.840  -0.287  0.00  0.00    +0.225 C 
ATOM      3 CL   UNL     1       1.498   2.509  -0.614  0.00  0.00    -0.080 Cl
ATOM      4 CL   UNL     1      -1.306   2.478  -1.509  0.00  0.00    -0.080 Cl
ATOM      5 CL   UNL     1      -0.676   2.333   1.363  0.00  0.00    -0.080 Cl
ENDBRANCH   1   2
BRANCH   1   6
ATOM      6  N   UNL     1      -1.434  -0.230  -0.109  0.00  0.00    -0.259 N 
ATOM      7  C   UNL     1      -1.933  -1.205  -0.895  0.00  0.00    +0.407 C 
ATOM      8  O   UNL     1      -1.276  -1.633  -1.823  0.00  0.00    -0.226 OA
ATOM      9  H   UNL     1      -2.028   0.157   0.732  0.00  0.00    +0.154 HD
BRANCH   7  10
ATOM     10  O   UNL     1      -3.159  -1.705  -0.651  0.00  0.00    -0.412 OA
BRANCH  10  11
ATOM     11  C   UNL     1      -3.559  -2.758  -1.411  0.00  0.00    +0.133 A 
ATOM     12  C   UNL     1      -3.062  -4.028  -1.155  0.00  0.00    +0.047 A 
ATOM     13  C   UNL     1      -3.474  -5.098  -1.925  0.00  0.00    +0.019 A 
ATOM     14  C   UNL     1      -4.372  -4.903  -2.959  0.00  0.00    +0.018 A 
ATOM     15  C   UNL     1      -4.865  -3.636  -3.220  0.00  0.00    +0.019 A 
ATOM     16  C   UNL     1      -4.460  -2.564  -2.448  0.00  0.00    +0.047 A 
ATOM     17 BR   UNL     1      -4.928  -6.368  -4.017  0.00  0.00    -0.050 Br
ENDBRANCH  10  11
ENDBRANCH   7  10
ENDBRANCH   1   6
BRANCH   1  18
ATOM     18  N   UNL     1       0.845  -0.205   0.618  0.00  0.00    -0.323 N 
ATOM     19  H   UNL     1       0.849   0.203   1.640  0.00  0.00    +0.148 HD
BRANCH  18  25
ATOM     20  C   UNL     1       2.554  -1.794   1.236  0.00  0.00    +0.024 A 
ATOM     21  C   UNL     1       3.434  -2.800   0.888  0.00  0.00    +0.022 A 
ATOM     22  C   UNL     1       3.517  -3.224  -0.427  0.00  0.00    +0.041 A 
ATOM     23  C   UNL     1       2.714  -2.647  -1.395  0.00  0.00    +0.022 A 
ATOM     24  C   UNL     1       1.827  -1.646  -1.051  0.00  0.00    +0.024 A 
ATOM     25  C   UNL     1       1.742  -1.218   0.268  0.00  0.00    +0.029 A 
ATOM     26 CL   UNL     1       4.631  -4.482  -0.862  0.00  0.00    -0.084 Cl
ENDBRANCH  18  25
ENDBRANCH   1  18
TORSDOF 6
