REMARK  Name = ZINC64538238
REMARK  8 active torsions:
REMARK  status: ('A' for Active; 'I' for Inactive)
REMARK    1  A    between atoms: C_1  and  O_2
REMARK    2  A    between atoms: O_2  and  C_3
REMARK    3  A    between atoms: C_9  and  C_12
REMARK    4  A    between atoms: C_12  and  C_13
REMARK    5  A    between atoms: C_13  and  N_14
REMARK    6  A    between atoms: C_15  and  C_17
REMARK    7  A    between atoms: C_17  and  N_18
REMARK    8  A    between atoms: C_22  and  C_29
REMARK                            x       y       z     vdW  Elec       q    Type
REMARK                         _______ _______ _______ _____ _____    ______ ____
ROOT
ATOM      1  C   UNL     1       2.187  -8.518  -1.720  0.00  0.00    +0.205 C 
ENDROOT
BRANCH   1   2
ATOM      2  N   UNL     1       3.276  -8.953  -2.598  0.00  0.00    -0.272 N 
ATOM      3  C   UNL     1       3.462  -8.430  -3.955  0.00  0.00    +0.190 C 
ATOM      4  C   UNL     1       2.867  -7.067  -4.185  0.00  0.00    +0.037 C 
ATOM      5  C   UNL     1       3.839  -6.346  -4.772  0.00  0.00    +0.048 C 
ATOM      6  N   UNL     1       4.986  -7.141  -4.951  0.00  0.00    -0.275 N 
ATOM      7  N   UNL     1       4.926  -8.145  -4.038  0.00  0.00    -0.204 NA
ATOM      8  C   UNL     1       5.643  -9.385  -4.244  0.00  0.00    +0.117 C 
ATOM      9  C   UNL     1       5.221 -10.408  -3.188  0.00  0.00    +0.113 C 
ATOM     10  C   UNL     1       4.207  -9.872  -2.221  0.00  0.00    +0.219 C 
ATOM     11  O   UNL     1       4.213 -10.271  -1.075  0.00  0.00    -0.275 OA
ATOM     12  H   UNL     1       5.687  -7.005  -5.608  0.00  0.00    +0.167 HD
BRANCH   5  13
ATOM     13  C   UNL     1       3.720  -4.925  -5.172  0.00  0.00    -0.002 A 
ATOM     14  C   UNL     1       2.533  -4.230  -4.941  0.00  0.00    +0.010 A 
ATOM     15  C   UNL     1       2.427  -2.906  -5.316  0.00  0.00    +0.002 A 
ATOM     16  C   UNL     1       3.495  -2.267  -5.919  0.00  0.00    +0.020 A 
ATOM     17  C   UNL     1       4.676  -2.951  -6.151  0.00  0.00    +0.042 A 
ATOM     18  C   UNL     1       4.795  -4.275  -5.776  0.00  0.00    +0.029 A 
ATOM     19 CL   UNL     1       6.011  -2.142  -6.910  0.00  0.00    -0.084 Cl
ENDBRANCH   5  13
ENDBRANCH   1   2
BRANCH   1  21
ATOM     20  N   UNL     1       1.793  -6.755  -0.031  0.00  0.00    -0.314 N 
ATOM     21  C   UNL     1       2.636  -7.328  -0.912  0.00  0.00    +0.230 C 
ATOM     22  O   UNL     1       3.756  -6.886  -1.055  0.00  0.00    -0.274 OA
ATOM     23  H   UNL     1       0.897  -7.108   0.083  0.00  0.00    +0.149 HD
BRANCH  20  24
ATOM     24  C   UNL     1       2.230  -5.598   0.754  0.00  0.00    +0.108 C 
BRANCH  24  25
ATOM     25  C   UNL     1       1.092  -5.144   1.671  0.00  0.00    +0.052 C 
BRANCH  25  32
ATOM     26  C   UNL     1       0.626  -0.619   1.042  0.00  0.00    +0.121 A 
ATOM     27  C   UNL     1       1.202   0.173   2.051  0.00  0.00    +0.047 A 
ATOM     28  C   UNL     1       1.839  -0.358   3.116  0.00  0.00    +0.029 A 
ATOM     29  C   UNL     1       1.947  -1.815   3.248  0.00  0.00    +0.043 A 
ATOM     30  N   UNL     1       2.500  -2.573   4.161  0.00  0.00    -0.380 N 
ATOM     31  C   UNL     1       2.308  -3.978   3.782  0.00  0.00    +0.144 C 
ATOM     32  C   UNL     1       1.541  -3.954   2.479  0.00  0.00    -0.040 C 
ATOM     33  C   UNL     1       1.340  -2.650   2.185  0.00  0.00    +0.002 A 
ATOM     34  C   UNL     1       0.667  -1.972   1.072  0.00  0.00    +0.055 A 
ATOM     35  H   UNL     1       2.961  -2.259   4.955  0.00  0.00    +0.160 HD
BRANCH  26  37
ATOM     36  C   UNL     1      -0.017   1.425   0.010  0.00  0.00    +0.277 C 
ATOM     37  O   UNL     1       0.002  -0.004   0.002  0.00  0.00    -0.495 OA
ENDBRANCH  26  37
ENDBRANCH  25  32
ENDBRANCH  24  25
ENDBRANCH  20  24
ENDBRANCH   1  21
TORSDOF 7
