REMARK  Name = ZINC17960809
REMARK  9 active torsions:
REMARK  status: ('A' for Active; 'I' for Inactive)
REMARK    1  A    between atoms: C_1  and  C_2
REMARK    2  A    between atoms: C_4  and  C_26
REMARK    3  A    between atoms: C_5  and  N_9
REMARK    4  A    between atoms: C_6  and  C_8
REMARK    5  A    between atoms: C_10  and  C_12
REMARK    6  A    between atoms: C_12  and  N_13
REMARK    7  A    between atoms: C_14  and  C_16
REMARK    8  A    between atoms: C_20  and  N_23
REMARK    9  A    between atoms: C_21  and  C_22
REMARK                            x       y       z     vdW  Elec       q    Type
REMARK                         _______ _______ _______ _____ _____    ______ ____
ROOT
ATOM      1  C   UNL     1       0.752   6.209   1.056  0.00  0.00    +0.200 C 
ENDROOT
BRANCH   1   3
ATOM      2  N   UNL     1      -0.821   8.082   0.688  0.00  0.00    -0.284 N 
ATOM      3  C   UNL     1      -0.572   6.895   1.275  0.00  0.00    +0.234 C 
ATOM      4  O   UNL     1      -1.414   6.379   1.980  0.00  0.00    -0.274 OA
ATOM      5  H   UNL     1      -0.124   8.529   0.182  0.00  0.00    +0.155 HD
BRANCH   2  10
ATOM      6  C   UNL     1      -5.947  10.466   1.169  0.00  0.00    +0.044 C 
ATOM      7  C   UNL     1      -4.585   9.833   1.041  0.00  0.00    -0.050 A 
ATOM      8  C   UNL     1      -3.453  10.564   1.351  0.00  0.00    +0.008 A 
ATOM      9  C   UNL     1      -2.203   9.986   1.234  0.00  0.00    -0.029 A 
ATOM     10  C   UNL     1      -2.086   8.670   0.807  0.00  0.00    +0.039 A 
ATOM     11  C   UNL     1      -3.225   7.941   0.492  0.00  0.00    -0.029 A 
ATOM     12  C   UNL     1      -4.471   8.523   0.615  0.00  0.00    +0.008 A 
ATOM     13  C   UNL     1      -3.101   6.514   0.022  0.00  0.00    +0.045 C 
ATOM     14  C   UNL     1      -0.970  10.783   1.572  0.00  0.00    +0.045 C 
ENDBRANCH   2  10
ENDBRANCH   1   3
BRANCH   1  15
ATOM     15  N   UNL     1       0.775   4.945   1.796  0.00  0.00    -0.303 N 
ATOM     16  C   UNL     1       1.867   4.157   1.749  0.00  0.00    +0.245 C 
ATOM     17  O   UNL     1       2.832   4.494   1.092  0.00  0.00    -0.270 OA
ATOM     18  H   UNL     1       0.005   4.676   2.321  0.00  0.00    +0.150 HD
BRANCH  16  19
ATOM     19  C   UNL     1       1.890   2.881   2.495  0.00  0.00    +0.042 A 
ATOM     20  C   UNL     1       0.741   2.427   3.144  0.00  0.00    +0.013 A 
ATOM     21  C   UNL     1       0.770   1.236   3.840  0.00  0.00    +0.003 A 
ATOM     22  C   UNL     1       1.935   0.491   3.895  0.00  0.00    +0.033 A 
ATOM     23  C   UNL     1       3.077   0.935   3.254  0.00  0.00    +0.130 A 
ATOM     24  C   UNL     1       3.062   2.125   2.555  0.00  0.00    -0.008 A 
ATOM     25  C   UNL     1       4.308   2.608   1.858  0.00  0.00    +0.047 C 
BRANCH  23  26
ATOM     26  N   UNL     1       4.319   0.133   3.318  0.00  0.00    +0.057 N 
ATOM     27  O   UNL     1       4.375  -0.847   4.040  0.00  0.00    -0.126 OA
ATOM     28  O   UNL     1       5.286   0.451   2.649  0.00  0.00    -0.126 OA
ENDBRANCH  23  26
ENDBRANCH  16  19
ENDBRANCH   1  15
TORSDOF 5
