REMARK  Name = ZINC15980789
REMARK  11 active torsions:
REMARK  status: ('A' for Active; 'I' for Inactive)
REMARK    1  A    between atoms: C_1  and  C_2
REMARK    2  A    between atoms: C_5  and  C_30
REMARK    3  A    between atoms: C_7  and  S_8
REMARK    4  A    between atoms: S_8  and  N_11
REMARK    5  A    between atoms: N_11  and  C_12
REMARK    6  A    between atoms: C_14  and  S_19
REMARK    7  A    between atoms: S_19  and  N_22
REMARK    8  A    between atoms: N_22  and  C_23
REMARK    9  A    between atoms: C_30  and  C_31
REMARK   10  A    between atoms: C_30  and  C_32
REMARK   11  A    between atoms: C_30  and  C_33
REMARK                            x       y       z     vdW  Elec       q    Type
REMARK                         _______ _______ _______ _____ _____    ______ ____
ROOT
ATOM      1  C   UNL     1       2.435  -0.455  -0.826  0.00  0.00    +0.068 A 
ATOM      2  C   UNL     1       1.214   0.162  -0.584  0.00  0.00    +0.054 A 
ATOM      3  C   UNL     1       1.105   1.535  -0.677  0.00  0.00    +0.110 A 
ATOM      4  C   UNL     1       2.209   2.298  -1.011  0.00  0.00    +0.030 A 
ATOM      5  C   UNL     1       3.427   1.688  -1.252  0.00  0.00    +0.024 A 
ATOM      6  C   UNL     1       3.543   0.314  -1.161  0.00  0.00    +0.063 A 
ATOM      7 CL   UNL     1       5.072  -0.451  -1.464  0.00  0.00    -0.082 Cl
ENDROOT
BRANCH   3   8
ATOM      8  S   UNL     1      -0.445   2.317  -0.377  0.00  0.00    +0.072 S 
ATOM      9  O   UNL     1      -0.411   3.562  -1.061  0.00  0.00    -0.150 OA
ATOM     10  O   UNL     1      -1.447   1.340  -0.623  0.00  0.00    -0.150 OA
BRANCH   8  11
ATOM     11  N   UNL     1      -0.513   2.667   1.240  0.00  0.00    -0.213 N 
ATOM     12  H   UNL     1      -1.217   2.288   1.789  0.00  0.00    +0.174 HD
BRANCH  11  13
ATOM     13  C   UNL     1       0.445   3.508   1.814  0.00  0.00    +0.083 A 
ATOM     14  C   UNL     1       1.019   4.524   1.061  0.00  0.00    +0.027 A 
ATOM     15  C   UNL     1       1.963   5.356   1.632  0.00  0.00    +0.002 A 
ATOM     16  C   UNL     1       2.343   5.174   2.949  0.00  0.00    +0.003 A 
ATOM     17  C   UNL     1       1.777   4.161   3.701  0.00  0.00    +0.040 A 
ATOM     18  C   UNL     1       0.829   3.327   3.138  0.00  0.00    +0.146 A 
ATOM     19  F   UNL     1       0.278   2.336   3.873  0.00  0.00    -0.204 F 
ENDBRANCH  11  13
ENDBRANCH   8  11
ENDBRANCH   3   8
BRANCH   1  20
ATOM     20  N   UNL     1       2.549  -1.845  -0.734  0.00  0.00    -0.215 N 
ATOM     21  H   UNL     1       3.365  -2.243  -0.392  0.00  0.00    +0.174 HD
BRANCH  20  22
ATOM     22  S   UNL     1       1.290  -2.812  -1.206  0.00  0.00    +0.073 S 
ATOM     23  O   UNL     1       1.756  -4.152  -1.128  0.00  0.00    -0.150 OA
ATOM     24  O   UNL     1       0.143  -2.361  -0.499  0.00  0.00    -0.150 OA
BRANCH  22  31
ATOM     25  C   UNL     1       3.265  -3.396  -3.422  0.00  0.00    +0.046 C 
ATOM     26  C   UNL     1       1.957  -2.784  -3.853  0.00  0.00    -0.024 A 
ATOM     27  C   UNL     1       1.723  -2.525  -5.191  0.00  0.00    +0.005 A 
ATOM     28  C   UNL     1       0.523  -1.964  -5.587  0.00  0.00    +0.004 A 
ATOM     29  C   UNL     1      -0.443  -1.662  -4.644  0.00  0.00    -0.040 A 
ATOM     30  C   UNL     1      -0.211  -1.925  -3.308  0.00  0.00    +0.033 A 
ATOM     31  C   UNL     1       0.992  -2.482  -2.911  0.00  0.00    +0.112 A 
BRANCH  29  32
ATOM     32  C   UNL     1      -1.751  -1.051  -5.076  0.00  0.00    -0.013 C 
ATOM     33  C   UNL     1      -1.754  -0.871  -6.595  0.00  0.00    +0.015 C 
ATOM     34  C   UNL     1      -2.903  -1.973  -4.670  0.00  0.00    +0.015 C 
ATOM     35  C   UNL     1      -1.925   0.311  -4.401  0.00  0.00    +0.015 C 
ENDBRANCH  29  32
ENDBRANCH  22  31
ENDBRANCH  20  22
ENDBRANCH   1  20
TORSDOF 7
