REMARK  Name = ZINC64519987
REMARK  5 active torsions:
REMARK  status: ('A' for Active; 'I' for Inactive)
REMARK    1  A    between atoms: C_7  and  C_10
REMARK    2  A    between atoms: C_10  and  C_11
REMARK    3  A    between atoms: C_19  and  C_21
REMARK    4  A    between atoms: C_24  and  C_28
REMARK    5  A    between atoms: C_31  and  N_34
REMARK                            x       y       z     vdW  Elec       q    Type
REMARK                         _______ _______ _______ _____ _____    ______ ____
ROOT
ATOM      1  C   UNL     1      -1.395  -2.163  -1.617  0.00  0.00    +0.220 C 
ATOM      2  O   UNL     1      -1.198  -1.801  -0.476  0.00  0.00    -0.275 OA
ATOM      3  N   UNL     1      -2.209  -3.208  -1.861  0.00  0.00    -0.298 N 
ATOM      4  C   UNL     1      -2.452  -3.662  -3.237  0.00  0.00    +0.126 C 
ATOM      5  C   UNL     1      -2.103  -5.152  -3.331  0.00  0.00    +0.127 C 
ATOM      6  N   UNL     1      -2.764  -5.860  -2.226  0.00  0.00    -0.295 N 
ATOM      7  C   UNL     1      -2.521  -5.406  -0.849  0.00  0.00    +0.127 C 
ATOM      8  C   UNL     1      -2.866  -3.919  -0.755  0.00  0.00    +0.126 C 
ATOM      9  C   UNL     1      -3.578  -6.905  -2.470  0.00  0.00    +0.262 C 
ATOM     10  O   UNL     1      -4.058  -7.529  -1.547  0.00  0.00    -0.271 OA
ENDROOT
BRANCH   9  11
ATOM     11  C   UNL     1      -3.894  -7.299  -3.890  0.00  0.00    +0.298 C 
ATOM     12  N   UNL     1      -4.629  -6.207  -4.579  0.00  0.00    -0.262 NA
ATOM     13  C   UNL     1      -4.339  -6.474  -6.013  0.00  0.00    +0.180 C 
ATOM     14  N   UNL     1      -2.938  -6.954  -6.002  0.00  0.00    -0.177 NA
ATOM     15  O   UNL     1      -2.680  -7.463  -4.646  0.00  0.00    -0.270 OA
ATOM     16  H   UNL     1      -5.619  -6.264  -4.393  0.00  0.00    +0.127 HD
ATOM     17  H   UNL     1      -2.798  -7.678  -6.691  0.00  0.00    +0.156 HD
BRANCH  13  18
ATOM     18  C   UNL     1      -4.463  -5.209  -6.823  0.00  0.00    -0.014 A 
ATOM     19  C   UNL     1      -5.343  -4.218  -6.428  0.00  0.00    +0.008 A 
ATOM     20  C   UNL     1      -5.457  -3.058  -7.171  0.00  0.00    +0.022 A 
ATOM     21  C   UNL     1      -4.691  -2.888  -8.309  0.00  0.00    +0.013 A 
ATOM     22  C   UNL     1      -3.810  -3.878  -8.704  0.00  0.00    +0.022 A 
ATOM     23  C   UNL     1      -3.693  -5.037  -7.958  0.00  0.00    +0.008 A 
BRANCH  21  24
ATOM     24  N   UNL     1      -4.806  -1.715  -9.060  0.00  0.00    -0.393 NA
ATOM     25  C   UNL     1      -5.244  -2.049 -10.421  0.00  0.00    +0.085 C 
ATOM     26  C   UNL     1      -5.450  -0.763 -11.225  0.00  0.00    +0.017 C 
ATOM     27  C   UNL     1      -4.130   0.011 -11.287  0.00  0.00    +0.003 C 
ATOM     28  C   UNL     1      -3.646   0.289  -9.861  0.00  0.00    +0.017 C 
ATOM     29  C   UNL     1      -3.506  -1.036  -9.108  0.00  0.00    +0.085 C 
ATOM     30  H   UNL     1      -5.487  -1.107  -8.630  0.00  0.00    +0.126 HD
ENDBRANCH  21  24
ENDBRANCH  13  18
ENDBRANCH   9  11
BRANCH   1  31
ATOM     31  C   UNL     1      -0.729  -1.443  -2.761  0.00  0.00    +0.129 C 
BRANCH  31  38
ATOM     32  C   UNL     1       3.730  -1.163  -1.714  0.00  0.00    +0.001 A 
ATOM     33  C   UNL     1       4.116   0.094  -1.231  0.00  0.00    +0.002 A 
ATOM     34  C   UNL     1       3.249   1.120  -1.092  0.00  0.00    +0.026 A 
ATOM     35  C   UNL     1       1.880   0.955  -1.439  0.00  0.00    +0.043 A 
ATOM     36  N   UNL     1       0.863   1.781  -1.394  0.00  0.00    -0.380 N 
ATOM     37  C   UNL     1      -0.332   1.078  -1.875  0.00  0.00    +0.145 C 
ATOM     38  C   UNL     1       0.122  -0.322  -2.223  0.00  0.00    -0.033 C 
ATOM     39  C   UNL     1       1.447  -0.364  -1.952  0.00  0.00    -0.001 A 
ATOM     40  C   UNL     1       2.453  -1.426  -2.073  0.00  0.00    +0.010 A 
ATOM     41  H   UNL     1       0.895   2.703  -1.094  0.00  0.00    +0.160 HD
ENDBRANCH  31  38
ENDBRANCH   1  31
TORSDOF 5
