REMARK  Name = ZINC05698350
REMARK  8 active torsions:
REMARK  status: ('A' for Active; 'I' for Inactive)
REMARK    1  A    between atoms: C_1  and  C_2
REMARK    2  A    between atoms: C_5  and  N_11
REMARK    3  A    between atoms: C_6  and  N_8
REMARK    4  A    between atoms: C_12  and  C_14
REMARK    5  A    between atoms: C_14  and  C_16
REMARK    6  A    between atoms: C_14  and  N_19
REMARK    7  A    between atoms: C_16  and  C_17
REMARK    8  A    between atoms: C_16  and  C_18
REMARK                            x       y       z     vdW  Elec       q    Type
REMARK                         _______ _______ _______ _____ _____    ______ ____
ROOT
ATOM      1  C   UNL     1      -1.410  -3.613  -0.133  0.00  0.00    +0.173 C 
ENDROOT
BRANCH   1   2
ATOM      2  N   UNL     1      -0.363  -2.629  -0.416  0.00  0.00    -0.222 N 
ATOM      3  C   UNL     1      -0.592  -1.385  -0.874  0.00  0.00    +0.255 C 
ATOM      4  O   UNL     1      -1.682  -0.907  -1.114  0.00  0.00    -0.270 OA
ATOM      5  C   UNL     1       0.707  -0.697  -1.036  0.00  0.00    +0.049 A 
ATOM      6  C   UNL     1       1.086   0.566  -1.461  0.00  0.00    +0.014 A 
ATOM      7  C   UNL     1       2.430   0.905  -1.495  0.00  0.00    +0.001 A 
ATOM      8  C   UNL     1       3.393  -0.008  -1.109  0.00  0.00    +0.001 A 
ATOM      9  C   UNL     1       3.028  -1.275  -0.681  0.00  0.00    +0.014 A 
ATOM     10  C   UNL     1       1.688  -1.628  -0.641  0.00  0.00    +0.049 A 
ATOM     11  C   UNL     1       0.954  -2.850  -0.253  0.00  0.00    +0.255 C 
ATOM     12  O   UNL     1       1.455  -3.881   0.148  0.00  0.00    -0.270 OA
ENDBRANCH   1   2
BRANCH   1  14
ATOM     13  N   UNL     1      -2.975  -4.987  -1.468  0.00  0.00    -0.282 N 
ATOM     14  C   UNL     1      -2.190  -3.894  -1.391  0.00  0.00    +0.239 C 
ATOM     15  O   UNL     1      -2.112  -3.136  -2.335  0.00  0.00    -0.273 OA
ATOM     16  H   UNL     1      -3.098  -5.552  -0.689  0.00  0.00    +0.155 HD
BRANCH  13  21
ATOM     17  C   UNL     1      -5.557  -6.286  -6.350  0.00  0.00    +0.044 C 
ATOM     18  C   UNL     1      -4.871  -5.941  -5.053  0.00  0.00    -0.048 A 
ATOM     19  C   UNL     1      -4.852  -4.631  -4.610  0.00  0.00    +0.005 A 
ATOM     20  C   UNL     1      -4.224  -4.311  -3.422  0.00  0.00    +0.026 A 
ATOM     21  C   UNL     1      -3.612  -5.307  -2.672  0.00  0.00    +0.064 A 
ATOM     22  C   UNL     1      -3.627  -6.620  -3.123  0.00  0.00    +0.148 A 
ATOM     23  C   UNL     1      -4.262  -6.934  -4.309  0.00  0.00    +0.038 A 
BRANCH  22  24
ATOM     24  N   UNL     1      -2.970  -7.684  -2.330  0.00  0.00    +0.058 N 
ATOM     25  O   UNL     1      -2.955  -8.830  -2.743  0.00  0.00    -0.126 OA
ATOM     26  O   UNL     1      -2.445  -7.413  -1.265  0.00  0.00    -0.126 OA
ENDBRANCH  22  24
ENDBRANCH  13  21
ENDBRANCH   1  14
BRANCH   1  27
ATOM     27  C   UNL     1      -2.353  -3.061   0.939  0.00  0.00    +0.013 C 
ATOM     28  C   UNL     1      -3.390  -4.125   1.303  0.00  0.00    +0.009 C 
ATOM     29  C   UNL     1      -1.546  -2.688   2.184  0.00  0.00    +0.009 C 
ENDBRANCH   1  27
TORSDOF 5
