REMARK  Name = ZINC00876500
REMARK  10 active torsions:
REMARK  status: ('A' for Active; 'I' for Inactive)
REMARK    1  A    between atoms: C_1  and  C_2
REMARK    2  A    between atoms: C_2  and  O_3
REMARK    3  A    between atoms: O_3  and  C_4
REMARK    4  A    between atoms: C_4  and  C_6
REMARK    5  A    between atoms: C_7  and  C_30
REMARK    6  A    between atoms: C_9  and  N_29
REMARK    7  A    between atoms: C_10  and  C_27
REMARK    8  A    between atoms: C_11  and  C_13
REMARK    9  A    between atoms: C_18  and  C_26
REMARK   10  A    between atoms: C_19  and  C_25
REMARK                            x       y       z     vdW  Elec       q    Type
REMARK                         _______ _______ _______ _____ _____    ______ ____
ROOT
ATOM      1  C   UNL     1       1.225   1.924  -0.188  0.00  0.00    +0.087 C 
ATOM      2  C   UNL     1       2.363   1.276   0.088  0.00  0.00    +0.115 C 
ATOM      3  O   UNL     1       3.526   1.918   0.274  0.00  0.00    -0.445 OA
ATOM      4  C   UNL     1       3.515   3.231   0.563  0.00  0.00    +0.198 C 
ATOM      5  C   UNL     1       2.434   4.008   0.313  0.00  0.00    +0.098 C 
ATOM      6  C   UNL     1       1.193   3.423  -0.310  0.00  0.00    +0.110 C 
ATOM      7  C   UNL     1       2.338  -0.227   0.193  0.00  0.00    +0.087 C 
ENDROOT
BRANCH   6   8
ATOM      8  C   UNL     1       1.128   3.807  -1.766  0.00  0.00    +0.030 A 
ATOM      9  C   UNL     1       0.075   4.524  -2.229  0.00  0.00    +0.020 A 
ATOM     10  C   UNL     1       0.045   4.885  -3.647  0.00  0.00    -0.001 A 
ATOM     11  C   UNL     1      -1.013   5.627  -4.182  0.00  0.00    +0.010 A 
ATOM     12  C   UNL     1      -1.015   5.943  -5.512  0.00  0.00    +0.004 A 
ATOM     13  C   UNL     1       0.023   5.532  -6.337  0.00  0.00    -0.046 A 
ATOM     14  C   UNL     1       1.076   4.801  -5.831  0.00  0.00    -0.024 A 
ATOM     15  C   UNL     1       1.099   4.468  -4.480  0.00  0.00    +0.052 A 
ATOM     16  N   UNL     1       2.139   3.735  -3.948  0.00  0.00    -0.322 N 
ATOM     17  H   UNL     1       2.888   3.440  -4.541  0.00  0.00    +0.169 HD
ATOM     18  C   UNL     1       2.161   3.413  -2.643  0.00  0.00    +0.253 A 
ATOM     19  O   UNL     1       3.096   2.763  -2.207  0.00  0.00    -0.268 OA
ATOM     20  C   UNL     1       2.197   4.363  -6.737  0.00  0.00    +0.046 C 
ATOM     21  C   UNL     1       0.000   5.892  -7.800  0.00  0.00    +0.044 C 
ENDBRANCH   6   8
BRANCH   4  22
ATOM     22  N   UNL     1       4.630   3.799   1.128  0.00  0.00    -0.328 N 
ATOM     23  H   UNL     1       5.411   3.254   1.313  0.00  0.00    +0.145 HD
ATOM     24  H   UNL     1       4.636   4.745   1.342  0.00  0.00    +0.145 HD
ENDBRANCH   4  22
BRANCH   1  25
ATOM     25  C   UNL     1       0.031   1.185  -0.375  0.00  0.00    +0.339 C 
ATOM     26  O   UNL     1      -0.827   1.187   0.488  0.00  0.00    -0.245 OA
BRANCH  25  27
ATOM     27  O   UNL     1      -0.153   0.474  -1.507  0.00  0.00    -0.462 OA
BRANCH  27  29
ATOM     28  C   UNL     1      -1.405  -0.990  -2.966  0.00  0.00    +0.048 C 
ATOM     29  C   UNL     1      -1.378  -0.252  -1.626  0.00  0.00    +0.229 C 
ENDBRANCH  27  29
ENDBRANCH  25  27
ENDBRANCH   1  25
BRANCH   5  30
ATOM     30  C   UNL     1       2.474   5.402   0.639  0.00  0.00    +0.101 C 
ATOM     31  N   UNL     1       2.506   6.508   0.897  0.00  0.00    -0.191 NA
ENDBRANCH   5  30
TORSDOF 6
