REMARK  Name = ZINC06149261
REMARK  14 active torsions:
REMARK  status: ('A' for Active; 'I' for Inactive)
REMARK    1  A    between atoms: C_1  and  C_2
REMARK    2  A    between atoms: C_2  and  C_3
REMARK    3  A    between atoms: C_3  and  C_4
REMARK    4  A    between atoms: C_3  and  C_5
REMARK    5  A    between atoms: C_3  and  N_6
REMARK    6  A    between atoms: C_7  and  C_11
REMARK    7  A    between atoms: C_11  and  C_13
REMARK    8  A    between atoms: C_11  and  N_72
REMARK    9  A    between atoms: C_18  and  C_25
REMARK   10  A    between atoms: C_26  and  C_27
REMARK   11  A    between atoms: C_26  and  N_72
REMARK   12  A    between atoms: C_27  and  C_28
REMARK   13  A    between atoms: C_34  and  C_35
REMARK   14  A    between atoms: C_34  and  N_72
REMARK                            x       y       z     vdW  Elec       q    Type
REMARK                         _______ _______ _______ _____ _____    ______ ____
ROOT
ATOM      1  C   UNL     1       3.340   0.297   0.587  0.00  0.00    +0.039 C 
ENDROOT
BRANCH   1   2
ATOM      2  C   UNL     1       4.056  -0.091  -0.681  0.00  0.00    +0.011 A 
ATOM      3  C   UNL     1       3.591  -1.119  -1.432  0.00  0.00    +0.017 A 
ATOM      4  C   UNL     1       4.309  -1.471  -2.658  0.00  0.00    -0.001 A 
ATOM      5  C   UNL     1       3.877  -2.522  -3.474  0.00  0.00    +0.010 A 
ATOM      6  C   UNL     1       4.569  -2.825  -4.612  0.00  0.00    +0.004 A 
ATOM      7  C   UNL     1       5.699  -2.099  -4.966  0.00  0.00    -0.048 A 
ATOM      8  C   UNL     1       6.143  -1.060  -4.177  0.00  0.00    +0.029 A 
ATOM      9  C   UNL     1       5.454  -0.733  -3.014  0.00  0.00    +0.049 A 
ATOM     10  N   UNL     1       5.875   0.302  -2.206  0.00  0.00    -0.322 N 
ATOM     11  H   UNL     1       6.691   0.823  -2.459  0.00  0.00    +0.169 HD
ATOM     12  C   UNL     1       5.206   0.621  -1.085  0.00  0.00    +0.251 A 
ATOM     13  O   UNL     1       5.604   1.545  -0.398  0.00  0.00    -0.268 OA
ATOM     14  C   UNL     1       6.447  -2.452  -6.226  0.00  0.00    +0.044 C 
ENDBRANCH   1   2
BRANCH   1  16
ATOM     15  N   UNL     1       1.710  -1.339   1.669  0.00  0.00    -0.225 N 
ATOM     16  C   UNL     1       2.051  -0.477   0.693  0.00  0.00    +0.143 A 
ATOM     17  N   UNL     1       1.045  -0.441  -0.146  0.00  0.00    -0.115 NA
ATOM     18  N   UNL     1       0.133  -1.239   0.291  0.00  0.00    -0.023 NA
ATOM     19  N   UNL     1       0.532  -1.784   1.387  0.00  0.00    -0.043 NA
BRANCH  15  20
ATOM     20  C   UNL     1       2.523  -1.705   2.831  0.00  0.00    +0.061 C 
ATOM     21  C   UNL     1       3.828  -2.349   2.358  0.00  0.00    +0.036 C 
ATOM     22  C   UNL     1       2.841  -0.450   3.646  0.00  0.00    +0.036 C 
BRANCH  20  24
ATOM     23  C   UNL     1       2.600  -3.079   4.916  0.00  0.00    +0.006 C 
ATOM     24  C   UNL     1       1.751  -2.697   3.702  0.00  0.00    +0.026 C 
ENDBRANCH  20  24
ENDBRANCH  15  20
ENDBRANCH   1  16
BRANCH   1  25
ATOM     25  N   UNL     1       3.070   1.750   0.555  0.00  0.00    +0.392 N 
ATOM     26  H   UNL     1       3.927   2.243   0.277  0.00  0.00    -0.080 HD
BRANCH  25  27
ATOM     27  C   UNL     1       2.661   2.218   1.896  0.00  0.00    -0.072 C 
BRANCH  27  28
ATOM     28  C   UNL     1       2.557   3.744   1.877  0.00  0.00    +0.016 C 
BRANCH  28  29
ATOM     29  C   UNL     1       2.292   4.247   3.272  0.00  0.00    -0.049 A 
ATOM     30  C   UNL     1       0.993   4.401   3.717  0.00  0.00    +0.003 A 
ATOM     31  C   UNL     1       0.750   4.857   4.999  0.00  0.00    +0.000 A 
ATOM     32  C   UNL     1       1.807   5.171   5.833  0.00  0.00    +0.000 A 
ATOM     33  C   UNL     1       3.107   5.023   5.386  0.00  0.00    +0.000 A 
ATOM     34  C   UNL     1       3.350   4.561   4.106  0.00  0.00    +0.003 A 
ENDBRANCH  28  29
ENDBRANCH  27  28
ENDBRANCH  25  27
BRANCH  25  35
ATOM     35  C   UNL     1       2.007   2.045  -0.429  0.00  0.00    -0.034 C 
BRANCH  35  36
ATOM     36  C   UNL     1       2.614   2.048  -1.808  0.00  0.00    -0.027 A 
ATOM     37  C   UNL     1       2.595   1.074  -2.751  0.00  0.00    +0.009 A 
ATOM     38  C   UNL     1       3.226   1.300  -3.960  0.00  0.00    +0.008 A 
ATOM     39  C   UNL     1       3.843   2.489  -4.168  0.00  0.00    +0.045 A 
ATOM     40  S   UNL     1       3.537   3.338  -2.627  0.00  0.00    -0.103 S 
ENDBRANCH  35  36
ENDBRANCH  25  35
ENDBRANCH   1  25
TORSDOF 10
