REMARK  Name = ZINC15852753
REMARK  15 active torsions:
REMARK  status: ('A' for Active; 'I' for Inactive)
REMARK    1  A    between atoms: C_1  and  C_2
REMARK    2  A    between atoms: C_2  and  C_4
REMARK    3  A    between atoms: C_2  and  O_11
REMARK    4  A    between atoms: N_6  and  C_7
REMARK    5  A    between atoms: C_7  and  C_8
REMARK    6  A    between atoms: C_7  and  C_9
REMARK    7  A    between atoms: C_7  and  C_10
REMARK    8  A    between atoms: O_11  and  C_12
REMARK    9  A    between atoms: C_12  and  C_14
REMARK   10  A    between atoms: C_14  and  O_15
REMARK   11  A    between atoms: O_15  and  C_16
REMARK   12  A    between atoms: C_19  and  C_22
REMARK   13  A    between atoms: C_22  and  C_23
REMARK   14  A    between atoms: C_22  and  C_24
REMARK   15  A    between atoms: C_22  and  C_25
REMARK                            x       y       z     vdW  Elec       q    Type
REMARK                         _______ _______ _______ _____ _____    ______ ____
ROOT
ATOM      1  C   UNL     1       2.211   5.600   0.012  0.00  0.00    +0.346 C 
ATOM      2  O   UNL     1       1.089   6.049   0.025  0.00  0.00    -0.247 OA
ENDROOT
BRANCH   1   3
ATOM      3  O   UNL     1       3.266   6.430   0.006  0.00  0.00    -0.450 OA
BRANCH   3   5
ATOM      4  C   UNL     1       2.899   8.346   1.464  0.00  0.00    +0.062 C 
ATOM      5  C   UNL     1       2.984   7.854   0.017  0.00  0.00    +0.259 C 
BRANCH   5   6
ATOM      6  C   UNL     1       4.087   8.590  -0.700  0.00  0.00    +0.254 C 
ATOM      7  O   UNL     1       5.018   7.975  -1.173  0.00  0.00    -0.272 OA
ATOM      8  N   UNL     1       4.037   9.932  -0.815  0.00  0.00    -0.308 N 
ATOM      9  H   UNL     1       3.292  10.424  -0.436  0.00  0.00    +0.149 HD
BRANCH   8  10
ATOM     10  C   UNL     1       5.109  10.647  -1.512  0.00  0.00    +0.026 C 
ATOM     11  C   UNL     1       5.194  10.155  -2.958  0.00  0.00    +0.031 C 
ATOM     12  C   UNL     1       4.812  12.148  -1.500  0.00  0.00    +0.031 C 
ATOM     13  C   UNL     1       6.441  10.386  -0.805  0.00  0.00    +0.031 C 
ENDBRANCH   8  10
ENDBRANCH   5   6
ENDBRANCH   3   5
ENDBRANCH   1   3
BRANCH   1  14
ATOM     14  C   UNL     1       2.426   4.108   0.001  0.00  0.00    +0.349 C 
BRANCH  14  15
ATOM     15  O   UNL     1       1.160   3.445   0.010  0.00  0.00    -0.481 OA
BRANCH  15  16
ATOM     16  C   UNL     1       1.176   2.086   0.002  0.00  0.00    +0.121 A 
ATOM     17  C   UNL     1      -0.017   1.377   0.010  0.00  0.00    +0.046 A 
ATOM     18  C   UNL     1       0.002  -0.004   0.002  0.00  0.00    +0.008 A 
ATOM     19  C   UNL     1       1.208  -0.680  -0.013  0.00  0.00    -0.042 A 
ATOM     20  C   UNL     1       2.398   0.024  -0.021  0.00  0.00    +0.008 A 
ATOM     21  C   UNL     1       2.385   1.405  -0.013  0.00  0.00    +0.046 A 
BRANCH  19  22
ATOM     22  C   UNL     1       1.226  -2.187  -0.021  0.00  0.00    -0.013 C 
ATOM     23  C   UNL     1       0.498  -2.699  -1.266  0.00  0.00    +0.015 C 
ATOM     24  C   UNL     1       2.674  -2.680  -0.037  0.00  0.00    +0.015 C 
ATOM     25  C   UNL     1       0.522  -2.712   1.233  0.00  0.00    +0.015 C 
ENDBRANCH  19  22
ENDBRANCH  15  16
ENDBRANCH  14  15
ENDBRANCH   1  14
TORSDOF 8
