REMARK  Name = ZINC63731956
REMARK  7 active torsions:
REMARK  status: ('A' for Active; 'I' for Inactive)
REMARK    1  A    between atoms: C_1  and  C_2
REMARK    2  A    between atoms: N_6  and  C_24
REMARK    3  A    between atoms: C_7  and  S_13
REMARK    4  A    between atoms: S_13  and  C_14
REMARK    5  A    between atoms: C_14  and  C_15
REMARK    6  A    between atoms: N_17  and  C_18
REMARK    7  A    between atoms: C_18  and  C_19
REMARK                            x       y       z     vdW  Elec       q    Type
REMARK                         _______ _______ _______ _____ _____    ______ ____
ROOT
ATOM      1  C   UNL     1      -0.018   1.503   0.010  0.00  0.00    +0.068 C 
ATOM      2  C   UNL     1       0.002  -0.004   0.002  0.00  0.00    +0.075 C 
ATOM      3  C   UNL     1      -1.069  -0.803   0.003  0.00  0.00    +0.083 C 
ATOM      4  C   UNL     1      -2.532  -0.601  -0.028  0.00  0.00    +0.133 C 
ATOM      5  N   UNL     1      -3.123   0.526   0.264  0.00  0.00    -0.285 NA
ATOM      6  N   UNL     1      -3.210  -1.773  -0.410  0.00  0.00    -0.252 N 
ATOM      7  C   UNL     1      -2.760  -3.048   0.155  0.00  0.00    +0.260 C 
ATOM      8  N   UNL     1      -1.308  -3.229   0.060  0.00  0.00    -0.230 NA
ATOM      9  C   UNL     1      -0.522  -2.203   0.014  0.00  0.00    +0.185 C 
ATOM     10  N   UNL     1       0.824  -2.041  -0.009  0.00  0.00    -0.129 NA
ATOM     11  N   UNL     1       1.105  -0.782  -0.013  0.00  0.00    -0.152 NA
ATOM     12  H   UNL     1      -2.595   1.298   0.520  0.00  0.00    +0.188 HD
ENDROOT
BRANCH   6  13
ATOM     13  C   UNL     1      -4.285  -1.723  -1.303  0.00  0.00    +0.056 A 
ATOM     14  C   UNL     1      -4.060  -1.842  -2.669  0.00  0.00    +0.025 A 
ATOM     15  C   UNL     1      -5.124  -1.792  -3.549  0.00  0.00    +0.002 A 
ATOM     16  C   UNL     1      -6.411  -1.622  -3.072  0.00  0.00    +0.002 A 
ATOM     17  C   UNL     1      -6.638  -1.503  -1.714  0.00  0.00    +0.022 A 
ATOM     18  C   UNL     1      -5.580  -1.559  -0.827  0.00  0.00    +0.062 A 
ATOM     19 CL   UNL     1      -5.867  -1.417   0.879  0.00  0.00    -0.082 Cl
ENDBRANCH   6  13
BRANCH   7  20
ATOM     20  S   UNL     1      -3.243  -3.119   1.902  0.00  0.00    -0.106 S 
BRANCH  20  21
ATOM     21  C   UNL     1      -2.400  -1.696   2.648  0.00  0.00    +0.168 C 
BRANCH  21  22
ATOM     22  C   UNL     1      -2.721  -1.637   4.119  0.00  0.00    +0.223 C 
ATOM     23  O   UNL     1      -3.447  -2.472   4.615  0.00  0.00    -0.275 OA
ATOM     24  N   UNL     1      -2.202  -0.656   4.883  0.00  0.00    -0.308 N 
ATOM     25  H   UNL     1      -1.621   0.012   4.487  0.00  0.00    +0.149 HD
BRANCH  24  26
ATOM     26  C   UNL     1      -2.514  -0.599   6.314  0.00  0.00    +0.178 C 
BRANCH  26  27
ATOM     27  C   UNL     1      -1.814   0.583   6.934  0.00  0.00    +0.122 A 
ATOM     28  C   UNL     1      -2.317   1.825   7.047  0.00  0.00    +0.046 A 
ATOM     29  C   UNL     1      -1.330   2.610   7.686  0.00  0.00    +0.041 A 
ATOM     30  C   UNL     1      -0.282   1.801   7.924  0.00  0.00    +0.195 A 
ATOM     31  O   UNL     1      -0.583   0.573   7.471  0.00  0.00    -0.466 OA
ENDBRANCH  26  27
ENDBRANCH  24  26
ENDBRANCH  21  22
ENDBRANCH  20  21
ENDBRANCH   7  20
TORSDOF 6
