REMARK  Name = ZINC38965921
REMARK  7 active torsions:
REMARK  status: ('A' for Active; 'I' for Inactive)
REMARK    1  A    between atoms: C_1  and  C_2
REMARK    2  A    between atoms: C_5  and  N_9
REMARK    3  A    between atoms: N_9  and  C_10
REMARK    4  A    between atoms: N_13  and  S_14
REMARK    5  A    between atoms: S_14  and  C_17
REMARK    6  A    between atoms: C_20  and  O_23
REMARK    7  A    between atoms: O_23  and  C_24
REMARK                            x       y       z     vdW  Elec       q    Type
REMARK                         _______ _______ _______ _____ _____    ______ ____
ROOT
ATOM      1  C   UNL     1       0.186  -4.908   1.235  0.00  0.00    +0.237 C 
ATOM      2  C   UNL     1      -0.806  -6.049   1.202  0.00  0.00    +0.192 C 
ATOM      3  N   UNL     1      -2.075  -5.814   1.042  0.00  0.00    -0.110 NA
ATOM      4  N   UNL     1      -0.358  -7.306   1.341  0.00  0.00    -0.226 NA
ATOM      5  C   UNL     1       0.922  -7.569   1.505  0.00  0.00    +0.089 A 
ATOM      6  C   UNL     1       1.360  -8.910   1.649  0.00  0.00    +0.030 A 
ATOM      7  C   UNL     1       2.672  -9.186   1.817  0.00  0.00    +0.002 A 
ATOM      8  C   UNL     1       3.659  -8.187   1.860  0.00  0.00    +0.002 A 
ATOM      9  C   UNL     1       3.350  -6.877   1.734  0.00  0.00    +0.027 A 
ATOM     10  C   UNL     1       1.943  -6.494   1.546  0.00  0.00    +0.063 A 
ATOM     11  N   UNL     1       1.608  -5.241   1.419  0.00  0.00    -0.359 N 
ATOM     12  H   UNL     1       2.281  -4.543   1.446  0.00  0.00    +0.162 HD
ENDROOT
BRANCH   3  13
ATOM     13  S   UNL     1      -3.151  -7.073   1.008  0.00  0.00    +0.100 S 
ATOM     14  O   UNL     1      -2.861  -7.824  -0.163  0.00  0.00    -0.146 OA
ATOM     15  O   UNL     1      -3.142  -7.650   2.306  0.00  0.00    -0.146 OA
BRANCH  13  16
ATOM     16  C   UNL     1      -4.755  -6.380   0.777  0.00  0.00    +0.113 A 
ATOM     17  C   UNL     1      -5.516  -6.020   1.873  0.00  0.00    +0.032 A 
ATOM     18  C   UNL     1      -6.774  -5.478   1.695  0.00  0.00    +0.047 A 
ATOM     19  C   UNL     1      -7.273  -5.293   0.414  0.00  0.00    +0.120 A 
ATOM     20  C   UNL     1      -6.507  -5.655  -0.685  0.00  0.00    +0.047 A 
ATOM     21  C   UNL     1      -5.248  -6.192  -0.501  0.00  0.00    +0.032 A 
BRANCH  19  22
ATOM     22  O   UNL     1      -8.510  -4.760   0.236  0.00  0.00    -0.495 OA
ATOM     23  C   UNL     1      -8.959  -4.599  -1.111  0.00  0.00    +0.277 C 
ENDBRANCH  19  22
ENDBRANCH  13  16
ENDBRANCH   3  13
BRANCH   1  24
ATOM     24  N   UNL     1       0.059  -4.169  -0.023  0.00  0.00    -0.318 N 
ATOM     25  H   UNL     1       0.093  -4.642  -0.869  0.00  0.00    +0.148 HD
BRANCH  24  30
ATOM     26  C   UNL     1      -0.627   1.461   0.058  0.00  0.00    +0.047 C 
ATOM     27  C   UNL     1      -0.444  -0.035   0.035  0.00  0.00    -0.015 A 
ATOM     28  C   UNL     1      -0.153  -0.712   1.205  0.00  0.00    +0.008 A 
ATOM     29  C   UNL     1       0.015  -2.082   1.189  0.00  0.00    +0.023 A 
ATOM     30  C   UNL     1      -0.110  -2.783  -0.004  0.00  0.00    +0.032 A 
ATOM     31  C   UNL     1      -0.403  -2.102  -1.179  0.00  0.00    +0.061 A 
ATOM     32  C   UNL     1      -0.575  -0.729  -1.155  0.00  0.00    +0.128 A 
ATOM     33  F   UNL     1      -0.865  -0.066  -2.296  0.00  0.00    -0.205 F 
ENDBRANCH  24  30
ENDBRANCH   1  24
TORSDOF 5
