REMARK  Name = ZINC66964610
REMARK  10 active torsions:
REMARK  status: ('A' for Active; 'I' for Inactive)
REMARK    1  A    between atoms: C_1  and  C_2
REMARK    2  A    between atoms: C_4  and  C_14
REMARK    3  A    between atoms: C_6  and  S_9
REMARK    4  A    between atoms: C_7  and  C_8
REMARK    5  A    between atoms: S_9  and  N_12
REMARK    6  A    between atoms: N_12  and  C_13
REMARK    7  A    between atoms: C_14  and  O_16
REMARK    8  A    between atoms: O_16  and  C_17
REMARK    9  A    between atoms: C_20  and  N_23
REMARK   10  A    between atoms: C_24  and  C_26
REMARK                            x       y       z     vdW  Elec       q    Type
REMARK                         _______ _______ _______ _____ _____    ______ ____
ROOT
ATOM      1  C   UNL     1      -0.247   1.296  -1.285  0.00  0.00    +0.044 C 
ATOM      2  C   UNL     1      -0.327  -0.208  -1.220  0.00  0.00    -0.045 A 
ATOM      3  C   UNL     1      -0.273  -0.951  -2.382  0.00  0.00    +0.018 A 
ATOM      4  C   UNL     1      -0.346  -2.343  -2.320  0.00  0.00    +0.062 A 
ATOM      5  C   UNL     1      -0.474  -2.975  -1.081  0.00  0.00    +0.043 A 
ATOM      6  C   UNL     1      -0.526  -2.221   0.072  0.00  0.00    +0.109 A 
ATOM      7  C   UNL     1      -0.447  -0.841   0.004  0.00  0.00    -0.021 A 
ATOM      8  C   UNL     1      -0.499  -0.023   1.269  0.00  0.00    +0.046 C 
ENDROOT
BRANCH   6   9
ATOM      9  S   UNL     1      -0.687  -3.016   1.637  0.00  0.00    +0.058 S 
ATOM     10  O   UNL     1      -0.799  -4.408   1.375  0.00  0.00    -0.153 OA
ATOM     11  O   UNL     1       0.328  -2.477   2.472  0.00  0.00    -0.153 OA
BRANCH   9  12
ATOM     12  N   UNL     1      -2.135  -2.538   2.282  0.00  0.00    -0.193 NA
ATOM     13  C   UNL     1      -3.391  -2.936   1.639  0.00  0.00    +0.127 C 
ATOM     14  H   UNL     1      -2.153  -1.995   3.085  0.00  0.00    +0.148 HD
ENDBRANCH   9  12
ENDBRANCH   6   9
BRANCH   4  15
ATOM     15  C   UNL     1      -0.290  -3.145  -3.559  0.00  0.00    +0.345 C 
ATOM     16  O   UNL     1      -0.354  -4.357  -3.502  0.00  0.00    -0.245 OA
BRANCH  15  17
ATOM     17  O   UNL     1      -0.167  -2.532  -4.753  0.00  0.00    -0.422 OA
BRANCH  17  18
ATOM     18  C   UNL     1      -0.225  -3.300  -5.873  0.00  0.00    +0.132 A 
ATOM     19  C   UNL     1      -1.446  -3.788  -6.316  0.00  0.00    +0.048 A 
ATOM     20  C   UNL     1      -1.506  -4.568  -7.454  0.00  0.00    +0.027 A 
ATOM     21  C   UNL     1      -0.344  -4.864  -8.155  0.00  0.00    +0.034 A 
ATOM     22  C   UNL     1       0.877  -4.375  -7.711  0.00  0.00    +0.027 A 
ATOM     23  C   UNL     1       0.935  -3.590  -6.576  0.00  0.00    +0.048 A 
BRANCH  21  24
ATOM     24  N   UNL     1      -0.404  -5.655  -9.309  0.00  0.00    -0.286 N 
ATOM     25  C   UNL     1      -1.471  -5.571 -10.129  0.00  0.00    +0.214 C 
ATOM     26  O   UNL     1      -2.335  -4.747  -9.917  0.00  0.00    -0.276 OA
ATOM     27  C   UNL     1      -1.589  -6.502 -11.309  0.00  0.00    +0.109 C 
ATOM     28  H   UNL     1       0.322  -6.263  -9.519  0.00  0.00    +0.155 HD
ENDBRANCH  21  24
ENDBRANCH  17  18
ENDBRANCH  15  17
ENDBRANCH   4  15
TORSDOF 6
