REMARK  Name = ZINC08835749
REMARK  6 active torsions:
REMARK  status: ('A' for Active; 'I' for Inactive)
REMARK    1  A    between atoms: C_4  and  N_26
REMARK    2  A    between atoms: C_5  and  N_7
REMARK    3  A    between atoms: N_7  and  C_8
REMARK    4  A    between atoms: C_8  and  N_10
REMARK    5  A    between atoms: C_11  and  C_13
REMARK    6  A    between atoms: C_16  and  C_18
REMARK                            x       y       z     vdW  Elec       q    Type
REMARK                         _______ _______ _______ _____ _____    ______ ____
ROOT
ATOM      1  N   UNL     1       4.633  -4.908   0.839  0.00  0.00    -0.261 N 
ATOM      2  C   UNL     1       5.106  -4.011   1.726  0.00  0.00    +0.285 C 
ATOM      3  O   UNL     1       5.985  -4.330   2.505  0.00  0.00    -0.266 OA
ATOM      4  H   UNL     1       3.933  -4.654   0.218  0.00  0.00    +0.157 HD
ENDROOT
BRANCH   2   5
ATOM      5  C   UNL     1       4.563  -2.652   1.753  0.00  0.00    +0.190 A 
ATOM      6  C   UNL     1       4.953  -1.640   2.604  0.00  0.00    +0.055 A 
ATOM      7  C   UNL     1       4.178  -0.522   2.284  0.00  0.00    +0.050 A 
ATOM      8  C   UNL     1       3.351  -0.886   1.260  0.00  0.00    +0.136 A 
ATOM      9  O   UNL     1       3.588  -2.172   0.952  0.00  0.00    -0.450 OA
BRANCH   8  10
ATOM     10  C   UNL     1       2.357  -0.013   0.605  0.00  0.00    +0.019 A 
ATOM     11  C   UNL     1       2.201   1.311   1.024  0.00  0.00    +0.013 A 
ATOM     12  C   UNL     1       1.271   2.122   0.409  0.00  0.00    +0.022 A 
ATOM     13  C   UNL     1       0.491   1.627  -0.623  0.00  0.00    +0.059 A 
ATOM     14  C   UNL     1       0.640   0.315  -1.044  0.00  0.00    +0.060 A 
ATOM     15  C   UNL     1       1.568  -0.507  -0.436  0.00  0.00    +0.033 A 
ATOM     16 CL   UNL     1      -0.342  -0.297  -2.338  0.00  0.00    -0.082 Cl
ATOM     17 CL   UNL     1      -0.673   2.656  -1.397  0.00  0.00    -0.082 Cl
ENDBRANCH   8  10
ENDBRANCH   2   5
BRANCH   1  18
ATOM     18  C   UNL     1       5.133  -6.159   0.815  0.00  0.00    +0.141 C 
ATOM     19  S   UNL     1       6.369  -6.609   1.910  0.00  0.00    -0.018 S 
BRANCH  18  20
ATOM     20  N   UNL     1       4.660  -7.057  -0.073  0.00  0.00    -0.295 N 
ATOM     21  H   UNL     1       3.907  -6.828  -0.640  0.00  0.00    +0.154 HD
BRANCH  20  26
ATOM     22  C   UNL     1       7.224  -9.687  -0.284  0.00  0.00    +0.002 A 
ATOM     23  C   UNL     1       6.437 -10.820  -0.381  0.00  0.00    +0.002 A 
ATOM     24  C   UNL     1       5.059 -10.711  -0.377  0.00  0.00    +0.025 A 
ATOM     25  C   UNL     1       4.462  -9.463  -0.275  0.00  0.00    +0.051 A 
ATOM     26  C   UNL     1       5.256  -8.321  -0.176  0.00  0.00    +0.054 A 
ATOM     27  C   UNL     1       6.638  -8.439  -0.187  0.00  0.00    +0.025 A 
BRANCH  25  28
ATOM     28  N   UNL     1       3.067  -9.350  -0.271  0.00  0.00    -0.328 N 
ATOM     29  C   UNL     1       2.490 -10.003   0.911  0.00  0.00    +0.105 C 
ATOM     30  C   UNL     1       0.984  -9.735   0.959  0.00  0.00    +0.019 C 
ATOM     31  C   UNL     1       0.334 -10.279  -0.316  0.00  0.00    +0.003 C 
ATOM     32  C   UNL     1       0.986  -9.619  -1.534  0.00  0.00    +0.019 C 
ATOM     33  C   UNL     1       2.492  -9.890  -1.509  0.00  0.00    +0.105 C 
ENDBRANCH  25  28
ENDBRANCH  20  26
ENDBRANCH  18  20
ENDBRANCH   1  18
TORSDOF 6
