REMARK  Name = ZINC02211955
REMARK  8 active torsions:
REMARK  status: ('A' for Active; 'I' for Inactive)
REMARK    1  A    between atoms: C_1  and  C_2
REMARK    2  A    between atoms: C_2  and  C_3
REMARK    3  A    between atoms: C_2  and  C_4
REMARK    4  A    between atoms: C_12  and  N_31
REMARK    5  A    between atoms: C_14  and  S_16
REMARK    6  A    between atoms: S_16  and  C_17
REMARK    7  A    between atoms: C_17  and  C_18
REMARK    8  A    between atoms: N_20  and  C_21
REMARK                            x       y       z     vdW  Elec       q    Type
REMARK                         _______ _______ _______ _____ _____    ______ ____
ROOT
ATOM      1  C   UNL     1       4.651  -1.470   7.950  0.00  0.00    +0.126 C 
ATOM      2  C   UNL     1       3.937  -1.563   6.599  0.00  0.00    +0.068 C 
ATOM      3  C   UNL     1       2.683  -0.694   6.665  0.00  0.00    -0.020 A 
ATOM      4  C   UNL     1       2.199  -0.315   7.867  0.00  0.00    +0.021 A 
ATOM      5  S   UNL     1       0.770   0.664   7.500  0.00  0.00    -0.071 S 
ATOM      6  C   UNL     1       0.824   0.561   5.729  0.00  0.00    +0.115 A 
ATOM      7  C   UNL     1       1.960  -0.237   5.481  0.00  0.00    +0.051 A 
ATOM      8  C   UNL     1       2.245  -0.486   4.109  0.00  0.00    +0.129 A 
ATOM      9  N   UNL     1       1.456   0.028   3.180  0.00  0.00    -0.207 NA
ATOM     10  C   UNL     1       0.400   0.773   3.485  0.00  0.00    +0.191 A 
ATOM     11  N   UNL     1       0.089   1.042   4.745  0.00  0.00    -0.214 NA
ATOM     12  C   UNL     1       2.773  -0.665   9.204  0.00  0.00    +0.203 C 
ATOM     13  O   UNL     1       3.728  -1.721   9.013  0.00  0.00    -0.371 OA
ENDROOT
BRANCH   1  15
ATOM     14  C   UNL     1       6.491  -2.415   9.353  0.00  0.00    +0.010 C 
ATOM     15  C   UNL     1       5.776  -2.506   8.003  0.00  0.00    +0.012 C 
ATOM     16  C   UNL     1       5.186  -3.908   7.833  0.00  0.00    +0.010 C 
ENDBRANCH   1  15
BRANCH   8  17
ATOM     17  N   UNL     1       3.336  -1.257   3.751  0.00  0.00    -0.343 N 
ATOM     18  H   UNL     1       3.575  -1.354   2.816  0.00  0.00    +0.144 HD
ATOM     19  H   UNL     1       3.862  -1.700   4.435  0.00  0.00    +0.144 HD
ENDBRANCH   8  17
BRANCH  10  20
ATOM     20  S   UNL     1      -0.602   1.422   2.189  0.00  0.00    -0.077 S 
BRANCH  20  21
ATOM     21  C   UNL     1       0.276   0.760   0.751  0.00  0.00    +0.173 C 
BRANCH  21  22
ATOM     22  C   UNL     1      -0.423   1.200  -0.510  0.00  0.00    +0.228 C 
ATOM     23  O   UNL     1      -1.416   1.893  -0.443  0.00  0.00    -0.275 OA
ATOM     24  N   UNL     1       0.057   0.823  -1.712  0.00  0.00    -0.284 N 
ATOM     25  H   UNL     1       0.884   0.321  -1.769  0.00  0.00    +0.155 HD
BRANCH  24  26
ATOM     26  C   UNL     1      -0.639   1.156  -2.876  0.00  0.00    +0.041 A 
ATOM     27  C   UNL     1      -1.320   2.351  -2.961  0.00  0.00    +0.024 A 
ATOM     28  C   UNL     1      -2.016   2.693  -4.117  0.00  0.00    +0.002 A 
ATOM     29  C   UNL     1      -2.043   1.859  -5.194  0.00  0.00    +0.008 A 
ATOM     30  C   UNL     1      -1.361   0.632  -5.148  0.00  0.00    -0.016 A 
ATOM     31  C   UNL     1      -0.645   0.275  -3.978  0.00  0.00    +0.003 A 
ATOM     32  C   UNL     1       0.033  -0.953  -3.933  0.00  0.00    +0.010 A 
ATOM     33  C   UNL     1       0.002  -1.781  -5.013  0.00  0.00    +0.001 A 
ATOM     34  C   UNL     1      -0.699  -1.429  -6.165  0.00  0.00    +0.001 A 
ATOM     35  C   UNL     1      -1.371  -0.248  -6.244  0.00  0.00    +0.008 A 
ENDBRANCH  24  26
ENDBRANCH  21  22
ENDBRANCH  20  21
ENDBRANCH  10  20
TORSDOF 6
