REMARK  Name = ZINC36544154
REMARK  7 active torsions:
REMARK  status: ('A' for Active; 'I' for Inactive)
REMARK    1  A    between atoms: C_5  and  N_7
REMARK    2  A    between atoms: N_7  and  C_8
REMARK    3  A    between atoms: C_8  and  C_10
REMARK    4  A    between atoms: C_8  and  C_17
REMARK    5  A    between atoms: C_13  and  O_16
REMARK    6  A    between atoms: N_19  and  C_20
REMARK    7  A    between atoms: C_26  and  C_28
REMARK                            x       y       z     vdW  Elec       q    Type
REMARK                         _______ _______ _______ _____ _____    ______ ____
ROOT
ATOM      1  C   UNL     1       1.402  -2.721  -1.099  0.00  0.00    +0.198 C 
ENDROOT
BRANCH   1   2
ATOM      2  C   UNL     1       0.108  -1.950  -1.066  0.00  0.00    -0.018 A 
ATOM      3  C   UNL     1       0.097  -0.638  -0.629  0.00  0.00    +0.009 A 
ATOM      4  C   UNL     1      -1.088   0.071  -0.598  0.00  0.00    +0.046 A 
ATOM      5  C   UNL     1      -2.268  -0.534  -1.007  0.00  0.00    +0.117 A 
ATOM      6  C   UNL     1      -2.254  -1.850  -1.445  0.00  0.00    +0.046 A 
ATOM      7  C   UNL     1      -1.065  -2.553  -1.479  0.00  0.00    +0.009 A 
BRANCH   5   8
ATOM      8  O   UNL     1      -3.435   0.162  -0.977  0.00  0.00    -0.507 OA
ATOM      9  H   UNL     1      -3.629   0.640  -1.794  0.00  0.00    +0.292 HD
ENDBRANCH   5   8
ENDBRANCH   1   2
BRANCH   1  10
ATOM     10  C   UNL     1       2.345  -2.080  -2.084  0.00  0.00    +0.239 C 
ATOM     11  O   UNL     1       3.218  -1.335  -1.692  0.00  0.00    -0.273 OA
ATOM     12  N   UNL     1       2.217  -2.333  -3.402  0.00  0.00    -0.311 N 
ATOM     13  H   UNL     1       1.519  -2.929  -3.716  0.00  0.00    +0.149 HD
BRANCH  12  14
ATOM     14  C   UNL     1       3.134  -1.710  -4.360  0.00  0.00    +0.073 C 
ATOM     15  C   UNL     1       2.617  -0.317  -4.727  0.00  0.00    +0.022 C 
ATOM     16  C   UNL     1       3.574   0.334  -5.728  0.00  0.00    +0.002 C 
ATOM     17  C   UNL     1       3.657  -0.529  -6.989  0.00  0.00    +0.000 C 
ATOM     18  C   UNL     1       4.174  -1.921  -6.622  0.00  0.00    +0.002 C 
ATOM     19  C   UNL     1       3.217  -2.572  -5.621  0.00  0.00    +0.022 C 
ENDBRANCH  12  14
ENDBRANCH   1  10
BRANCH   1  20
ATOM     20  N   UNL     1       2.010  -2.712   0.235  0.00  0.00    -0.250 N 
ATOM     21  C   UNL     1       3.138  -3.412   0.466  0.00  0.00    +0.252 C 
ATOM     22  O   UNL     1       3.700  -3.979  -0.451  0.00  0.00    -0.270 OA
BRANCH  20  27
ATOM     23  C   UNL     1      -0.320  -1.712   2.898  0.00  0.00    +0.002 A 
ATOM     24  C   UNL     1       0.248  -0.520   3.310  0.00  0.00    +0.002 A 
ATOM     25  C   UNL     1       1.400  -0.054   2.703  0.00  0.00    +0.022 A 
ATOM     26  C   UNL     1       1.987  -0.778   1.683  0.00  0.00    +0.062 A 
ATOM     27  C   UNL     1       1.419  -1.976   1.268  0.00  0.00    +0.056 A 
ATOM     28  C   UNL     1       0.262  -2.442   1.880  0.00  0.00    +0.025 A 
ATOM     29 CL   UNL     1       3.432  -0.192   0.921  0.00  0.00    -0.082 Cl
ENDBRANCH  20  27
BRANCH  21  30
ATOM     30  C   UNL     1       3.690  -3.492   1.835  0.00  0.00    +0.039 A 
ATOM     31  C   UNL     1       2.837  -3.658   2.927  0.00  0.00    +0.013 A 
ATOM     32  C   UNL     1       3.358  -3.731   4.202  0.00  0.00    +0.002 A 
ATOM     33  C   UNL     1       4.725  -3.641   4.400  0.00  0.00    +0.020 A 
ATOM     34  C   UNL     1       5.577  -3.476   3.322  0.00  0.00    +0.042 A 
ATOM     35  C   UNL     1       5.068  -3.407   2.040  0.00  0.00    +0.033 A 
ATOM     36 CL   UNL     1       7.290  -3.364   3.581  0.00  0.00    -0.084 Cl
ENDBRANCH  21  30
ENDBRANCH   1  20
TORSDOF 7
