REMARK  Name = ZINC20644424
REMARK  8 active torsions:
REMARK  status: ('A' for Active; 'I' for Inactive)
REMARK    1  A    between atoms: C_1  and  C_2
REMARK    2  A    between atoms: C_7  and  N_8
REMARK    3  A    between atoms: C_14  and  C_16
REMARK    4  A    between atoms: C_16  and  C_17
REMARK    5  A    between atoms: C_17  and  C_18
REMARK    6  A    between atoms: C_18  and  C_19
REMARK    7  A    between atoms: C_19  and  C_20
REMARK    8  A    between atoms: C_20  and  N_21
REMARK                            x       y       z     vdW  Elec       q    Type
REMARK                         _______ _______ _______ _____ _____    ______ ____
ROOT
ATOM      1  C   UNL     1       5.549  10.110   2.495  0.00  0.00    +0.002 C 
ENDROOT
BRANCH   1   2
ATOM      2  C   UNL     1       5.272   9.433   1.152  0.00  0.00    +0.009 C 
BRANCH   2   3
ATOM      3  C   UNL     1       4.808   7.994   1.391  0.00  0.00    +0.096 C 
BRANCH   3  10
ATOM      4  N   UNL     1       2.355   3.887   0.000  0.00  0.00    -0.327 N 
ATOM      5  C   UNL     1       2.513   4.661   1.239  0.00  0.00    +0.124 C 
ATOM      6  C   UNL     1       3.912   5.285   1.272  0.00  0.00    +0.126 C 
ATOM      7  N   UNL     1       4.113   6.048   0.031  0.00  0.00    -0.298 N 
ATOM      8  C   UNL     1       3.841   5.379  -1.250  0.00  0.00    +0.126 C 
ATOM      9  C   UNL     1       2.444   4.752  -1.184  0.00  0.00    +0.124 C 
ATOM     10  C   UNL     1       4.535   7.328   0.067  0.00  0.00    +0.216 C 
ATOM     11  O   UNL     1       4.696   7.943  -0.966  0.00  0.00    -0.276 OA
BRANCH   4  18
ATOM     12  C   UNL     1       2.490   1.046  -0.016  0.00  0.00    +0.045 C 
ATOM     13  C   UNL     1       1.175   1.782   0.000  0.00  0.00    -0.029 A 
ATOM     14  C   UNL     1      -0.013   1.076   0.008  0.00  0.00    +0.006 A 
ATOM     15  C   UNL     1      -1.220   1.750   0.017  0.00  0.00    +0.020 A 
ATOM     16  C   UNL     1      -1.243   3.134   0.030  0.00  0.00    +0.043 A 
ATOM     17  C   UNL     1      -0.058   3.846   0.022  0.00  0.00    +0.043 A 
ATOM     18  C   UNL     1       1.156   3.171   0.008  0.00  0.00    +0.034 A 
ATOM     19 CL   UNL     1      -2.761   3.976   0.048  0.00  0.00    -0.083 Cl
ENDBRANCH   4  18
ENDBRANCH   3  10
ENDBRANCH   2   3
ENDBRANCH   1   2
BRANCH   1  20
ATOM     20  C   UNL     1       6.012  11.548   2.256  0.00  0.00    +0.022 C 
BRANCH  20  21
ATOM     21  C   UNL     1       6.289  12.225   3.600  0.00  0.00    +0.127 C 
BRANCH  21  22
ATOM     22  N   UNL     1       6.733  13.602   3.371  0.00  0.00    -0.288 N 
ATOM     23  C   UNL     1       5.816  14.592   3.313  0.00  0.00    +0.262 A 
ATOM     24  O   UNL     1       4.631  14.352   3.448  0.00  0.00    -0.267 OA
ATOM     25  C   UNL     1       6.286  15.967   3.082  0.00  0.00    +0.067 A 
ATOM     26  C   UNL     1       5.399  17.042   3.010  0.00  0.00    +0.065 A 
ATOM     27  C   UNL     1       5.886  18.315   2.792  0.00  0.00    +0.167 A 
ATOM     28  C   UNL     1       7.260  18.527   2.644  0.00  0.00    +0.168 A 
ATOM     29  C   UNL     1       8.145  17.463   2.714  0.00  0.00    +0.076 A 
ATOM     30  C   UNL     1       7.668  16.182   2.933  0.00  0.00    +0.057 A 
ATOM     31  N   UNL     1       8.525  15.092   3.010  0.00  0.00    -0.334 N 
ATOM     32  H   UNL     1       9.609  15.235   2.892  0.00  0.00    +0.168 HD
ATOM     33  C   UNL     1       8.043  13.856   3.228  0.00  0.00    +0.161 A 
ATOM     34  S   UNL     1       9.146  12.550   3.321  0.00  0.00    -0.013 S 
ATOM     35  O   UNL     1       7.473  19.859   2.440  0.00  0.00    -0.453 OA
ATOM     36  C   UNL     1       6.266  20.514   2.874  0.00  0.00    +0.466 C 
ATOM     37  O   UNL     1       5.246  19.517   2.682  0.00  0.00    -0.453 OA
ENDBRANCH  21  22
ENDBRANCH  20  21
ENDBRANCH   1  20
TORSDOF 7
