REMARK  Name = ZINC64788669
REMARK  6 active torsions:
REMARK  status: ('A' for Active; 'I' for Inactive)
REMARK    1  A    between atoms: C_1  and  C_2
REMARK    2  A    between atoms: C_4  and  C_31
REMARK    3  A    between atoms: C_6  and  N_8
REMARK    4  A    between atoms: C_20  and  C_23
REMARK    5  A    between atoms: C_28  and  O_29
REMARK    6  A    between atoms: O_29  and  C_30
REMARK                            x       y       z     vdW  Elec       q    Type
REMARK                         _______ _______ _______ _____ _____    ______ ____
ROOT
ATOM      1  N   UNL     1       0.297  -2.025   2.320  0.00  0.00    -0.190 N 
ATOM      2  C   UNL     1       0.250  -1.489   3.557  0.00  0.00    +0.265 C 
ATOM      3  O   UNL     1       0.089  -0.293   3.714  0.00  0.00    -0.269 OA
ATOM      4  C   UNL     1       0.398  -2.391   4.712  0.00  0.00    +0.118 C 
ATOM      5  C   UNL     1       0.589  -3.824   4.425  0.00  0.00    +0.258 C 
ATOM      6  N   UNL     1       0.615  -4.218   3.135  0.00  0.00    -0.235 N 
ATOM      7  C   UNL     1       0.468  -3.341   2.132  0.00  0.00    +0.320 C 
ATOM      8  O   UNL     1       0.496  -3.761   0.992  0.00  0.00    -0.251 OA
ATOM      9  O   UNL     1       0.719  -4.630   5.327  0.00  0.00    -0.270 OA
ATOM     10  C   UNL     1       0.361  -1.914   6.009  0.00  0.00    +0.038 C 
ATOM     11  N   UNL     1       0.188  -0.630   6.376  0.00  0.00    -0.283 N 
ATOM     12  N   UNL     1       0.229  -0.454   7.728  0.00  0.00    -0.235 NA
ATOM     13  C   UNL     1       0.005  -1.772   8.365  0.00  0.00    +0.112 C 
ATOM     14  C   UNL     1       0.502  -2.745   7.272  0.00  0.00    +0.078 C 
ATOM     15  H   UNL     1       1.113  -0.059   8.014  0.00  0.00    +0.145 HD
ATOM     16  H   UNL     1       0.739  -5.157   2.929  0.00  0.00    +0.159 HD
ATOM     17  H   UNL     1       0.048   0.093   5.746  0.00  0.00    +0.166 HD
ENDROOT
BRANCH   1  23
ATOM     18  C   UNL     1       2.350   0.889  -1.069  0.00  0.00    +0.044 C 
ATOM     19  C   UNL     1       1.136   0.238  -0.457  0.00  0.00    -0.048 A 
ATOM     20  C   UNL     1      -0.116   0.468  -0.996  0.00  0.00    +0.006 A 
ATOM     21  C   UNL     1      -1.232  -0.128  -0.437  0.00  0.00    -0.048 A 
ATOM     22  C   UNL     1      -1.098  -0.954   0.661  0.00  0.00    +0.027 A 
ATOM     23  C   UNL     1       0.158  -1.187   1.205  0.00  0.00    +0.046 A 
ATOM     24  C   UNL     1       1.277  -0.592   0.638  0.00  0.00    +0.027 A 
ATOM     25  C   UNL     1      -2.595   0.126  -1.027  0.00  0.00    +0.044 C 
ENDBRANCH   1  23
BRANCH  13  26
ATOM     26  C   UNL     1       0.821  -1.907   9.625  0.00  0.00    +0.013 A 
ATOM     27  C   UNL     1       2.009  -1.215   9.756  0.00  0.00    +0.009 A 
ATOM     28  C   UNL     1       2.759  -1.339  10.912  0.00  0.00    +0.001 A 
ATOM     29  C   UNL     1       2.320  -2.155  11.938  0.00  0.00    +0.004 A 
ATOM     30  C   UNL     1       1.133  -2.849  11.812  0.00  0.00    +0.046 A 
ATOM     31  C   UNL     1       0.376  -2.722  10.656  0.00  0.00    +0.125 A 
BRANCH  31  32
ATOM     32  O   UNL     1      -0.796  -3.399  10.531  0.00  0.00    -0.495 OA
ATOM     33  C   UNL     1      -1.191  -4.219  11.633  0.00  0.00    +0.277 C 
ENDBRANCH  31  32
ENDBRANCH  13  26
TORSDOF 3
