REMARK  Name = ZINC04065352
REMARK  7 active torsions:
REMARK  status: ('A' for Active; 'I' for Inactive)
REMARK    1  A    between atoms: C_1  and  C_2
REMARK    2  A    between atoms: C_7  and  O_10
REMARK    3  A    between atoms: O_10  and  C_11
REMARK    4  A    between atoms: C_11  and  C_13
REMARK    5  A    between atoms: C_14  and  C_30
REMARK    6  A    between atoms: C_19  and  C_21
REMARK    7  A    between atoms: C_25  and  N_27
REMARK                            x       y       z     vdW  Elec       q    Type
REMARK                         _______ _______ _______ _____ _____    ______ ____
ROOT
ATOM      1  C   UNL     1      -0.025   1.700   2.400  0.00  0.00    +0.078 C 
ATOM      2  C   UNL     1      -0.722   1.557   1.252  0.00  0.00    +0.021 C 
ATOM      3  N   UNL     1      -2.050   1.866   1.191  0.00  0.00    -0.273 N 
ATOM      4  C   UNL     1      -2.757   2.314   2.236  0.00  0.00    +0.304 C 
ATOM      5  O   UNL     1      -3.939   2.558   2.087  0.00  0.00    -0.252 OA
ATOM      6  N   UNL     1      -2.200   2.508   3.448  0.00  0.00    -0.288 N 
ATOM      7  C   UNL     1      -0.768   2.209   3.618  0.00  0.00    +0.144 C 
ATOM      8  C   UNL     1      -0.021   1.053   0.017  0.00  0.00    +0.061 C 
ATOM      9  H   UNL     1      -2.509   1.751   0.344  0.00  0.00    +0.156 HD
ATOM     10  H   UNL     1      -2.730   2.837   4.191  0.00  0.00    +0.151 HD
ENDROOT
BRANCH   7  11
ATOM     11  C   UNL     1      -0.084   3.466   4.088  0.00  0.00    -0.020 A 
ATOM     12  C   UNL     1      -0.334   4.668   3.451  0.00  0.00    +0.009 A 
ATOM     13  C   UNL     1       0.293   5.822   3.880  0.00  0.00    +0.053 A 
ATOM     14  C   UNL     1       1.174   5.774   4.951  0.00  0.00    +0.209 A 
ATOM     15  C   UNL     1       1.423   4.568   5.588  0.00  0.00    +0.173 A 
ATOM     16  C   UNL     1       0.789   3.417   5.159  0.00  0.00    +0.042 A 
ATOM     17  O   UNL     1       1.792   6.908   5.375  0.00  0.00    -0.285 OA
BRANCH  15  18
ATOM     18  N   UNL     1       2.361   4.514   6.731  0.00  0.00    +0.060 N 
ATOM     19  O   UNL     1       2.580   3.454   7.290  0.00  0.00    -0.126 OA
ATOM     20  O   UNL     1       2.916   5.529   7.113  0.00  0.00    -0.126 OA
ENDBRANCH  15  18
ENDBRANCH   7  11
BRANCH   1  21
ATOM     21  C   UNL     1       1.353   1.384   2.463  0.00  0.00    +0.339 C 
ATOM     22  O   UNL     1       1.954   1.078   1.450  0.00  0.00    -0.245 OA
BRANCH  21  23
ATOM     23  O   UNL     1       2.000   1.423   3.646  0.00  0.00    -0.458 OA
BRANCH  23  29
ATOM     24  C   UNL     1       6.306   2.266   5.861  0.00  0.00    +0.007 C 
ATOM     25  C   UNL     1       5.593   1.503   4.743  0.00  0.00    -0.011 C 
ATOM     26  C   UNL     1       5.761  -0.002   4.964  0.00  0.00    +0.003 C 
ATOM     27  C   UNL     1       5.048  -0.765   3.847  0.00  0.00    +0.004 C 
ATOM     28  C   UNL     1       3.559  -0.411   3.857  0.00  0.00    +0.045 C 
ATOM     29  C   UNL     1       3.391   1.093   3.636  0.00  0.00    +0.177 C 
ATOM     30  C   UNL     1       4.104   1.856   4.754  0.00  0.00    +0.048 C 
ENDBRANCH  23  29
ENDBRANCH  21  23
ENDBRANCH   1  21
TORSDOF 5
