REMARK  Name = ZINC66443346
REMARK  7 active torsions:
REMARK  status: ('A' for Active; 'I' for Inactive)
REMARK    1  A    between atoms: C_1  and  C_2
REMARK    2  A    between atoms: C_15  and  C_17
REMARK    3  A    between atoms: C_17  and  C_18
REMARK    4  A    between atoms: C_18  and  C_19
REMARK    5  A    between atoms: N_21  and  C_22
REMARK    6  A    between atoms: C_22  and  C_23
REMARK    7  A    between atoms: C_23  and  C_28
REMARK                            x       y       z     vdW  Elec       q    Type
REMARK                         _______ _______ _______ _____ _____    ______ ____
ROOT
ATOM      1  C   UNL     1      -0.019   1.526   0.010  0.00  0.00    +0.008 C 
ATOM      2  C   UNL     1       0.002  -0.004   0.002  0.00  0.00    -0.009 C 
ATOM      3  C   UNL     1      -1.433  -0.537   0.021  0.00  0.00    +0.008 C 
ATOM      4  C   UNL     1      -1.430  -2.044  -0.237  0.00  0.00    +0.037 C 
ATOM      5  C   UNL     1      -0.472  -2.712   0.745  0.00  0.00    -0.023 A 
ATOM      6  C   UNL     1       0.476  -1.985   1.383  0.00  0.00    -0.004 A 
ATOM      7  S   UNL     1       1.343  -3.148   2.406  0.00  0.00    -0.073 S 
ATOM      8  C   UNL     1       0.437  -4.601   1.978  0.00  0.00    +0.116 A 
ATOM      9  C   UNL     1      -0.517  -4.131   1.048  0.00  0.00    +0.075 A 
ATOM     10  C   UNL     1      -1.426  -5.099   0.502  0.00  0.00    +0.260 A 
ATOM     11  O   UNL     1      -2.286  -4.796  -0.308  0.00  0.00    -0.267 OA
ATOM     12  N   UNL     1      -1.267  -6.369   0.944  0.00  0.00    -0.310 N 
ATOM     13  H   UNL     1      -1.860  -7.056   0.601  0.00  0.00    +0.170 HD
ATOM     14  C   UNL     1      -0.319  -6.726   1.843  0.00  0.00    +0.111 A 
ATOM     15  N   UNL     1       0.532  -5.869   2.365  0.00  0.00    -0.227 NA
ATOM     16  C   UNL     1       0.737  -0.516   1.249  0.00  0.00    +0.046 C 
ENDROOT
BRANCH  14  17
ATOM     17  C   UNL     1      -0.234  -8.170   2.263  0.00  0.00    +0.083 C 
BRANCH  17  18
ATOM     18  C   UNL     1       0.900  -8.341   3.276  0.00  0.00    +0.103 C 
BRANCH  18  19
ATOM     19  C   UNL     1       0.985  -9.786   3.697  0.00  0.00    +0.213 C 
ATOM     20  O   UNL     1       0.214 -10.599   3.232  0.00  0.00    -0.276 OA
ATOM     21  N   UNL     1       1.917 -10.174   4.589  0.00  0.00    -0.315 N 
ATOM     22  H   UNL     1       2.534  -9.524   4.961  0.00  0.00    +0.149 HD
BRANCH  21  23
ATOM     23  C   UNL     1       2.000 -11.578   4.998  0.00  0.00    +0.110 C 
BRANCH  23  24
ATOM     24  C   UNL     1       3.134 -11.749   6.011  0.00  0.00    -0.017 C 
ATOM     25  C   UNL     1       4.485 -11.393   5.357  0.00  0.00    +0.008 C 
ATOM     26  C   UNL     1       5.481 -12.410   5.965  0.00  0.00    +0.001 C 
ATOM     27  C   UNL     1       4.639 -13.708   6.046  0.00  0.00    +0.001 C 
ATOM     28  C   UNL     1       3.232 -13.220   6.450  0.00  0.00    +0.008 C 
ATOM     29  C   UNL     1       2.888 -10.855   7.228  0.00  0.00    +0.013 C 
ENDBRANCH  23  24
ENDBRANCH  21  23
ENDBRANCH  18  19
ENDBRANCH  17  18
ENDBRANCH  14  17
TORSDOF 5
