REMARK  Name = ZINC59365894
REMARK  8 active torsions:
REMARK  status: ('A' for Active; 'I' for Inactive)
REMARK    1  A    between atoms: C_1  and  C_2
REMARK    2  A    between atoms: C_4  and  N_16
REMARK    3  A    between atoms: C_7  and  N_8
REMARK    4  A    between atoms: C_9  and  C_11
REMARK    5  A    between atoms: N_16  and  C_17
REMARK    6  A    between atoms: C_17  and  N_19
REMARK    7  A    between atoms: C_20  and  C_22
REMARK    8  A    between atoms: C_25  and  N_28
REMARK                            x       y       z     vdW  Elec       q    Type
REMARK                         _______ _______ _______ _____ _____    ______ ____
ROOT
ATOM      1  N   UNL     1       0.033  -3.050  -2.035  0.00  0.00    -0.297 N 
ATOM      2  H   UNL     1      -0.557  -3.802  -2.201  0.00  0.00    +0.154 HD
ENDROOT
BRANCH   1   6
ATOM      3  C   UNL     1      -0.170   1.312   0.224  0.00  0.00    +0.046 C 
ATOM      4  C   UNL     1      -0.192  -0.195   0.271  0.00  0.00    -0.027 A 
ATOM      5  C   UNL     1      -0.070  -0.923  -0.896  0.00  0.00    +0.028 A 
ATOM      6  C   UNL     1      -0.090  -2.311  -0.852  0.00  0.00    +0.033 A 
ATOM      7  C   UNL     1      -0.232  -2.966   0.364  0.00  0.00    +0.025 A 
ATOM      8  C   UNL     1      -0.355  -2.237   1.530  0.00  0.00    +0.025 A 
ATOM      9  C   UNL     1      -0.329  -0.849   1.487  0.00  0.00    +0.037 A 
BRANCH   9  10
ATOM     10  N   UNL     1      -0.447  -0.110   2.671  0.00  0.00    -0.279 N 
ATOM     11  C   UNL     1      -1.127  -0.618   3.717  0.00  0.00    +0.284 C 
ATOM     12  O   UNL     1      -1.580  -1.746   3.659  0.00  0.00    -0.266 OA
ATOM     13  H   UNL     1      -0.040   0.768   2.737  0.00  0.00    +0.155 HD
BRANCH  11  14
ATOM     14  C   UNL     1      -1.321   0.188   4.927  0.00  0.00    +0.189 A 
ATOM     15  C   UNL     1      -1.981  -0.205   6.056  0.00  0.00    +0.054 A 
ATOM     16  C   UNL     1      -1.924   0.873   6.953  0.00  0.00    +0.042 A 
ATOM     17  C   UNL     1      -1.239   1.864   6.340  0.00  0.00    +0.196 A 
ATOM     18  O   UNL     1      -0.873   1.445   5.122  0.00  0.00    -0.458 OA
ENDBRANCH  11  14
ENDBRANCH   9  10
ENDBRANCH   1   6
BRANCH   1  19
ATOM     19  C   UNL     1       0.972  -2.717  -2.944  0.00  0.00    +0.141 C 
ATOM     20  S   UNL     1       1.944  -1.330  -2.700  0.00  0.00    -0.018 S 
BRANCH  19  21
ATOM     21  N   UNL     1       1.144  -3.477  -4.044  0.00  0.00    -0.264 N 
ATOM     22  C   UNL     1       2.082  -3.144  -4.952  0.00  0.00    +0.250 C 
ATOM     23  O   UNL     1       2.773  -2.159  -4.779  0.00  0.00    -0.270 OA
ATOM     24  H   UNL     1       0.593  -4.263  -4.182  0.00  0.00    +0.157 HD
BRANCH  22  25
ATOM     25  C   UNL     1       2.272  -3.976  -6.158  0.00  0.00    +0.037 A 
ATOM     26  C   UNL     1       1.476  -5.105  -6.363  0.00  0.00    +0.015 A 
ATOM     27  C   UNL     1       1.658  -5.877  -7.491  0.00  0.00    +0.033 A 
ATOM     28  C   UNL     1       2.625  -5.535  -8.419  0.00  0.00    +0.126 A 
ATOM     29  C   UNL     1       3.418  -4.418  -8.222  0.00  0.00    +0.033 A 
ATOM     30  C   UNL     1       3.243  -3.634  -7.101  0.00  0.00    +0.015 A 
BRANCH  28  31
ATOM     31  N   UNL     1       2.815  -6.369  -9.628  0.00  0.00    +0.056 N 
ATOM     32  O   UNL     1       2.124  -7.346  -9.802  0.00  0.00    -0.126 OA
ATOM     33  O   UNL     1       3.659  -6.073 -10.440  0.00  0.00    -0.126 OA
ENDBRANCH  28  31
ENDBRANCH  22  25
ENDBRANCH  19  21
ENDBRANCH   1  19
TORSDOF 7
