REMARK  Name = ZINC00146532
REMARK  6 active torsions:
REMARK  status: ('A' for Active; 'I' for Inactive)
REMARK    1  A    between atoms: C_1  and  C_2
REMARK    2  A    between atoms: C_6  and  C_8
REMARK    3  A    between atoms: N_10  and  N_11
REMARK    4  A    between atoms: C_12  and  C_14
REMARK    5  A    between atoms: C_15  and  C_16
REMARK    6  A    between atoms: C_20  and  N_22
REMARK                            x       y       z     vdW  Elec       q    Type
REMARK                         _______ _______ _______ _____ _____    ______ ____
ROOT
ATOM      1  N   UNL     1      -2.443   8.098   0.066  0.00  0.00    -0.231 N 
ATOM      2  C   UNL     1      -1.266   7.440   0.051  0.00  0.00    +0.253 C 
ATOM      3  O   UNL     1      -0.221   8.062   0.045  0.00  0.00    -0.269 OA
ATOM      4  H   UNL     1      -3.276   7.601   0.071  0.00  0.00    +0.173 HD
ENDROOT
BRANCH   1   7
ATOM      5  C   UNL     1      -3.638  10.156   0.087  0.00  0.00    +0.260 C 
ATOM      6  O   UNL     1      -4.682   9.534   0.094  0.00  0.00    -0.269 OA
ATOM      7  N   UNL     1      -2.462   9.498   0.073  0.00  0.00    -0.230 N 
ATOM      8  H   UNL     1      -1.628   9.995   0.068  0.00  0.00    +0.173 HD
BRANCH   5  14
ATOM      9  C   UNL     1      -6.199  14.439   0.134  0.00  0.00    +0.044 C 
ATOM     10  C   UNL     1      -4.886  13.698   0.117  0.00  0.00    -0.050 A 
ATOM     11  C   UNL     1      -3.696  14.404   0.110  0.00  0.00    +0.003 A 
ATOM     12  C   UNL     1      -2.486  13.731   0.096  0.00  0.00    +0.001 A 
ATOM     13  C   UNL     1      -2.461  12.352   0.093  0.00  0.00    +0.013 A 
ATOM     14  C   UNL     1      -3.658  11.635   0.095  0.00  0.00    +0.038 A 
ATOM     15  C   UNL     1      -4.874  12.319   0.110  0.00  0.00    +0.016 A 
ENDBRANCH   5  14
ENDBRANCH   1   7
BRANCH   2  16
ATOM     16  C   UNL     1      -1.247   5.976   0.044  0.00  0.00    +0.069 C 
ATOM     17  C   UNL     1      -0.070   5.317   0.029  0.00  0.00    +0.013 C 
BRANCH  17  18
ATOM     18  C   UNL     1      -0.050   3.846   0.022  0.00  0.00    -0.023 A 
ATOM     19  C   UNL     1      -1.250   3.126   0.030  0.00  0.00    +0.008 A 
ATOM     20  C   UNL     1      -1.223   1.748   0.017  0.00  0.00    +0.003 A 
ATOM     21  C   UNL     1      -0.013   1.076   0.008  0.00  0.00    +0.033 A 
ATOM     22  C   UNL     1       1.178   1.780   0.000  0.00  0.00    +0.127 A 
ATOM     23  C   UNL     1       1.168   3.159   0.007  0.00  0.00    +0.040 A 
BRANCH  22  24
ATOM     24  N   UNL     1       2.467   1.052  -0.015  0.00  0.00    +0.056 N 
ATOM     25  O   UNL     1       2.478  -0.166  -0.022  0.00  0.00    -0.126 OA
ATOM     26  O   UNL     1       3.516   1.671  -0.022  0.00  0.00    -0.126 OA
ENDBRANCH  22  24
ENDBRANCH  17  18
ENDBRANCH   2  16
TORSDOF 5
