REMARK  Name = ZINC66857262
REMARK  6 active torsions:
REMARK  status: ('A' for Active; 'I' for Inactive)
REMARK    1  A    between atoms: C_3  and  N_28
REMARK    2  A    between atoms: C_4  and  N_25
REMARK    3  A    between atoms: C_6  and  C_7
REMARK    4  A    between atoms: C_12  and  N_15
REMARK    5  A    between atoms: C_16  and  C_18
REMARK    6  A    between atoms: C_18  and  C_19
REMARK                            x       y       z     vdW  Elec       q    Type
REMARK                         _______ _______ _______ _____ _____    ______ ____
ROOT
ATOM      1  C   UNL     1      -1.362  -0.717  -0.225  0.00  0.00    +0.247 C 
ATOM      2  O   UNL     1      -0.357  -0.056  -0.405  0.00  0.00    -0.270 OA
ATOM      3  N   UNL     1      -2.559  -0.106  -0.117  0.00  0.00    -0.297 N 
ATOM      4  C   UNL     1      -2.655   1.360  -0.128  0.00  0.00    +0.110 C 
ATOM      5  C   UNL     1      -3.430   1.813   1.113  0.00  0.00    +0.041 C 
ATOM      6  C   UNL     1      -4.781   1.095   1.156  0.00  0.00    +0.076 C 
ATOM      7  C   UNL     1      -4.554  -0.416   1.252  0.00  0.00    +0.041 C 
ATOM      8  C   UNL     1      -3.793  -0.894   0.007  0.00  0.00    +0.110 C 
ENDROOT
BRANCH   1  14
ATOM      9  C   UNL     1      -2.173  -2.992  -0.824  0.00  0.00    +0.015 A 
ATOM     10  C   UNL     1      -2.086  -4.362  -0.729  0.00  0.00    +0.026 A 
ATOM     11  C   UNL     1      -1.102  -4.945   0.065  0.00  0.00    +0.055 A 
ATOM     12  C   UNL     1      -0.203  -4.144   0.764  0.00  0.00    +0.147 A 
ATOM     13  C   UNL     1      -0.284  -2.774   0.672  0.00  0.00    +0.047 A 
ATOM     14  C   UNL     1      -1.272  -2.186  -0.124  0.00  0.00    +0.039 A 
BRANCH  12  15
ATOM     15  N   UNL     1       0.842  -4.767   1.607  0.00  0.00    +0.058 N 
ATOM     16  O   UNL     1       1.148  -4.263   2.662  0.00  0.00    -0.126 OA
ATOM     17  O   UNL     1       1.389  -5.781   1.240  0.00  0.00    -0.126 OA
ENDBRANCH  12  15
BRANCH  11  18
ATOM     18  N   UNL     1      -1.016  -6.330   0.160  0.00  0.00    -0.356 N 
ATOM     19  H   UNL     1      -1.680  -6.887  -0.275  0.00  0.00    +0.142 HD
ATOM     20  H   UNL     1      -0.293  -6.738   0.661  0.00  0.00    +0.142 HD
ENDBRANCH  11  18
ENDBRANCH   1  14
BRANCH   6  21
ATOM     21  N   UNL     1      -5.538   1.550   2.325  0.00  0.00    -0.312 N 
ATOM     22  C   UNL     1      -6.884   1.477   2.325  0.00  0.00    +0.214 C 
ATOM     23  O   UNL     1      -7.468   1.035   1.359  0.00  0.00    -0.276 OA
ATOM     24  H   UNL     1      -5.071   1.903   3.098  0.00  0.00    +0.149 HD
BRANCH  22  25
ATOM     25  C   UNL     1      -7.663   1.945   3.527  0.00  0.00    +0.099 C 
BRANCH  25  26
ATOM     26  C   UNL     1      -9.160   1.755   3.270  0.00  0.00    -0.002 C 
ATOM     27  C   UNL     1      -9.600   2.666   2.123  0.00  0.00    +0.004 C 
ATOM     28  C   UNL     1     -11.096   2.476   1.866  0.00  0.00    +0.000 C 
ATOM     29  C   UNL     1     -11.880   2.834   3.130  0.00  0.00    +0.000 C 
ATOM     30  C   UNL     1     -11.440   1.923   4.278  0.00  0.00    +0.000 C 
ATOM     31  C   UNL     1      -9.944   2.113   4.535  0.00  0.00    +0.004 C 
ENDBRANCH  25  26
ENDBRANCH  22  25
ENDBRANCH   6  21
TORSDOF 6
