REMARK  Name = ZINC39752235
REMARK  6 active torsions:
REMARK  status: ('A' for Active; 'I' for Inactive)
REMARK    1  A    between atoms: C_1  and  C_2
REMARK    2  A    between atoms: C_2  and  C_4
REMARK    3  A    between atoms: C_2  and  S_17
REMARK    4  A    between atoms: N_6  and  C_7
REMARK    5  A    between atoms: S_17  and  C_18
REMARK    6  A    between atoms: C_22  and  C_24
REMARK                            x       y       z     vdW  Elec       q    Type
REMARK                         _______ _______ _______ _____ _____    ______ ____
ROOT
ATOM      1  S   UNL     1       1.051  -0.235  -1.423  0.00  0.00    -0.084 S 
ENDROOT
BRANCH   1   2
ATOM      2  C   UNL     1      -0.002   0.276  -2.809  0.00  0.00    +0.340 C 
ATOM      3  N   UNL     1      -0.346   1.704  -2.695  0.00  0.00    -0.219 N 
ATOM      4  N   UNL     1      -1.744   1.746  -2.586  0.00  0.00    -0.145 NA
ATOM      5  C   UNL     1      -2.235   0.536  -2.624  0.00  0.00    +0.238 C 
ATOM      6  O   UNL     1      -1.264  -0.405  -2.757  0.00  0.00    -0.443 OA
ATOM      7  H   UNL     1       0.266   2.456  -2.694  0.00  0.00    +0.173 HD
BRANCH   5   8
ATOM      8  C   UNL     1      -3.603   0.242  -2.538  0.00  0.00    +0.043 C 
ATOM      9  C   UNL     1      -4.654   1.151  -2.408  0.00  0.00    +0.008 A 
ATOM     10  C   UNL     1      -4.692   2.559  -2.325  0.00  0.00    +0.010 A 
ATOM     11  C   UNL     1      -5.886   3.194  -2.201  0.00  0.00    +0.001 A 
ATOM     12  C   UNL     1      -7.089   2.487  -2.152  0.00  0.00    +0.002 A 
ATOM     13  C   UNL     1      -7.127   1.133  -2.226  0.00  0.00    +0.026 A 
ATOM     14  C   UNL     1      -5.919   0.400  -2.357  0.00  0.00    +0.043 A 
ATOM     15  N   UNL     1      -5.691  -0.895  -2.448  0.00  0.00    -0.380 N 
ATOM     16  C   UNL     1      -4.249  -1.125  -2.574  0.00  0.00    +0.154 C 
ATOM     17  H   UNL     1      -6.371  -1.587  -2.436  0.00  0.00    +0.160 HD
ENDBRANCH   5   8
ENDBRANCH   1   2
BRANCH   1  19
ATOM     18  C   UNL     1      -0.148   1.657   0.147  0.00  0.00    +0.029 C 
ATOM     19  C   UNL     1       0.057   0.145   0.046  0.00  0.00    +0.134 C 
BRANCH  19  20
ATOM     20  C   UNL     1       0.772  -0.348   1.278  0.00  0.00    +0.230 C 
ATOM     21  O   UNL     1       1.978  -0.476   1.268  0.00  0.00    -0.274 OA
ATOM     22  N   UNL     1       0.071  -0.647   2.389  0.00  0.00    -0.284 N 
ATOM     23  H   UNL     1      -0.882  -0.473   2.423  0.00  0.00    +0.155 HD
BRANCH  22  24
ATOM     24  C   UNL     1       0.721  -1.210   3.496  0.00  0.00    +0.037 A 
ATOM     25  C   UNL     1       0.286  -0.913   4.781  0.00  0.00    +0.027 A 
ATOM     26  C   UNL     1       0.927  -1.466   5.873  0.00  0.00    +0.051 A 
ATOM     27  C   UNL     1       2.004  -2.320   5.690  0.00  0.00    +0.162 A 
ATOM     28  C   UNL     1       2.440  -2.621   4.405  0.00  0.00    +0.164 A 
ATOM     29  C   UNL     1       1.795  -2.068   3.309  0.00  0.00    +0.072 A 
ATOM     30  O   UNL     1       3.491  -3.462   4.205  0.00  0.00    -0.485 OA
ATOM     31  C   UNL     1       4.343  -3.707   5.329  0.00  0.00    +0.270 C 
ATOM     32  C   UNL     1       3.458  -3.995   6.549  0.00  0.00    +0.270 C 
ATOM     33  O   UNL     1       2.626  -2.853   6.778  0.00  0.00    -0.485 OA
ENDBRANCH  22  24
ENDBRANCH  19  20
ENDBRANCH   1  19
TORSDOF 5
