REMARK  Name = ZINC59250038
REMARK  10 active torsions:
REMARK  status: ('A' for Active; 'I' for Inactive)
REMARK    1  A    between atoms: C_1  and  C_2
REMARK    2  A    between atoms: C_2  and  O_3
REMARK    3  A    between atoms: O_3  and  C_4
REMARK    4  A    between atoms: C_6  and  C_14
REMARK    5  A    between atoms: C_8  and  C_11
REMARK    6  A    between atoms: C_9  and  O_10
REMARK    7  A    between atoms: C_11  and  C_12
REMARK    8  A    between atoms: N_15  and  N_16
REMARK    9  A    between atoms: C_17  and  C_19
REMARK   10  A    between atoms: C_22  and  O_26
REMARK                            x       y       z     vdW  Elec       q    Type
REMARK                         _______ _______ _______ _____ _____    ______ ____
ROOT
ATOM      1  C   UNL     1      -0.211  -4.964   0.448  0.00  0.00    +0.138 C 
ATOM      2  N   UNL     1      -0.812  -4.487   1.494  0.00  0.00    -0.187 NA
ENDROOT
BRANCH   1   5
ATOM      3  C   UNL     1       0.777  -1.811  -1.336  0.00  0.00    +0.163 A 
ATOM      4  C   UNL     1       0.244  -2.665  -0.389  0.00  0.00    +0.059 A 
ATOM      5  C   UNL     1       0.355  -4.048  -0.559  0.00  0.00    -0.002 A 
ATOM      6  C   UNL     1       1.003  -4.560  -1.686  0.00  0.00    +0.017 A 
ATOM      7  C   UNL     1       1.532  -3.701  -2.627  0.00  0.00    +0.002 A 
ATOM      8  C   UNL     1       1.417  -2.329  -2.460  0.00  0.00    +0.162 A 
BRANCH   8   9
ATOM      9  O   UNL     1       1.935  -1.487  -3.393  0.00  0.00    -0.503 OA
ATOM     10  H   UNL     1       2.854  -1.235  -3.229  0.00  0.00    +0.292 HD
ENDBRANCH   8   9
BRANCH   3  11
ATOM     11  O   UNL     1       0.671  -0.465  -1.174  0.00  0.00    -0.489 OA
BRANCH  11  13
ATOM     12  C   UNL     1      -0.019   1.526   0.010  0.00  0.00    +0.048 C 
ATOM     13  C   UNL     1       0.002  -0.004   0.002  0.00  0.00    +0.226 C 
ENDBRANCH  11  13
ENDBRANCH   3  11
BRANCH   7  14
ATOM     14  C   UNL     1       2.232  -4.255  -3.841  0.00  0.00    +0.065 C 
BRANCH  14  15
ATOM     15  C   UNL     1       3.715  -4.312  -3.584  0.00  0.00    -0.030 C 
ATOM     16  C   UNL     1       4.362  -5.442  -3.728  0.00  0.00    +0.004 C 
ENDBRANCH  14  15
ENDBRANCH   7  14
ENDBRANCH   1   5
BRANCH   2  17
ATOM     17  N   UNL     1      -1.350  -5.357   2.451  0.00  0.00    -0.203 N 
ATOM     18  C   UNL     1      -1.975  -4.862   3.538  0.00  0.00    +0.263 C 
ATOM     19  O   UNL     1      -2.072  -3.659   3.687  0.00  0.00    -0.268 OA
ATOM     20  H   UNL     1      -1.272  -6.317   2.332  0.00  0.00    +0.178 HD
BRANCH  18  21
ATOM     21  C   UNL     1      -2.541  -5.779   4.545  0.00  0.00    +0.041 A 
ATOM     22  C   UNL     1      -2.425  -7.161   4.378  0.00  0.00    +0.032 A 
ATOM     23  C   UNL     1      -2.955  -8.015   5.322  0.00  0.00    +0.061 A 
ATOM     24  C   UNL     1      -3.604  -7.502   6.439  0.00  0.00    +0.145 A 
ATOM     25  C   UNL     1      -3.721  -6.127   6.609  0.00  0.00    +0.061 A 
ATOM     26  C   UNL     1      -3.189  -5.267   5.673  0.00  0.00    +0.032 A 
ATOM     27 BR   UNL     1      -4.606  -5.435   8.131  0.00  0.00    -0.046 Br
ATOM     28 BR   UNL     1      -2.799  -9.886   5.096  0.00  0.00    -0.046 Br
BRANCH  24  29
ATOM     29  O   UNL     1      -4.125  -8.345   7.366  0.00  0.00    -0.505 OA
ATOM     30  H   UNL     1      -3.510  -8.579   8.075  0.00  0.00    +0.292 HD
ENDBRANCH  24  29
ENDBRANCH  18  21
ENDBRANCH   2  17
TORSDOF 9
