REMARK  Name = ZINC21084308
REMARK  9 active torsions:
REMARK  status: ('A' for Active; 'I' for Inactive)
REMARK    1  A    between atoms: C_1  and  C_2
REMARK    2  A    between atoms: C_5  and  N_8
REMARK    3  A    between atoms: N_8  and  S_9
REMARK    4  A    between atoms: S_9  and  C_12
REMARK    5  A    between atoms: C_15  and  N_18
REMARK    6  A    between atoms: C_19  and  C_21
REMARK    7  A    between atoms: C_21  and  S_22
REMARK    8  A    between atoms: S_22  and  C_23
REMARK    9  A    between atoms: N_28  and  N_29
REMARK                            x       y       z     vdW  Elec       q    Type
REMARK                         _______ _______ _______ _____ _____    ______ ____
ROOT
ATOM      1  N   UNL     1       7.931   6.283   0.850  0.00  0.00    -0.285 N 
ATOM      2  C   UNL     1       7.202   5.150   0.892  0.00  0.00    +0.227 C 
ATOM      3  O   UNL     1       7.736   4.079   0.699  0.00  0.00    -0.275 OA
ATOM      4  H   UNL     1       7.466   7.246   1.108  0.00  0.00    +0.155 HD
ENDROOT
BRANCH   1   8
ATOM      5  C   UNL     1      11.945   6.138  -0.257  0.00  0.00    +0.109 A 
ATOM      6  C   UNL     1      11.040   5.261  -0.827  0.00  0.00    +0.030 A 
ATOM      7  C   UNL     1       9.708   5.306  -0.462  0.00  0.00    +0.025 A 
ATOM      8  C   UNL     1       9.279   6.234   0.478  0.00  0.00    +0.034 A 
ATOM      9  C   UNL     1      10.189   7.118   1.043  0.00  0.00    +0.025 A 
ATOM     10  C   UNL     1      11.520   7.063   0.678  0.00  0.00    +0.030 A 
BRANCH   5  11
ATOM     11  S   UNL     1      13.642   6.076  -0.726  0.00  0.00    +0.072 S 
ATOM     12  O   UNL     1      14.370   6.745   0.296  0.00  0.00    -0.150 OA
ATOM     13  O   UNL     1      13.912   4.732  -1.098  0.00  0.00    -0.150 OA
BRANCH  11  14
ATOM     14  N   UNL     1      13.805   6.989  -2.098  0.00  0.00    -0.216 N 
ATOM     15  H   UNL     1      14.122   6.516  -3.039  0.00  0.00    +0.174 HD
BRANCH  14  20
ATOM     16  C   UNL     1      12.728  12.555  -1.945  0.00  0.00    +0.044 C 
ATOM     17  C   UNL     1      13.014  11.076  -1.986  0.00  0.00    -0.050 A 
ATOM     18  C   UNL     1      14.174  10.582  -1.417  0.00  0.00    +0.005 A 
ATOM     19  C   UNL     1      14.440   9.227  -1.453  0.00  0.00    +0.025 A 
ATOM     20  C   UNL     1      13.540   8.360  -2.060  0.00  0.00    +0.048 A 
ATOM     21  C   UNL     1      12.378   8.860  -2.634  0.00  0.00    +0.025 A 
ATOM     22  C   UNL     1      12.117  10.216  -2.591  0.00  0.00    +0.005 A 
ENDBRANCH  14  20
ENDBRANCH  11  14
ENDBRANCH   5  11
ENDBRANCH   1   8
BRANCH   2  23
ATOM     23  C   UNL     1       5.724   5.216   1.179  0.00  0.00    +0.173 C 
BRANCH  23  24
ATOM     24  S   UNL     1       5.031   3.539   1.168  0.00  0.00    -0.075 S 
BRANCH  24  25
ATOM     25  C   UNL     1       3.321   3.782   1.514  0.00  0.00    +0.211 A 
ATOM     26  N   UNL     1       2.374   2.802   1.611  0.00  0.00    -0.186 NA
ATOM     27  C   UNL     1       1.176   3.399   1.890  0.00  0.00    +0.232 A 
ATOM     28  N   UNL     1       1.373   4.693   1.958  0.00  0.00    -0.245 N 
ATOM     29  N   UNL     1       2.733   4.936   1.725  0.00  0.00    -0.144 NA
ATOM     30  N   UNL     1      -0.038   2.748   2.066  0.00  0.00    -0.205 N 
ATOM     31  H   UNL     1      -0.091   1.652   1.986  0.00  0.00    +0.177 HD
ATOM     32  H   UNL     1       0.531   5.367   2.169  0.00  0.00    +0.192 HD
BRANCH  30  33
ATOM     33  N   UNL     1      -1.195   3.487   2.344  0.00  0.00    -0.189 NA
ATOM     34  C   UNL     1      -2.329   2.898   2.419  0.00  0.00    +0.037 C 
ATOM     35  C   UNL     1      -2.426   1.390   2.337  0.00  0.00    +0.052 C 
ATOM     36  C   UNL     1      -3.251   0.894   3.535  0.00  0.00    +0.006 C 
ATOM     37  C   UNL     1      -4.601   1.613   3.552  0.00  0.00    +0.001 C 
ATOM     38  C   UNL     1      -4.389   3.112   3.768  0.00  0.00    +0.006 C 
ATOM     39  C   UNL     1      -3.606   3.691   2.584  0.00  0.00    +0.052 C 
ENDBRANCH  30  33
ENDBRANCH  24  25
ENDBRANCH  23  24
ENDBRANCH   2  23
TORSDOF 8
