REMARK  Name = ZINC38639618
REMARK  6 active torsions:
REMARK  status: ('A' for Active; 'I' for Inactive)
REMARK    1  A    between atoms: C_9  and  C_12
REMARK    2  A    between atoms: C_12  and  O_14
REMARK    3  A    between atoms: O_14  and  C_15
REMARK    4  A    between atoms: C_15  and  C_16
REMARK    5  A    between atoms: N_18  and  N_19
REMARK    6  A    between atoms: C_20  and  C_22
REMARK                            x       y       z     vdW  Elec       q    Type
REMARK                         _______ _______ _______ _____ _____    ______ ____
ROOT
ATOM      1  C   UNL     1      -0.971  -4.990  -0.113  0.00  0.00    +0.329 C 
ENDROOT
BRANCH   1   2
ATOM      2  C   UNL     1      -0.662  -6.459  -0.246  0.00  0.00    +0.267 C 
ATOM      3  O   UNL     1       0.488  -6.831  -0.343  0.00  0.00    -0.271 OA
ATOM      4  N   UNL     1      -1.665  -7.359  -0.256  0.00  0.00    -0.231 N 
ATOM      5  H   UNL     1      -2.585  -7.062  -0.179  0.00  0.00    +0.173 HD
BRANCH   4   6
ATOM      6  N   UNL     1      -1.379  -8.725  -0.380  0.00  0.00    -0.230 N 
ATOM      7  C   UNL     1      -2.381  -9.626  -0.391  0.00  0.00    +0.260 C 
ATOM      8  O   UNL     1      -3.534  -9.253  -0.293  0.00  0.00    -0.269 OA
ATOM      9  H   UNL     1      -0.459  -9.023  -0.458  0.00  0.00    +0.173 HD
BRANCH   7  10
ATOM     10  C   UNL     1      -2.079 -11.067  -0.521  0.00  0.00    +0.038 A 
ATOM     11  C   UNL     1      -0.755 -11.498  -0.627  0.00  0.00    +0.014 A 
ATOM     12  C   UNL     1      -0.479 -12.844  -0.749  0.00  0.00    +0.021 A 
ATOM     13  C   UNL     1      -1.512 -13.767  -0.766  0.00  0.00    +0.041 A 
ATOM     14  C   UNL     1      -2.827 -13.344  -0.661  0.00  0.00    +0.021 A 
ATOM     15  C   UNL     1      -3.115 -12.002  -0.532  0.00  0.00    +0.014 A 
ATOM     16 CL   UNL     1      -1.157 -15.459  -0.919  0.00  0.00    -0.084 Cl
ENDBRANCH   7  10
ENDBRANCH   4   6
ENDBRANCH   1   2
BRANCH   1  17
ATOM     17  O   UNL     1       0.248  -4.244  -0.127  0.00  0.00    -0.452 OA
BRANCH  17  18
ATOM     18  C   UNL     1       0.147  -2.904  -0.017  0.00  0.00    +0.337 C 
ATOM     19  O   UNL     1      -0.945  -2.384   0.089  0.00  0.00    -0.245 OA
BRANCH  18  28
ATOM     20  C   UNL     1       4.058  -4.590   0.003  0.00  0.00    +0.001 A 
ATOM     21  C   UNL     1       5.183  -3.755  -0.004  0.00  0.00    +0.002 A 
ATOM     22  C   UNL     1       5.091  -2.403  -0.017  0.00  0.00    +0.024 A 
ATOM     23  C   UNL     1       3.827  -1.772  -0.024  0.00  0.00    +0.041 A 
ATOM     24  N   UNL     1       3.744  -0.450  -0.037  0.00  0.00    -0.285 N 
ATOM     25  C   UNL     1       2.591   0.208  -0.044  0.00  0.00    +0.222 C 
ATOM     26  O   UNL     1       2.585   1.424  -0.057  0.00  0.00    -0.275 OA
ATOM     27  C   UNL     1       1.286  -0.555  -0.038  0.00  0.00    +0.139 C 
ATOM     28  C   UNL     1       1.365  -2.069  -0.024  0.00  0.00    +0.054 C 
ATOM     29  C   UNL     1       2.624  -2.632  -0.018  0.00  0.00    +0.007 A 
ATOM     30  C   UNL     1       2.800  -4.085  -0.004  0.00  0.00    +0.010 A 
ATOM     31  H   UNL     1       4.567   0.063  -0.041  0.00  0.00    +0.155 HD
ENDBRANCH  18  28
ENDBRANCH  17  18
ENDBRANCH   1  17
TORSDOF 6
