REMARK  Name = ZINC64155667
REMARK  9 active torsions:
REMARK  status: ('A' for Active; 'I' for Inactive)
REMARK    1  A    between atoms: C_1  and  C_2
REMARK    2  A    between atoms: C_5  and  S_8
REMARK    3  A    between atoms: S_8  and  N_11
REMARK    4  A    between atoms: C_18  and  C_20
REMARK    5  A    between atoms: C_22  and  C_31
REMARK    6  A    between atoms: C_24  and  C_27
REMARK    7  A    between atoms: C_25  and  C_26
REMARK    8  A    between atoms: C_27  and  O_29
REMARK    9  A    between atoms: O_29  and  C_30
REMARK                            x       y       z     vdW  Elec       q    Type
REMARK                         _______ _______ _______ _____ _____    ______ ____
ROOT
ATOM      1  N   UNL     1       1.741  -4.976   0.025  0.00  0.00    -0.175 NA
ATOM      2  C   UNL     1       2.374  -5.160  -1.250  0.00  0.00    +0.111 C 
ATOM      3  C   UNL     1       2.049  -6.581  -1.740  0.00  0.00    +0.036 C 
ATOM      4  C   UNL     1       2.882  -7.595  -1.074  0.00  0.00    +0.109 C 
ATOM      5  N   UNL     1       2.693  -7.532   0.395  0.00  0.00    -0.295 N 
ATOM      6  C   UNL     1       3.334  -6.499   1.159  0.00  0.00    +0.125 C 
ATOM      7  C   UNL     1       2.453  -5.230   1.307  0.00  0.00    +0.128 C 
ATOM      8  C   UNL     1       1.919  -8.445   1.014  0.00  0.00    +0.265 C 
ATOM      9  O   UNL     1       1.324  -9.279   0.361  0.00  0.00    -0.268 OA
ENDROOT
BRANCH   8  10
ATOM     10  C   UNL     1       1.792  -8.431   2.496  0.00  0.00    +0.124 C 
ATOM     11  N   UNL     1       2.288  -7.516   3.266  0.00  0.00    -0.271 NA
ATOM     12  C   UNL     1       1.954  -7.849   4.656  0.00  0.00    +0.140 C 
ATOM     13  C   UNL     1       1.164  -9.136   4.589  0.00  0.00    +0.066 C 
ATOM     14  C   UNL     1       1.083  -9.451   3.280  0.00  0.00    -0.008 C 
ATOM     15  C   UNL     1       0.380 -10.658   2.713  0.00  0.00    +0.047 C 
ATOM     16  C   UNL     1       1.105  -6.737   5.277  0.00  0.00    +0.038 C 
BRANCH  13  17
ATOM     17  C   UNL     1       0.596  -9.887   5.717  0.00  0.00    +0.337 C 
ATOM     18  O   UNL     1      -0.021 -10.914   5.515  0.00  0.00    -0.245 OA
BRANCH  17  19
ATOM     19  O   UNL     1       0.759  -9.436   6.977  0.00  0.00    -0.465 OA
ATOM     20  C   UNL     1       0.180 -10.216   8.026  0.00  0.00    +0.280 C 
ENDBRANCH  17  19
ENDBRANCH  13  17
ENDBRANCH   8  10
BRANCH   1  21
ATOM     21  S   UNL     1       0.168  -4.459   0.070  0.00  0.00    +0.061 S 
ATOM     22  O   UNL     1      -0.362  -4.882   1.319  0.00  0.00    -0.153 OA
ATOM     23  O   UNL     1      -0.417  -4.828  -1.171  0.00  0.00    -0.153 OA
BRANCH  21  28
ATOM     24  C   UNL     1       0.275   1.573   0.199  0.00  0.00    +0.044 C 
ATOM     25  C   UNL     1       0.249   0.066   0.167  0.00  0.00    -0.050 A 
ATOM     26  C   UNL     1       0.211  -0.599  -1.044  0.00  0.00    +0.005 A 
ATOM     27  C   UNL     1       0.187  -1.980  -1.074  0.00  0.00    +0.029 A 
ATOM     28  C   UNL     1       0.200  -2.697   0.108  0.00  0.00    +0.105 A 
ATOM     29  C   UNL     1       0.239  -2.033   1.319  0.00  0.00    +0.029 A 
ATOM     30  C   UNL     1       0.268  -0.651   1.349  0.00  0.00    +0.005 A 
ENDBRANCH  21  28
ENDBRANCH   1  21
TORSDOF 5
