REMARK  Name = ZINC12034666
REMARK  11 active torsions:
REMARK  status: ('A' for Active; 'I' for Inactive)
REMARK    1  A    between atoms: C_1  and  C_2
REMARK    2  A    between atoms: C_6  and  C_7
REMARK    3  A    between atoms: C_12  and  C_15
REMARK    4  A    between atoms: C_15  and  C_27
REMARK    5  A    between atoms: N_18  and  C_22
REMARK    6  A    between atoms: C_22  and  C_23
REMARK    7  A    between atoms: C_23  and  C_24
REMARK    8  A    between atoms: C_24  and  N_68
REMARK    9  A    between atoms: C_25  and  N_68
REMARK   10  A    between atoms: C_26  and  N_68
REMARK   11  A    between atoms: C_27  and  C_28
REMARK                            x       y       z     vdW  Elec       q    Type
REMARK                         _______ _______ _______ _____ _____    ______ ____
ROOT
ATOM      1  C   UNL     1       5.912  -3.539  -2.655  0.00  0.00    +0.119 C 
ATOM      2  C   UNL     1       5.741  -2.714  -3.914  0.00  0.00    +0.247 C 
ATOM      3  O   UNL     1       4.704  -2.284  -4.373  0.00  0.00    -0.273 OA
ATOM      4  N   UNL     1       6.986  -2.559  -4.416  0.00  0.00    -0.224 N 
ATOM      5  C   UNL     1       7.904  -3.168  -3.658  0.00  0.00    +0.309 C 
ATOM      6  O   UNL     1       9.094  -3.169  -3.907  0.00  0.00    -0.252 OA
ATOM      7  N   UNL     1       7.364  -3.778  -2.587  0.00  0.00    -0.284 N 
ATOM      8  H   UNL     1       7.838  -4.278  -1.905  0.00  0.00    +0.151 HD
ENDROOT
BRANCH   1  14
ATOM      9  C   UNL     1       3.561   0.619  -0.029  0.00  0.00    +0.282 C 
ATOM     10  O   UNL     1       2.351   0.645   0.104  0.00  0.00    -0.267 OA
ATOM     11  N   UNL     1       4.202  -0.561  -0.142  0.00  0.00    -0.295 N 
ATOM     12  C   UNL     1       3.445  -1.817  -0.246  0.00  0.00    +0.108 C 
ATOM     13  C   UNL     1       3.920  -2.571  -1.498  0.00  0.00    +0.025 C 
ATOM     14  C   UNL     1       5.438  -2.756  -1.429  0.00  0.00    +0.025 C 
ATOM     15  C   UNL     1       6.120  -1.386  -1.405  0.00  0.00    +0.025 C 
ATOM     16  C   UNL     1       5.670  -0.618  -0.158  0.00  0.00    +0.108 C 
BRANCH   9  22
ATOM     17  C   UNL     1       2.398   3.469   0.521  0.00  0.00    +0.048 C 
ATOM     18  C   UNL     1       3.822   3.121   0.174  0.00  0.00    -0.000 A 
ATOM     19  C   UNL     1       4.893   4.017   0.033  0.00  0.00    +0.045 A 
ATOM     20  C   UNL     1       5.985   3.286  -0.282  0.00  0.00    +0.196 A 
ATOM     21  O   UNL     1       5.636   1.994  -0.340  0.00  0.00    -0.458 OA
ATOM     22  C   UNL     1       4.321   1.873  -0.065  0.00  0.00    +0.192 A 
ENDBRANCH   9  22
ENDBRANCH   1  14
BRANCH   4  23
ATOM     23  C   UNL     1       7.291  -1.818  -5.643  0.00  0.00    +0.116 C 
BRANCH  23  24
ATOM     24  C   UNL     1       7.234  -2.768  -6.840  0.00  0.00    +0.001 C 
BRANCH  24  25
ATOM     25  C   UNL     1       7.553  -1.994  -8.121  0.00  0.00    -0.078 C 
BRANCH  25  28
ATOM     26  C   UNL     1       6.131  -3.396  -9.490  0.00  0.00    -0.097 C 
ATOM     27  C   UNL     1       8.027  -2.261 -10.480  0.00  0.00    -0.097 C 
ATOM     28  N   UNL     1       7.515  -2.929  -9.265  0.00  0.00    +0.376 N 
ATOM     29  H   UNL     1       8.110  -3.739  -9.054  0.00  0.00    -0.083 HD
ENDBRANCH  25  28
ENDBRANCH  24  25
ENDBRANCH  23  24
ENDBRANCH   4  23
BRANCH   1  30
ATOM     30  C   UNL     1       5.153  -4.863  -2.771  0.00  0.00    +0.070 C 
BRANCH  30  31
ATOM     31  C   UNL     1       5.722  -5.669  -3.911  0.00  0.00    -0.042 A 
ATOM     32  C   UNL     1       6.761  -6.551  -3.682  0.00  0.00    +0.004 A 
ATOM     33  C   UNL     1       7.284  -7.291  -4.727  0.00  0.00    +0.003 A 
ATOM     34  C   UNL     1       6.767  -7.149  -6.001  0.00  0.00    +0.038 A 
ATOM     35  C   UNL     1       5.726  -6.266  -6.231  0.00  0.00    +0.124 A 
ATOM     36  C   UNL     1       5.199  -5.530  -5.183  0.00  0.00    +0.042 A 
ATOM     37  F   UNL     1       5.219  -6.128  -7.476  0.00  0.00    -0.205 F 
ENDBRANCH  30  31
ENDBRANCH   1  30
TORSDOF 8
