REMARK  Name = ZINC13175317
REMARK  13 active torsions:
REMARK  status: ('A' for Active; 'I' for Inactive)
REMARK    1  A    between atoms: C_1  and  C_2
REMARK    2  A    between atoms: C_4  and  C_38
REMARK    3  A    between atoms: C_5  and  N_9
REMARK    4  A    between atoms: C_6  and  C_8
REMARK    5  A    between atoms: C_10  and  C_12
REMARK    6  A    between atoms: C_12  and  S_13
REMARK    7  A    between atoms: S_13  and  C_14
REMARK    8  A    between atoms: C_15  and  C_36
REMARK    9  A    between atoms: C_16  and  C_28
REMARK   10  A    between atoms: C_22  and  C_26
REMARK   11  A    between atoms: C_22  and  C_27
REMARK   12  A    between atoms: C_31  and  O_34
REMARK   13  A    between atoms: O_34  and  C_35
REMARK                            x       y       z     vdW  Elec       q    Type
REMARK                         _______ _______ _______ _____ _____    ______ ____
ROOT
ATOM      1  C   UNL     1      -0.738  -8.847   2.096  0.00  0.00    +0.080 C 
ATOM      2  C   UNL     1      -0.740  -9.721   3.138  0.00  0.00    +0.069 C 
ATOM      3  C   UNL     1      -1.000 -11.183   2.922  0.00  0.00    +0.097 C 
ATOM      4  C   UNL     1      -1.652 -11.428   1.585  0.00  0.00    +0.024 C 
ATOM      5  C   UNL     1      -1.616 -10.492   0.613  0.00  0.00    +0.016 C 
ATOM      6  N   UNL     1      -0.990  -9.295   0.820  0.00  0.00    -0.311 N 
ATOM      7  C   UNL     1      -2.272 -10.734  -0.724  0.00  0.00    +0.058 C 
ATOM      8  C   UNL     1      -2.234 -12.228  -1.053  0.00  0.00    -0.023 C 
ATOM      9  C   UNL     1      -2.951 -12.990   0.067  0.00  0.00    +0.086 C 
ATOM     10  C   UNL     1      -2.295 -12.661   1.380  0.00  0.00    +0.162 C 
ATOM     11  O   UNL     1      -2.322 -13.477   2.280  0.00  0.00    -0.292 OA
ATOM     12  C   UNL     1      -2.945 -12.480  -2.384  0.00  0.00    +0.011 C 
ATOM     13  C   UNL     1      -0.780 -12.697  -1.144  0.00  0.00    +0.011 C 
ATOM     14  H   UNL     1      -0.718  -8.758   0.059  0.00  0.00    +0.152 HD
ENDROOT
BRANCH   3  15
ATOM     15  C   UNL     1       0.307 -11.931   2.979  0.00  0.00    -0.034 A 
ATOM     16  C   UNL     1       1.316 -11.625   2.085  0.00  0.00    +0.008 A 
ATOM     17  C   UNL     1       2.515 -12.309   2.134  0.00  0.00    +0.046 A 
ATOM     18  C   UNL     1       2.706 -13.304   3.082  0.00  0.00    +0.120 A 
ATOM     19  C   UNL     1       1.692 -13.608   3.979  0.00  0.00    +0.046 A 
ATOM     20  C   UNL     1       0.497 -12.918   3.929  0.00  0.00    +0.008 A 
BRANCH  18  21
ATOM     21  O   UNL     1       3.885 -13.979   3.133  0.00  0.00    -0.495 OA
ATOM     22  C   UNL     1       4.011 -14.990   4.135  0.00  0.00    +0.277 C 
ENDBRANCH  18  21
ENDBRANCH   3  15
BRANCH   2  23
ATOM     23  C   UNL     1      -0.490  -9.238   4.463  0.00  0.00    +0.098 C 
ATOM     24  N   UNL     1      -0.292  -8.855   5.514  0.00  0.00    -0.191 NA
ENDBRANCH   2  23
BRANCH   1  25
ATOM     25  S   UNL     1      -0.418  -7.138   2.382  0.00  0.00    -0.100 S 
BRANCH  25  26
ATOM     26  C   UNL     1      -0.526  -6.390   0.733  0.00  0.00    +0.171 C 
BRANCH  26  28
ATOM     27  N   UNL     1      -0.299  -4.141  -0.272  0.00  0.00    -0.284 N 
ATOM     28  C   UNL     1      -0.270  -4.908   0.836  0.00  0.00    +0.227 C 
ATOM     29  O   UNL     1      -0.036  -4.407   1.915  0.00  0.00    -0.275 OA
ATOM     30  H   UNL     1      -0.421  -4.551  -1.143  0.00  0.00    +0.155 HD
BRANCH  27  35
ATOM     31  C   UNL     1       0.286   1.486   0.157  0.00  0.00    +0.044 C 
ATOM     32  C   UNL     1       0.130  -0.009   0.043  0.00  0.00    -0.050 A 
ATOM     33  C   UNL     1       1.121  -0.844   0.526  0.00  0.00    +0.008 A 
ATOM     34  C   UNL     1       0.982  -2.215   0.423  0.00  0.00    -0.029 A 
ATOM     35  C   UNL     1      -0.155  -2.753  -0.166  0.00  0.00    +0.039 A 
ATOM     36  C   UNL     1      -1.148  -1.911  -0.649  0.00  0.00    -0.029 A 
ATOM     37  C   UNL     1      -1.005  -0.542  -0.539  0.00  0.00    +0.008 A 
ATOM     38  C   UNL     1      -2.383  -2.491  -1.289  0.00  0.00    +0.045 C 
ATOM     39  C   UNL     1       2.062  -3.124   0.949  0.00  0.00    +0.045 C 
ENDBRANCH  27  35
ENDBRANCH  26  28
ENDBRANCH  25  26
ENDBRANCH   1  25
TORSDOF 7
