REMARK  Name = ZINC08743632
REMARK  9 active torsions:
REMARK  status: ('A' for Active; 'I' for Inactive)
REMARK    1  A    between atoms: C_1  and  C_2
REMARK    2  A    between atoms: C_6  and  C_9
REMARK    3  A    between atoms: C_10  and  C_11
REMARK    4  A    between atoms: C_10  and  N_56
REMARK    5  A    between atoms: C_11  and  O_12
REMARK    6  A    between atoms: O_12  and  C_13
REMARK    7  A    between atoms: C_16  and  C_20
REMARK    8  A    between atoms: C_17  and  O_19
REMARK    9  A    between atoms: C_21  and  C_26
REMARK                            x       y       z     vdW  Elec       q    Type
REMARK                         _______ _______ _______ _____ _____    ______ ____
ROOT
ATOM      1  C   UNL     1       1.099   4.688   4.091  0.00  0.00    +0.124 A 
ATOM      2  C   UNL     1       0.019   3.814   4.067  0.00  0.00    +0.046 A 
ATOM      3  C   UNL     1      -0.516   3.406   2.864  0.00  0.00    +0.017 A 
ATOM      4  C   UNL     1       0.034   3.864   1.665  0.00  0.00    +0.042 A 
ATOM      5  C   UNL     1       1.123   4.745   1.692  0.00  0.00    +0.129 A 
ATOM      6  C   UNL     1       1.649   5.152   2.905  0.00  0.00    +0.091 A 
ENDROOT
BRANCH   4   7
ATOM      7  C   UNL     1      -0.534   3.425   0.375  0.00  0.00    +0.077 A 
ATOM      8  C   UNL     1       0.096   2.637  -0.580  0.00  0.00    +0.027 A 
ATOM      9  C   UNL     1      -0.805   2.474  -1.647  0.00  0.00    +0.143 A 
ATOM     10  N   UNL     1      -1.910   3.108  -1.359  0.00  0.00    -0.181 NA
ATOM     11  N   UNL     1      -1.775   3.717  -0.106  0.00  0.00    -0.276 N 
ATOM     12  H   UNL     1      -2.469   4.270   0.356  0.00  0.00    +0.189 HD
BRANCH   8  13
ATOM     13  C   UNL     1       1.466   2.078  -0.493  0.00  0.00    -0.014 A 
ATOM     14  C   UNL     1       2.395   2.343  -1.498  0.00  0.00    +0.010 A 
ATOM     15  C   UNL     1       3.668   1.815  -1.415  0.00  0.00    +0.016 A 
ATOM     16  C   UNL     1       4.022   1.024  -0.336  0.00  0.00    +0.018 A 
ATOM     17  C   UNL     1       3.104   0.758   0.665  0.00  0.00    +0.016 A 
ATOM     18  C   UNL     1       1.829   1.281   0.592  0.00  0.00    +0.010 A 
ATOM     19 BR   UNL     1       5.768   0.305  -0.228  0.00  0.00    -0.050 Br
ENDBRANCH   8  13
ENDBRANCH   4   7
BRANCH   5  20
ATOM     20  O   UNL     1       1.660   5.199   0.530  0.00  0.00    -0.506 OA
ATOM     21  H   UNL     1       1.260   6.017   0.204  0.00  0.00    +0.292 HD
ENDBRANCH   5  20
BRANCH   1  22
ATOM     22  O   UNL     1       1.618   5.090   5.281  0.00  0.00    -0.494 OA
BRANCH  22  23
ATOM     23  C   UNL     1       1.004   4.574   6.464  0.00  0.00    +0.210 C 
BRANCH  23  24
ATOM     24  C   UNL     1       1.719   5.135   7.695  0.00  0.00    -0.037 C 
BRANCH  24  32
ATOM     25  C   UNL     1       3.367   9.391   9.538  0.00  0.00    +0.036 C 
ATOM     26  C   UNL     1       2.367   8.738   8.582  0.00  0.00    +0.099 C 
ATOM     27  C   UNL     1       2.553   7.218   8.606  0.00  0.00    -0.047 C 
ATOM     28  C   UNL     1       0.185   6.941   8.195  0.00  0.00    -0.047 C 
ATOM     29  C   UNL     1       0.023   8.463   8.175  0.00  0.00    +0.099 C 
ATOM     30  O   UNL     1       1.035   9.056   8.993  0.00  0.00    -0.378 OA
ATOM     31  C   UNL     1      -1.358   8.838   8.718  0.00  0.00    +0.036 C 
ATOM     32  N   UNL     1       1.543   6.603   7.720  0.00  0.00    +0.385 N 
ATOM     33  H   UNL     1       1.665   6.970   6.769  0.00  0.00    -0.081 HD
ENDBRANCH  24  32
ENDBRANCH  23  24
ENDBRANCH  22  23
ENDBRANCH   1  22
TORSDOF 7
