REMARK  Name = ZINC64093900
REMARK  10 active torsions:
REMARK  status: ('A' for Active; 'I' for Inactive)
REMARK    1  A    between atoms: C_1  and  C_2
REMARK    2  A    between atoms: C_2  and  C_3
REMARK    3  A    between atoms: C_2  and  N_4
REMARK    4  A    between atoms: C_5  and  C_7
REMARK    5  A    between atoms: N_9  and  C_28
REMARK    6  A    between atoms: C_11  and  C_14
REMARK    7  A    between atoms: N_16  and  C_17
REMARK    8  A    between atoms: C_17  and  C_18
REMARK    9  A    between atoms: C_18  and  C_19
REMARK   10  A    between atoms: C_28  and  C_29
REMARK                            x       y       z     vdW  Elec       q    Type
REMARK                         _______ _______ _______ _____ _____    ______ ____
ROOT
ATOM      1  C   UNL     1       0.732  -1.233   3.516  0.00  0.00    +0.100 A 
ATOM      2  C   UNL     1       0.050  -1.474   4.689  0.00  0.00    +0.103 A 
ATOM      3  N   UNL     1       0.664  -2.002   5.760  0.00  0.00    -0.347 N 
ATOM      4  C   UNL     1       1.966  -2.331   5.778  0.00  0.00    +0.103 A 
ATOM      5  C   UNL     1       2.769  -2.143   4.674  0.00  0.00    +0.100 A 
ATOM      6  C   UNL     1       2.163  -1.574   3.458  0.00  0.00    +0.206 A 
ATOM      7  O   UNL     1       2.821  -1.388   2.448  0.00  0.00    -0.286 OA
ENDROOT
BRANCH   1   9
ATOM      8  N   UNL     1       0.700  -0.528   1.177  0.00  0.00    -0.309 N 
ATOM      9  C   UNL     1       0.046  -0.653   2.349  0.00  0.00    +0.249 C 
ATOM     10  O   UNL     1      -1.110  -0.288   2.442  0.00  0.00    -0.270 OA
ATOM     11  H   UNL     1       1.642  -0.750   1.121  0.00  0.00    +0.149 HD
BRANCH   8  13
ATOM     12  C   UNL     1      -0.028   1.474  -0.025  0.00  0.00    +0.027 C 
ATOM     13  C   UNL     1      -0.013  -0.056  -0.013  0.00  0.00    +0.067 C 
ATOM     14  C   UNL     1       0.694  -0.570  -1.268  0.00  0.00    +0.027 C 
ENDBRANCH   8  13
ENDBRANCH   1   9
BRANCH   5  15
ATOM     15  C   UNL     1       4.196  -2.507   4.707  0.00  0.00    +0.249 C 
ATOM     16  O   UNL     1       4.656  -3.075   5.680  0.00  0.00    -0.270 OA
ATOM     17  N   UNL     1       4.991  -2.212   3.661  0.00  0.00    -0.311 N 
ATOM     18  H   UNL     1       4.611  -1.827   2.856  0.00  0.00    +0.149 HD
BRANCH  17  19
ATOM     19  C   UNL     1       6.431  -2.473   3.738  0.00  0.00    +0.108 C 
BRANCH  19  20
ATOM     20  C   UNL     1       7.097  -2.051   2.427  0.00  0.00    +0.065 C 
BRANCH  20  21
ATOM     21  C   UNL     1       8.600  -2.323   2.508  0.00  0.00    +0.175 C 
ATOM     22  N   UNL     1       9.204  -1.508   3.569  0.00  0.00    -0.363 N 
ATOM     23  C   UNL     1      10.090  -0.735   3.011  0.00  0.00    +0.060 A 
ATOM     24  C   UNL     1      11.004   0.284   3.545  0.00  0.00    +0.027 A 
ATOM     25  C   UNL     1      11.831   0.942   2.707  0.00  0.00    +0.002 A 
ATOM     26  C   UNL     1      11.860   0.694   1.323  0.00  0.00    +0.002 A 
ATOM     27  C   UNL     1      11.064  -0.219   0.731  0.00  0.00    +0.027 A 
ATOM     28  C   UNL     1      10.121  -0.997   1.547  0.00  0.00    +0.060 A 
ATOM     29  N   UNL     1       9.253  -1.922   1.255  0.00  0.00    -0.363 N 
ATOM     30  H   UNL     1       8.983  -1.539   4.513  0.00  0.00    +0.162 HD
ATOM     31  H   UNL     1       9.071  -2.281   0.373  0.00  0.00    +0.162 HD
ENDBRANCH  20  21
ENDBRANCH  19  20
ENDBRANCH  17  19
ENDBRANCH   5  15
BRANCH   3  32
ATOM     32  C   UNL     1      -0.127  -2.230   6.973  0.00  0.00    +0.156 C 
BRANCH  32  33
ATOM     33  C   UNL     1      -0.723  -3.614   6.931  0.00  0.00    -0.028 A 
ATOM     34  C   UNL     1      -1.963  -3.815   6.356  0.00  0.00    +0.005 A 
ATOM     35  C   UNL     1      -2.509  -5.085   6.318  0.00  0.00    +0.000 A 
ATOM     36  C   UNL     1      -1.815  -6.152   6.855  0.00  0.00    +0.000 A 
ATOM     37  C   UNL     1      -0.574  -5.951   7.429  0.00  0.00    +0.000 A 
ATOM     38  C   UNL     1      -0.025  -4.682   7.463  0.00  0.00    +0.005 A 
ENDBRANCH  32  33
ENDBRANCH   3  32
TORSDOF 8
