REMARK  Name = ZINC39684205
REMARK  8 active torsions:
REMARK  status: ('A' for Active; 'I' for Inactive)
REMARK    1  A    between atoms: C_1  and  C_2
REMARK    2  A    between atoms: C_7  and  C_11
REMARK    3  A    between atoms: C_11  and  C_12
REMARK    4  A    between atoms: C_12  and  N_13
REMARK    5  A    between atoms: C_14  and  C_16
REMARK    6  A    between atoms: C_27  and  C_29
REMARK    7  A    between atoms: C_32  and  C_40
REMARK    8  A    between atoms: C_34  and  C_36
REMARK                            x       y       z     vdW  Elec       q    Type
REMARK                         _______ _______ _______ _____ _____    ______ ____
ROOT
ATOM      1  C   UNL     1      -8.754   2.315  -7.361  0.00  0.00    +0.100 C 
ATOM      2  C   UNL     1      -9.703   2.591  -6.173  0.00  0.00    +0.121 C 
ATOM      3  N   UNL     1     -10.959   1.889  -6.527  0.00  0.00    -0.300 N 
ATOM      4  C   UNL     1     -10.510   0.622  -7.152  0.00  0.00    +0.115 C 
ATOM      5  C   UNL     1      -9.286   1.021  -8.000  0.00  0.00    -0.004 C 
ATOM      6  C   UNL     1      -8.224  -0.073  -7.941  0.00  0.00    -0.010 C 
ATOM      7  C   UNL     1      -8.755  -1.331  -8.634  0.00  0.00    -0.082 C 
ATOM      8  N   UNL     1      -9.089  -1.019 -10.029  0.00  0.00    +0.379 N 
ATOM      9  C   UNL     1     -10.176  -0.034 -10.076  0.00  0.00    -0.082 C 
ATOM     10  C   UNL     1      -9.705   1.279  -9.444  0.00  0.00    -0.010 C 
ATOM     11  C   UNL     1     -12.225   2.308  -6.327  0.00  0.00    +0.226 C 
ATOM     12  O   UNL     1     -13.156   1.613  -6.676  0.00  0.00    -0.275 OA
ATOM     13  H   UNL     1      -8.275  -0.643 -10.492  0.00  0.00    -0.086 HD
ATOM     14  H   UNL     1      -9.380  -1.863 -10.500  0.00  0.00    -0.086 HD
ENDROOT
BRANCH  11  15
ATOM     15  C   UNL     1     -12.482   3.640  -5.671  0.00  0.00    +0.150 C 
ATOM     16  C   UNL     1     -13.707   3.577  -4.774  0.00  0.00    +0.030 C 
ATOM     17  C   UNL     1     -14.696   4.159  -5.418  0.00  0.00    +0.092 C 
ATOM     18  O   UNL     1     -14.350   4.614  -6.643  0.00  0.00    -0.484 OA
ATOM     19  C   UNL     1     -12.913   4.699  -6.716  0.00  0.00    +0.292 C 
ATOM     20  C   UNL     1     -16.082   4.303  -4.844  0.00  0.00    +0.085 C 
BRANCH  19  21
ATOM     21  C   UNL     1     -12.411   4.326  -8.113  0.00  0.00    +0.427 C 
ATOM     22  F   UNL     1     -13.044   3.153  -8.537  0.00  0.00    -0.167 F 
ATOM     23  F   UNL     1     -12.703   5.362  -9.005  0.00  0.00    -0.167 F 
ATOM     24  F   UNL     1     -11.028   4.120  -8.072  0.00  0.00    -0.167 F 
ENDBRANCH  19  21
ENDBRANCH  11  15
BRANCH   1  26
ATOM     25  N   UNL     1      -6.302   2.429  -7.665  0.00  0.00    -0.315 N 
ATOM     26  C   UNL     1      -7.343   2.116  -6.869  0.00  0.00    +0.218 C 
ATOM     27  O   UNL     1      -7.145   1.673  -5.758  0.00  0.00    -0.275 OA
ATOM     28  H   UNL     1      -6.460   2.783  -8.554  0.00  0.00    +0.149 HD
BRANCH  25  29
ATOM     29  C   UNL     1      -4.931   2.236  -7.187  0.00  0.00    +0.109 C 
BRANCH  29  30
ATOM     30  C   UNL     1      -3.946   2.666  -8.276  0.00  0.00    +0.056 C 
BRANCH  30  37
ATOM     31  C   UNL     1       1.802   0.822  -6.578  0.00  0.00    +0.046 C 
ATOM     32  C   UNL     1       0.457   0.523  -7.188  0.00  0.00    -0.027 A 
ATOM     33  C   UNL     1       0.178  -0.739  -7.664  0.00  0.00    +0.005 A 
ATOM     34  C   UNL     1      -1.057  -1.026  -8.229  0.00  0.00    +0.001 A 
ATOM     35  C   UNL     1      -2.019  -0.060  -8.321  0.00  0.00    +0.010 A 
ATOM     36  C   UNL     1      -1.758   1.226  -7.845  0.00  0.00    +0.003 A 
ATOM     37  C   UNL     1      -2.535   2.466  -7.785  0.00  0.00    -0.021 A 
ATOM     38  C   UNL     1      -1.752   3.393  -7.210  0.00  0.00    +0.087 A 
ATOM     39  N   UNL     1      -0.537   2.846  -6.896  0.00  0.00    -0.360 N 
ATOM     40  C   UNL     1      -0.510   1.520  -7.267  0.00  0.00    +0.050 A 
ATOM     41  H   UNL     1       0.195   3.322  -6.473  0.00  0.00    +0.165 HD
ENDBRANCH  30  37
ENDBRANCH  29  30
ENDBRANCH  25  29
ENDBRANCH   1  26
TORSDOF 6
