REMARK  Name = ZINC66640752
REMARK  16 active torsions:
REMARK  status: ('A' for Active; 'I' for Inactive)
REMARK    1  A    between atoms: C_1  and  C_2
REMARK    2  A    between atoms: C_2  and  C_3
REMARK    3  A    between atoms: C_3  and  C_5
REMARK    4  A    between atoms: C_3  and  C_6
REMARK    5  A    between atoms: C_6  and  C_8
REMARK    6  A    between atoms: C_6  and  N_21
REMARK    7  A    between atoms: N_10  and  C_11
REMARK    8  A    between atoms: C_11  and  C_12
REMARK    9  A    between atoms: N_16  and  C_17
REMARK   10  A    between atoms: C_17  and  C_18
REMARK   11  A    between atoms: C_17  and  C_19
REMARK   12  A    between atoms: C_22  and  O_24
REMARK   13  A    between atoms: O_24  and  C_25
REMARK   14  A    between atoms: C_25  and  C_26
REMARK   15  A    between atoms: C_25  and  C_27
REMARK   16  A    between atoms: C_25  and  C_28
REMARK                            x       y       z     vdW  Elec       q    Type
REMARK                         _______ _______ _______ _____ _____    ______ ____
ROOT
ATOM      1  C   UNL     1       1.645  -2.416   0.013  0.00  0.00    +0.234 C 
ATOM      2  O   UNL     1       1.147  -3.130   0.857  0.00  0.00    -0.274 OA
ATOM      3  N   UNL     1       2.909  -1.975   0.164  0.00  0.00    -0.307 N 
ATOM      4  H   UNL     1       3.308  -1.403  -0.511  0.00  0.00    +0.149 HD
ENDROOT
BRANCH   1   5
ATOM      5  C   UNL     1       0.849  -2.021  -1.205  0.00  0.00    +0.165 C 
BRANCH   5   6
ATOM      6  N   UNL     1      -0.484  -2.624  -1.134  0.00  0.00    -0.270 N 
ATOM      7  C   UNL     1      -1.182  -2.851  -2.264  0.00  0.00    +0.401 C 
ATOM      8  O   UNL     1      -0.705  -2.557  -3.342  0.00  0.00    -0.226 OA
ATOM      9  H   UNL     1      -0.865  -2.859  -0.273  0.00  0.00    +0.153 HD
BRANCH   7  10
ATOM     10  O   UNL     1      -2.407  -3.405  -2.199  0.00  0.00    -0.445 OA
BRANCH  10  11
ATOM     11  C   UNL     1      -3.090  -3.618  -3.436  0.00  0.00    +0.107 C 
ATOM     12  C   UNL     1      -2.263  -4.553  -4.320  0.00  0.00    +0.055 C 
ATOM     13  C   UNL     1      -4.456  -4.251  -3.162  0.00  0.00    +0.055 C 
ATOM     14  C   UNL     1      -3.282  -2.279  -4.149  0.00  0.00    +0.055 C 
ENDBRANCH  10  11
ENDBRANCH   7  10
ENDBRANCH   5   6
BRANCH   5  15
ATOM     15  C   UNL     1       0.718  -0.497  -1.257  0.00  0.00    +0.015 C 
ATOM     16  C   UNL     1      -0.089  -0.097  -2.493  0.00  0.00    +0.010 C 
BRANCH  15  18
ATOM     17  C   UNL     1      -0.019   1.526   0.010  0.00  0.00    +0.004 C 
ATOM     18  C   UNL     1       0.002  -0.004   0.002  0.00  0.00    +0.002 C 
ENDBRANCH  15  18
ENDBRANCH   5  15
ENDBRANCH   1   5
BRANCH   3  19
ATOM     19  C   UNL     1       3.682  -2.358   1.347  0.00  0.00    +0.180 C 
BRANCH  19  20
ATOM     20  C   UNL     1       5.054  -1.738   1.274  0.00  0.00    +0.149 A 
ATOM     21  N   UNL     1       5.487  -0.979   0.320  0.00  0.00    -0.157 NA
ATOM     22  N   UNL     1       6.805  -0.608   0.622  0.00  0.00    -0.254 N 
ATOM     23  C   UNL     1       7.125  -1.187   1.798  0.00  0.00    +0.176 A 
ATOM     24  N   UNL     1       6.047  -1.882   2.212  0.00  0.00    -0.303 N 
ATOM     25  S   UNL     1       8.622  -1.055   2.618  0.00  0.00    -0.011 S 
ATOM     26  H   UNL     1       7.380  -0.042   0.084  0.00  0.00    +0.191 HD
BRANCH  24  27
ATOM     27  C   UNL     1       5.952  -2.662   3.449  0.00  0.00    +0.085 C 
ATOM     28  C   UNL     1       7.019  -3.758   3.444  0.00  0.00    +0.030 C 
ATOM     29  C   UNL     1       6.173  -1.740   4.650  0.00  0.00    +0.030 C 
ENDBRANCH  24  27
ENDBRANCH  19  20
ENDBRANCH   3  19
TORSDOF 9
