REMARK  Name = ZINC23196940
REMARK  15 active torsions:
REMARK  status: ('A' for Active; 'I' for Inactive)
REMARK    1  A    between atoms: C_1  and  C_2
REMARK    2  A    between atoms: C_2  and  N_3
REMARK    3  A    between atoms: N_3  and  C_4
REMARK    4  A    between atoms: N_3  and  C_6
REMARK    5  A    between atoms: C_4  and  C_5
REMARK    6  A    between atoms: C_6  and  C_8
REMARK    7  A    between atoms: C_6  and  C_15
REMARK    8  A    between atoms: C_8  and  C_9
REMARK    9  A    between atoms: C_15  and  N_16
REMARK   10  A    between atoms: C_17  and  C_19
REMARK   11  A    between atoms: C_19  and  N_20
REMARK   12  A    between atoms: C_23  and  C_27
REMARK   13  A    between atoms: C_23  and  C_28
REMARK   14  A    between atoms: C_31  and  O_34
REMARK   15  A    between atoms: O_34  and  C_35
REMARK                            x       y       z     vdW  Elec       q    Type
REMARK                         _______ _______ _______ _____ _____    ______ ____
ROOT
ATOM      1  N   UNL     1       5.098   4.656  -2.340  0.00  0.00    -0.316 N 
ATOM      2  C   UNL     1       6.348   5.128  -2.167  0.00  0.00    +0.231 C 
ATOM      3  O   UNL     1       6.663   5.640  -1.114  0.00  0.00    -0.274 OA
ATOM      4  H   UNL     1       4.813   4.191  -3.295  0.00  0.00    +0.149 HD
ENDROOT
BRANCH   1   5
ATOM      5  C   UNL     1       4.119   4.762  -1.256  0.00  0.00    +0.089 C 
BRANCH   5   6
ATOM      6  C   UNL     1       2.848   4.002  -1.640  0.00  0.00    -0.047 C 
BRANCH   6   7
ATOM      7  N   UNL     1       3.169   2.584  -1.849  0.00  0.00    +0.382 N 
ATOM      8  H   UNL     1       2.304   1.989  -1.522  0.00  0.00    -0.081 HD
BRANCH   7  10
ATOM      9  C   UNL     1       2.062   2.294  -4.014  0.00  0.00    -0.017 C 
ATOM     10  C   UNL     1       3.400   2.300  -3.272  0.00  0.00    -0.082 C 
ENDBRANCH   7  10
BRANCH   7  11
ATOM     11  C   UNL     1       4.326   2.181  -1.038  0.00  0.00    -0.082 C 
ATOM     12  C   UNL     1       3.913   2.100   0.433  0.00  0.00    -0.017 C 
ENDBRANCH   7  11
ENDBRANCH   6   7
BRANCH   6  13
ATOM     13  C   UNL     1       1.817   4.131  -0.517  0.00  0.00    +0.021 C 
BRANCH  13  14
ATOM     14  C   UNL     1       0.521   3.494  -0.949  0.00  0.00    -0.049 A 
ATOM     15  C   UNL     1       0.321   2.139  -0.761  0.00  0.00    +0.003 A 
ATOM     16  C   UNL     1      -0.868   1.554  -1.157  0.00  0.00    +0.000 A 
ATOM     17  C   UNL     1      -1.854   2.324  -1.746  0.00  0.00    +0.000 A 
ATOM     18  C   UNL     1      -1.655   3.679  -1.929  0.00  0.00    +0.000 A 
ATOM     19  C   UNL     1      -0.467   4.264  -1.533  0.00  0.00    +0.003 A 
ENDBRANCH  13  14
ENDBRANCH   6  13
ENDBRANCH   5   6
ENDBRANCH   1   5
BRANCH   2  20
ATOM     20  C   UNL     1       7.356   5.019  -3.283  0.00  0.00    +0.213 C 
BRANCH  20  21
ATOM     21  N   UNL     1       8.629   5.600  -2.849  0.00  0.00    -0.215 N 
ATOM     22  C   UNL     1       9.609   4.905  -2.238  0.00  0.00    +0.251 C 
ATOM     23  O   UNL     1       9.603   3.727  -1.952  0.00  0.00    -0.272 OA
ATOM     24  C   UNL     1      10.720   5.904  -1.981  0.00  0.00    +0.135 C 
ATOM     25  N   UNL     1      10.187   7.163  -2.529  0.00  0.00    -0.281 N 
ATOM     26  C   UNL     1       8.965   6.884  -3.017  0.00  0.00    +0.310 C 
ATOM     27  O   UNL     1       8.245   7.707  -3.549  0.00  0.00    -0.252 OA
ATOM     28  C   UNL     1      10.985   6.040  -0.480  0.00  0.00    +0.047 C 
ATOM     29  H   UNL     1      10.788   8.083  -2.478  0.00  0.00    +0.152 HD
BRANCH  24  30
ATOM     30  C   UNL     1      11.976   5.499  -2.708  0.00  0.00    -0.015 A 
ATOM     31  C   UNL     1      12.241   4.161  -2.935  0.00  0.00    +0.010 A 
ATOM     32  C   UNL     1      13.389   3.787  -3.606  0.00  0.00    +0.046 A 
ATOM     33  C   UNL     1      14.282   4.755  -4.043  0.00  0.00    +0.120 A 
ATOM     34  C   UNL     1      14.016   6.096  -3.809  0.00  0.00    +0.046 A 
ATOM     35  C   UNL     1      12.864   6.465  -3.142  0.00  0.00    +0.010 A 
BRANCH  33  36
ATOM     36  O   UNL     1      15.415   4.389  -4.698  0.00  0.00    -0.495 OA
ATOM     37  C   UNL     1      15.623   2.990  -4.903  0.00  0.00    +0.277 C 
ENDBRANCH  33  36
ENDBRANCH  24  30
ENDBRANCH  20  21
ENDBRANCH   2  20
TORSDOF 11
