REMARK  Name = ZINC09012628
REMARK  8 active torsions:
REMARK  status: ('A' for Active; 'I' for Inactive)
REMARK    1  A    between atoms: C_1  and  C_2
REMARK    2  A    between atoms: C_5  and  C_8
REMARK    3  A    between atoms: C_8  and  C_10
REMARK    4  A    between atoms: C_10  and  S_11
REMARK    5  A    between atoms: S_11  and  C_12
REMARK    6  A    between atoms: C_15  and  C_18
REMARK    7  A    between atoms: N_16  and  N_17
REMARK    8  A    between atoms: C_20  and  C_24
REMARK                            x       y       z     vdW  Elec       q    Type
REMARK                         _______ _______ _______ _____ _____    ______ ____
ROOT
ATOM      1  C   UNL     1       0.114  -7.527   2.537  0.00  0.00    +0.209 A 
ATOM      2  N   UNL     1       0.106  -6.895   3.689  0.00  0.00    -0.120 NA
ATOM      3  N   UNL     1       0.123  -7.741   4.657  0.00  0.00    -0.125 NA
ATOM      4  C   UNL     1       0.144  -8.964   4.183  0.00  0.00    +0.202 A 
ATOM      5  N   UNL     1       0.132  -8.866   2.811  0.00  0.00    -0.222 N 
ENDROOT
BRANCH   4   6
ATOM      6  C   UNL     1       0.169 -10.213   4.974  0.00  0.00    +0.132 A 
ATOM      7  C   UNL     1       0.170 -10.300   6.379  0.00  0.00    +0.061 A 
ATOM      8  C   UNL     1       0.196 -11.621   6.714  0.00  0.00    +0.066 A 
ATOM      9  N   UNL     1       0.212 -12.341   5.556  0.00  0.00    -0.276 N 
ATOM     10  H   UNL     1       0.231 -13.308   5.486  0.00  0.00    +0.189 HD
ATOM     11  N   UNL     1       0.190 -11.438   4.485  0.00  0.00    -0.170 NA
BRANCH   8  12
ATOM     12  C   UNL     1       0.206 -12.174   8.087  0.00  0.00    -0.000 A 
ATOM     13  C   UNL     1       0.182 -11.317   9.187  0.00  0.00    +0.013 A 
ATOM     14  C   UNL     1       0.191 -11.837  10.464  0.00  0.00    +0.039 A 
ATOM     15  C   UNL     1       0.224 -13.209  10.656  0.00  0.00    +0.123 A 
ATOM     16  C   UNL     1       0.248 -14.065   9.566  0.00  0.00    +0.039 A 
ATOM     17  C   UNL     1       0.234 -13.555   8.285  0.00  0.00    +0.013 A 
ATOM     18  F   UNL     1       0.234 -13.714  11.909  0.00  0.00    -0.205 F 
ENDBRANCH   8  12
ENDBRANCH   4   6
BRANCH   5  19
ATOM     19  N   UNL     1       0.141  -9.892   1.909  0.00  0.00    -0.295 N 
ATOM     20  H   UNL     1       1.085 -10.152   1.666  0.00  0.00    +0.163 HD
ATOM     21  H   UNL     1      -0.373 -10.686   2.260  0.00  0.00    +0.163 HD
ENDBRANCH   5  19
BRANCH   1  22
ATOM     22  S   UNL     1       0.096  -6.787   0.938  0.00  0.00    -0.077 S 
BRANCH  22  23
ATOM     23  C   UNL     1       0.075  -5.006   1.280  0.00  0.00    +0.157 C 
BRANCH  23  24
ATOM     24  C   UNL     1       0.058  -4.245  -0.021  0.00  0.00    +0.173 C 
ATOM     25  O   UNL     1       0.060  -4.846  -1.075  0.00  0.00    -0.291 OA
BRANCH  24  30
ATOM     26  C   UNL     1      -0.018   1.503   0.010  0.00  0.00    +0.044 C 
ATOM     27  C   UNL     1       0.002  -0.004   0.002  0.00  0.00    -0.050 A 
ATOM     28  C   UNL     1       0.006  -0.686  -1.202  0.00  0.00    +0.004 A 
ATOM     29  C   UNL     1       0.024  -2.064  -1.218  0.00  0.00    +0.011 A 
ATOM     30  C   UNL     1       0.039  -2.774  -0.013  0.00  0.00    +0.018 A 
ATOM     31  C   UNL     1       0.036  -2.078   1.200  0.00  0.00    +0.011 A 
ATOM     32  C   UNL     1       0.023  -0.699   1.199  0.00  0.00    +0.004 A 
ENDBRANCH  24  30
ENDBRANCH  23  24
ENDBRANCH  22  23
ENDBRANCH   1  22
TORSDOF 7
