REMARK  Name = ZINC12736982
REMARK  7 active torsions:
REMARK  status: ('A' for Active; 'I' for Inactive)
REMARK    1  A    between atoms: C_1  and  C_2
REMARK    2  A    between atoms: N_4  and  C_5
REMARK    3  A    between atoms: C_8  and  N_12
REMARK    4  A    between atoms: C_13  and  C_15
REMARK    5  A    between atoms: C_15  and  C_16
REMARK    6  A    between atoms: C_16  and  N_17
REMARK    7  A    between atoms: C_18  and  C_20
REMARK                            x       y       z     vdW  Elec       q    Type
REMARK                         _______ _______ _______ _____ _____    ______ ____
ROOT
ATOM      1  N   UNL     1      -1.191   2.159   0.048  0.00  0.00    -0.285 N 
ATOM      2  C   UNL     1      -0.013   1.503   0.023  0.00  0.00    +0.219 C 
ATOM      3  O   UNL     1       1.027   2.125  -0.017  0.00  0.00    -0.275 OA
ATOM      4  H   UNL     1      -2.023   1.663  -0.007  0.00  0.00    +0.155 HD
ENDROOT
BRANCH   1   8
ATOM      5  C   UNL     1      -1.254   6.316   0.366  0.00  0.00    +0.052 A 
ATOM      6  C   UNL     1      -0.174   5.598   0.861  0.00  0.00    +0.026 A 
ATOM      7  C   UNL     1      -0.156   4.222   0.761  0.00  0.00    +0.025 A 
ATOM      8  C   UNL     1      -1.212   3.555   0.154  0.00  0.00    +0.035 A 
ATOM      9  C   UNL     1      -2.293   4.272  -0.341  0.00  0.00    +0.045 A 
ATOM     10  C   UNL     1      -2.315   5.649  -0.236  0.00  0.00    +0.064 A 
ATOM     11 CL   UNL     1      -3.665   6.547  -0.856  0.00  0.00    -0.082 Cl
BRANCH   5  15
ATOM     12  C   UNL     1      -0.164   9.921   0.379  0.00  0.00    +0.109 C 
ATOM     13  C   UNL     1      -0.129   8.415   0.370  0.00  0.00    +0.214 C 
ATOM     14  O   UNL     1       0.931   7.833   0.270  0.00  0.00    -0.276 OA
ATOM     15  N   UNL     1      -1.276   7.713   0.472  0.00  0.00    -0.285 N 
ATOM     16  H   UNL     1      -2.115   8.176   0.620  0.00  0.00    +0.155 HD
ENDBRANCH   5  15
ENDBRANCH   1   8
BRANCH   2  17
ATOM     17  C   UNL     1       0.010  -0.004   0.038  0.00  0.00    +0.115 C 
BRANCH  17  18
ATOM     18  C   UNL     1       1.460  -0.491  -0.003  0.00  0.00    +0.113 C 
BRANCH  18  19
ATOM     19  N   UNL     1       1.483  -1.956   0.011  0.00  0.00    -0.314 N 
ATOM     20  C   UNL     1       2.660  -2.612  -0.020  0.00  0.00    +0.219 C 
ATOM     21  O   UNL     1       3.700  -1.990  -0.059  0.00  0.00    -0.275 OA
ATOM     22  H   UNL     1       0.651  -2.454   0.043  0.00  0.00    +0.149 HD
BRANCH  20  23
ATOM     23  C   UNL     1       2.684  -4.119  -0.005  0.00  0.00    +0.048 C 
ATOM     24  C   UNL     1       2.011  -4.627   1.272  0.00  0.00    +0.019 C 
ATOM     25  C   UNL     1       2.035  -6.157   1.287  0.00  0.00    -0.009 C 
ATOM     26  C   UNL     1       3.485  -6.644   1.246  0.00  0.00    +0.007 C 
ATOM     27  C   UNL     1       4.158  -6.136  -0.031  0.00  0.00    -0.009 C 
ATOM     28  C   UNL     1       4.134  -4.606  -0.046  0.00  0.00    +0.019 C 
ATOM     29  C   UNL     1       3.405  -6.670  -1.251  0.00  0.00    +0.007 C 
ATOM     30  C   UNL     1       1.955  -6.183  -1.210  0.00  0.00    -0.009 C 
ATOM     31  C   UNL     1       1.283  -6.691   0.067  0.00  0.00    +0.007 C 
ATOM     32  C   UNL     1       1.931  -4.653  -1.225  0.00  0.00    +0.019 C 
ENDBRANCH  20  23
ENDBRANCH  18  19
ENDBRANCH  17  18
ENDBRANCH   2  17
TORSDOF 6
