REMARK  Name = ZINC39777012
REMARK  8 active torsions:
REMARK  status: ('A' for Active; 'I' for Inactive)
REMARK    1  A    between atoms: C_7  and  C_10
REMARK    2  A    between atoms: C_13  and  S_19
REMARK    3  A    between atoms: N_15  and  C_16
REMARK    4  A    between atoms: S_19  and  C_20
REMARK    5  A    between atoms: C_20  and  C_21
REMARK    6  A    between atoms: N_23  and  C_24
REMARK    7  A    between atoms: C_27  and  C_30
REMARK    8  A    between atoms: C_30  and  N_31
REMARK                            x       y       z     vdW  Elec       q    Type
REMARK                         _______ _______ _______ _____ _____    ______ ____
ROOT
ATOM      1  C   UNL     1       0.548  -3.235   0.024  0.00  0.00    +0.147 C 
ATOM      2  N   UNL     1      -0.690  -3.000   0.368  0.00  0.00    -0.169 NA
ATOM      3  N   UNL     1      -1.485  -4.143   0.221  0.00  0.00    -0.237 N 
ATOM      4  C   UNL     1      -0.598  -5.206  -0.280  0.00  0.00    +0.237 C 
ATOM      5  N   UNL     1       0.718  -4.556  -0.397  0.00  0.00    -0.282 N 
ATOM      6  H   UNL     1      -2.433  -4.220   0.412  0.00  0.00    +0.171 HD
ENDROOT
BRANCH   1  13
ATOM      7  C   UNL     1       0.658   1.038   1.545  0.00  0.00    +0.001 A 
ATOM      8  C   UNL     1       1.904   1.652   1.397  0.00  0.00    +0.002 A 
ATOM      9  C   UNL     1       2.960   1.004   0.847  0.00  0.00    +0.026 A 
ATOM     10  C   UNL     1       2.812  -0.336   0.404  0.00  0.00    +0.043 A 
ATOM     11  N   UNL     1       3.669  -1.169  -0.154  0.00  0.00    -0.380 N 
ATOM     12  C   UNL     1       2.999  -2.446  -0.419  0.00  0.00    +0.152 C 
ATOM     13  C   UNL     1       1.575  -2.280   0.066  0.00  0.00    +0.022 C 
ATOM     14  C   UNL     1       1.498  -0.978   0.562  0.00  0.00    +0.006 A 
ATOM     15  C   UNL     1       0.444  -0.241   1.144  0.00  0.00    +0.010 A 
ATOM     16  H   UNL     1       4.596  -0.969  -0.358  0.00  0.00    +0.160 HD
ENDBRANCH   1  13
BRANCH   5  17
ATOM     17  C   UNL     1       1.962  -5.175  -0.860  0.00  0.00    +0.078 C 
ATOM     18  C   UNL     1       1.891  -6.621  -1.354  0.00  0.00    +0.024 C 
ATOM     19  C   UNL     1       2.549  -6.304  -0.010  0.00  0.00    +0.024 C 
ENDBRANCH   5  17
BRANCH   4  20
ATOM     20  S   UNL     1      -0.533  -6.585   0.896  0.00  0.00    -0.109 S 
BRANCH  20  21
ATOM     21  C   UNL     1       0.070  -5.827   2.429  0.00  0.00    +0.168 C 
BRANCH  21  22
ATOM     22  C   UNL     1       0.171  -6.878   3.504  0.00  0.00    +0.227 C 
ATOM     23  O   UNL     1      -0.133  -8.026   3.260  0.00  0.00    -0.275 OA
ATOM     24  N   UNL     1       0.601  -6.542   4.737  0.00  0.00    -0.285 N 
ATOM     25  H   UNL     1       0.773  -5.613   4.954  0.00  0.00    +0.155 HD
BRANCH  24  26
ATOM     26  C   UNL     1       0.798  -7.535   5.703  0.00  0.00    +0.033 A 
ATOM     27  C   UNL     1       0.545  -7.263   7.042  0.00  0.00    +0.023 A 
ATOM     28  C   UNL     1       0.741  -8.245   7.993  0.00  0.00    +0.007 A 
ATOM     29  C   UNL     1       1.188  -9.497   7.615  0.00  0.00    -0.033 A 
ATOM     30  C   UNL     1       1.441  -9.771   6.283  0.00  0.00    +0.007 A 
ATOM     31  C   UNL     1       1.242  -8.795   5.326  0.00  0.00    +0.023 A 
BRANCH  29  32
ATOM     32  C   UNL     1       1.401 -10.566   8.655  0.00  0.00    +0.119 C 
BRANCH  32  33
ATOM     33  N   UNL     1       0.160 -11.332   8.831  0.00  0.00    -0.294 NA
ATOM     34  C   UNL     1      -0.899 -10.493   9.412  0.00  0.00    +0.113 C 
ATOM     35  C   UNL     1      -2.188 -11.312   9.522  0.00  0.00    +0.175 C 
ATOM     36  O   UNL     1      -1.938 -12.484  10.302  0.00  0.00    -0.377 OA
ATOM     37  C   UNL     1      -0.912 -13.324   9.765  0.00  0.00    +0.175 C 
ATOM     38  C   UNL     1       0.390 -12.526   9.657  0.00  0.00    +0.113 C 
ENDBRANCH  32  33
ENDBRANCH  29  32
ENDBRANCH  24  26
ENDBRANCH  21  22
ENDBRANCH  20  21
ENDBRANCH   4  20
TORSDOF 8
