REMARK  Name = ZINC20801242
REMARK  8 active torsions:
REMARK  status: ('A' for Active; 'I' for Inactive)
REMARK    1  A    between atoms: C_1  and  C_2
REMARK    2  A    between atoms: C_5  and  N_8
REMARK    3  A    between atoms: C_9  and  C_11
REMARK    4  A    between atoms: C_11  and  N_12
REMARK    5  A    between atoms: N_15  and  C_18
REMARK    6  A    between atoms: C_18  and  C_20
REMARK    7  A    between atoms: C_18  and  C_21
REMARK    8  A    between atoms: C_33  and  C_37
REMARK                            x       y       z     vdW  Elec       q    Type
REMARK                         _______ _______ _______ _____ _____    ______ ____
ROOT
ATOM      1  N   UNL     1       4.156   1.315   0.139  0.00  0.00    +0.387 N 
ATOM      2  C   UNL     1       4.131   1.774  -1.257  0.00  0.00    -0.063 C 
ATOM      3  C   UNL     1       5.473   2.427  -1.601  0.00  0.00    +0.066 C 
ATOM      4  N   UNL     1       6.556   1.456  -1.387  0.00  0.00    -0.296 NA
ATOM      5  C   UNL     1       6.580   0.998   0.009  0.00  0.00    +0.066 C 
ATOM      6  C   UNL     1       5.239   0.345   0.353  0.00  0.00    -0.063 C 
ATOM      7  H   UNL     1       4.350   2.188   0.780  0.00  0.00    -0.081 HD
ENDROOT
BRANCH   4   8
ATOM      8  C   UNL     1       7.854   2.022  -1.778  0.00  0.00    +0.120 C 
ATOM      9  C   UNL     1       8.295   3.054  -0.738  0.00  0.00    +0.032 C 
BRANCH   8  10
ATOM     10  C   UNL     1       8.878   0.919  -1.858  0.00  0.00    +0.128 A 
ATOM     11  N   UNL     1      10.181   1.234  -2.077  0.00  0.00    -0.309 N 
ATOM     12  H   UNL     1      10.480   2.286  -2.194  0.00  0.00    +0.170 HD
ATOM     13  C   UNL     1      11.128   0.281  -2.155  0.00  0.00    +0.260 A 
ATOM     14  O   UNL     1      12.293   0.580  -2.352  0.00  0.00    -0.267 OA
ATOM     15  C   UNL     1      10.744  -1.092  -2.003  0.00  0.00    +0.075 A 
ATOM     16  C   UNL     1      11.591  -2.283  -2.049  0.00  0.00    -0.023 A 
ATOM     17  C   UNL     1      10.981  -3.474  -1.875  0.00  0.00    -0.004 A 
ATOM     18  S   UNL     1       9.267  -3.084  -1.644  0.00  0.00    -0.073 S 
ATOM     19  C   UNL     1       9.376  -1.318  -1.781  0.00  0.00    +0.116 A 
ATOM     20  N   UNL     1       8.498  -0.322  -1.711  0.00  0.00    -0.225 NA
ATOM     21  C   UNL     1      11.620  -4.830  -1.877  0.00  0.00    +0.046 C 
ATOM     22  C   UNL     1      13.138  -4.650  -1.737  0.00  0.00    -0.009 C 
ATOM     23  C   UNL     1      13.599  -3.578  -2.729  0.00  0.00    +0.008 C 
ATOM     24  C   UNL     1      13.097  -2.205  -2.282  0.00  0.00    +0.037 C 
ATOM     25  C   UNL     1      13.842  -5.972  -2.045  0.00  0.00    +0.008 C 
ENDBRANCH   8  10
ENDBRANCH   4   8
BRANCH   1  26
ATOM     26  C   UNL     1       2.858   0.750   0.530  0.00  0.00    +0.019 C 
BRANCH  26  28
ATOM     27  N   UNL     1       0.541   1.551   0.862  0.00  0.00    -0.287 N 
ATOM     28  C   UNL     1       1.816   1.839   0.532  0.00  0.00    +0.201 C 
ATOM     29  O   UNL     1       2.124   2.974   0.236  0.00  0.00    -0.278 OA
ATOM     30  H   UNL     1       0.244   0.509   1.052  0.00  0.00    +0.155 HD
BRANCH  27  35
ATOM     31  C   UNL     1      -3.292   5.714   1.274  0.00  0.00    +0.044 C 
ATOM     32  C   UNL     1      -2.273   4.608   1.164  0.00  0.00    -0.050 A 
ATOM     33  C   UNL     1      -2.658   3.358   0.715  0.00  0.00    +0.005 A 
ATOM     34  C   UNL     1      -1.728   2.342   0.614  0.00  0.00    +0.023 A 
ATOM     35  C   UNL     1      -0.404   2.578   0.963  0.00  0.00    +0.033 A 
ATOM     36  C   UNL     1      -0.022   3.833   1.419  0.00  0.00    +0.023 A 
ATOM     37  C   UNL     1      -0.957   4.846   1.513  0.00  0.00    +0.005 A 
ENDBRANCH  27  35
ENDBRANCH  26  28
ENDBRANCH   1  26
TORSDOF 5
