REMARK  Name = ZINC63362517
REMARK  15 active torsions:
REMARK  status: ('A' for Active; 'I' for Inactive)
REMARK    1  A    between atoms: CG2_1  and  CB_2
REMARK    2  A    between atoms: CB_2  and  CA_4
REMARK    3  A    between atoms: CB_2  and  OG1_40
REMARK    4  A    between atoms: CA_4  and  C_6
REMARK    5  A    between atoms: CA_4  and  N_9
REMARK    6  A    between atoms: C_10  and  C_12
REMARK    7  A    between atoms: C_18  and  C_20
REMARK    8  A    between atoms: C_20  and  C_22
REMARK    9  A    between atoms: C_20  and  N_32
REMARK   10  A    between atoms: C_22  and  C_23
REMARK   11  A    between atoms: C_33  and  O_35
REMARK   12  A    between atoms: O_35  and  C_36
REMARK   13  A    between atoms: C_36  and  C_37
REMARK   14  A    between atoms: C_36  and  C_38
REMARK   15  A    between atoms: C_36  and  C_39
REMARK                            x       y       z     vdW  Elec       q    Type
REMARK                         _______ _______ _______ _____ _____    ______ ____
ROOT
ATOM      1  C   UNK A   0       8.614   0.114   4.707  0.00  0.00    +0.166 C 
ENDROOT
BRANCH   1   8
ATOM      2  C   UNK A   0       4.209   0.649   2.377  0.00  0.00    +0.078 C 
ATOM      3  C   UNK A   0       5.088  -0.278   1.535  0.00  0.00    +0.032 C 
ATOM      4  C   UNK A   0       6.516   0.274   1.498  0.00  0.00    +0.108 C 
ATOM      5  N   UNK A   0       6.987   0.463   2.877  0.00  0.00    -0.300 N 
ATOM      6  C   UNK A   0       6.169   1.263   3.799  0.00  0.00    +0.108 C 
ATOM      7  C   UNK A   0       4.744   0.700   3.810  0.00  0.00    +0.032 C 
ATOM      8  C   UNK A   0       8.146  -0.088   3.289  0.00  0.00    +0.236 C 
ATOM      9  O   UNK A   0       8.811  -0.747   2.518  0.00  0.00    -0.274 OA
BRANCH   2  11
ATOM     10  N   THR A   1       2.116  -0.004   1.231  0.00  0.00    -0.300 N 
ATOM     11  C   UNK A   0       2.795   0.128   2.388  0.00  0.00    +0.217 C 
ATOM     12  O   UNK A   0       2.268  -0.174   3.438  0.00  0.00    -0.275 OA
ATOM     13  H   THR A   1       2.538   0.237   0.392  0.00  0.00    +0.150 HD
BRANCH  10  14
ATOM     14  CA  THR A   1       0.742  -0.511   1.242  0.00  0.00    +0.215 C 
BRANCH  14  15
ATOM     15  C   THR A   1       0.762  -2.018   1.233  0.00  0.00    +0.378 C 
ATOM     16  O   THR A   1       1.809  -2.612   1.037  0.00  0.00    -0.244 OA
ATOM     17  OXT THR A   1      -0.267  -2.642   1.423  0.00  0.00    -0.244 OA
ENDBRANCH  14  15
BRANCH  14  19
ATOM     18  CG2 THR A   1      -0.019   1.526   0.010  0.00  0.00    +0.040 C 
ATOM     19  CB  THR A   1       0.002  -0.004   0.002  0.00  0.00    +0.143 C 
BRANCH  19  20
ATOM     20  OG1 THR A   1      -1.339  -0.499   0.012  0.00  0.00    -0.390 OA
ATOM     21  HG1 THR A   1      -1.868  -0.216  -0.746  0.00  0.00    +0.210 HD
ENDBRANCH  19  20
ENDBRANCH  14  19
ENDBRANCH  10  14
ENDBRANCH   2  11
ENDBRANCH   1   8
BRANCH   1  22
ATOM     22  N   UNK A   0       9.589  -0.923   5.052  0.00  0.00    -0.269 N 
ATOM     23  C   UNK A   0      10.731  -1.037   4.344  0.00  0.00    +0.401 C 
ATOM     24  O   UNK A   0      10.951  -0.279   3.421  0.00  0.00    -0.226 OA
ATOM     25  H   UNK A   0       9.414  -1.528   5.789  0.00  0.00    +0.153 HD
BRANCH  23  26
ATOM     26  O   UNK A   0      11.627  -1.990   4.661  0.00  0.00    -0.445 OA
BRANCH  26  27
ATOM     27  C   UNK A   0      12.815  -2.053   3.869  0.00  0.00    +0.107 C 
ATOM     28  C   UNK A   0      13.570  -0.726   3.977  0.00  0.00    +0.055 C 
ATOM     29  C   UNK A   0      13.706  -3.189   4.375  0.00  0.00    +0.055 C 
ATOM     30  C   UNK A   0      12.441  -2.309   2.408  0.00  0.00    +0.055 C 
ENDBRANCH  26  27
ENDBRANCH  23  26
ENDBRANCH   1  22
BRANCH   1  31
ATOM     31  C   UNK A   0       9.268   1.492   4.836  0.00  0.00    +0.065 C 
BRANCH  31  32
ATOM     32  C   UNK A   0       9.626   1.744   6.278  0.00  0.00    -0.039 C 
ATOM     33  C   UNK A   0      10.822   1.527   6.869  0.00  0.00    -0.001 A 
ATOM     34  C   UNK A   0      12.100   1.008   6.366  0.00  0.00    +0.010 A 
ATOM     35  C   UNK A   0      13.146   0.901   7.217  0.00  0.00    +0.001 A 
ATOM     36  C   UNK A   0      13.040   1.272   8.564  0.00  0.00    +0.002 A 
ATOM     37  C   UNK A   0      11.900   1.757   9.100  0.00  0.00    +0.026 A 
ATOM     38  C   UNK A   0      10.737   1.912   8.296  0.00  0.00    +0.043 A 
ATOM     39  N   UNK A   0       9.534   2.351   8.576  0.00  0.00    -0.380 N 
ATOM     40  C   UNK A   0       8.721   2.299   7.356  0.00  0.00    +0.144 C 
ATOM     41  H   UNK A   0       9.233   2.662   9.444  0.00  0.00    +0.160 HD
ENDBRANCH  31  32
ENDBRANCH   1  31
TORSDOF 11
