REMARK  Name = ZINC39588107
REMARK  6 active torsions:
REMARK  status: ('A' for Active; 'I' for Inactive)
REMARK    1  A    between atoms: C_1  and  C_2
REMARK    2  A    between atoms: C_2  and  O_3
REMARK    3  A    between atoms: O_3  and  C_4
REMARK    4  A    between atoms: C_7  and  C_10
REMARK    5  A    between atoms: C_13  and  C_16
REMARK    6  A    between atoms: C_19  and  C_22
REMARK                            x       y       z     vdW  Elec       q    Type
REMARK                         _______ _______ _______ _____ _____    ______ ____
ROOT
ATOM      1  C   UNL     1       1.108  -6.016  -1.844  0.00  0.00    +0.168 C 
ATOM      2  N   UNL     1       0.638  -6.891  -1.016  0.00  0.00    -0.067 NA
ATOM      3  O   UNL     1       0.908  -8.206  -1.463  0.00  0.00    -0.367 OA
ATOM      4  C   UNL     1       1.621  -8.078  -2.702  0.00  0.00    +0.322 C 
ATOM      5  N   UNL     1       1.727  -6.626  -2.919  0.00  0.00    -0.287 N 
ATOM      6  H   UNL     1       2.151  -6.183  -3.671  0.00  0.00    +0.151 HD
ENDROOT
BRANCH   1  10
ATOM      7  C   UNL     1       0.777  -1.809  -1.336  0.00  0.00    +0.121 A 
ATOM      8  C   UNL     1       0.241  -2.666  -0.383  0.00  0.00    +0.046 A 
ATOM      9  C   UNL     1       0.346  -4.031  -0.545  0.00  0.00    +0.015 A 
ATOM     10  C   UNL     1       0.992  -4.551  -1.667  0.00  0.00    +0.018 A 
ATOM     11  C   UNL     1       1.529  -3.687  -2.623  0.00  0.00    +0.015 A 
ATOM     12  C   UNL     1       1.415  -2.324  -2.457  0.00  0.00    +0.046 A 
BRANCH   7  13
ATOM     13  O   UNL     1       0.671  -0.465  -1.174  0.00  0.00    -0.492 OA
BRANCH  13  15
ATOM     14  C   UNL     1      -0.019   1.526   0.010  0.00  0.00    +0.048 C 
ATOM     15  C   UNL     1       0.002  -0.004   0.002  0.00  0.00    +0.225 C 
ENDBRANCH  13  15
ENDBRANCH   7  13
ENDBRANCH   1  10
BRANCH   4  16
ATOM     16  C   UNL     1       3.010  -8.710  -2.587  0.00  0.00    +0.215 C 
ATOM     17  C   UNL     1       2.899 -10.206  -2.349  0.00  0.00    +0.037 C 
ATOM     18  C   UNL     1       3.486 -10.386  -1.146  0.00  0.00    +0.098 C 
ATOM     19  N   UNL     1       3.924  -9.197  -0.651  0.00  0.00    -0.153 NA
ATOM     20  N   UNL     1       3.703  -8.224  -1.382  0.00  0.00    -0.174 NA
BRANCH  18  21
ATOM     21  C   UNL     1       3.632 -11.689  -0.465  0.00  0.00    +0.039 A 
ATOM     22  C   UNL     1       4.202 -11.969   0.749  0.00  0.00    +0.018 A 
ATOM     23  C   UNL     1       4.223 -13.276   1.184  0.00  0.00    +0.008 A 
ATOM     24  C   UNL     1       3.679 -14.243   0.402  0.00  0.00    +0.046 A 
ATOM     25  S   UNL     1       3.103 -13.306  -1.004  0.00  0.00    -0.095 S 
ENDBRANCH  18  21
ENDBRANCH   4  16
TORSDOF 5
