REMARK  Name = ZINC13544771
REMARK  6 active torsions:
REMARK  status: ('A' for Active; 'I' for Inactive)
REMARK    1  A    between atoms: C_3  and  N_10
REMARK    2  A    between atoms: C_6  and  C_7
REMARK    3  A    between atoms: C_14  and  S_18
REMARK    4  A    between atoms: S_18  and  C_19
REMARK    5  A    between atoms: N_20  and  N_21
REMARK    6  A    between atoms: C_22  and  C_23
REMARK                            x       y       z     vdW  Elec       q    Type
REMARK                         _______ _______ _______ _____ _____    ______ ____
ROOT
ATOM      1  S   UNL     1       6.837   2.571   1.550  0.00  0.00    -0.078 S 
ENDROOT
BRANCH   1   6
ATOM      2  N   UNL     1       3.580   2.135  -0.021  0.00  0.00    -0.209 N 
ATOM      3  C   UNL     1       3.625   3.470  -0.107  0.00  0.00    +0.228 C 
ATOM      4  O   UNL     1       2.662   4.202  -0.186  0.00  0.00    -0.275 OA
ATOM      5  C   UNL     1       5.069   3.921  -0.090  0.00  0.00    +0.120 C 
ATOM      6  C   UNL     1       5.859   2.601   0.022  0.00  0.00    +0.149 C 
ATOM      7  C   UNL     1       4.778   1.544   0.062  0.00  0.00    +0.240 C 
ATOM      8  O   UNL     1       4.967   0.349   0.153  0.00  0.00    -0.274 OA
BRANCH   2  11
ATOM      9  C   UNL     1       0.804   0.035   1.149  0.00  0.00    +0.017 A 
ATOM     10  C   UNL     1       1.985   0.742   1.136  0.00  0.00    +0.025 A 
ATOM     11  C   UNL     1       2.381   1.418  -0.013  0.00  0.00    +0.044 A 
ATOM     12  C   UNL     1       1.586   1.383  -1.154  0.00  0.00    +0.025 A 
ATOM     13  C   UNL     1       0.403   0.678  -1.150  0.00  0.00    +0.017 A 
ATOM     14  C   UNL     1       0.002  -0.003   0.003  0.00  0.00    +0.063 A 
BRANCH  14  15
ATOM     15  C   UNL     1      -1.263  -0.759   0.012  0.00  0.00    +0.387 C 
ATOM     16  O   UNL     1      -1.612  -1.355   1.021  0.00  0.00    -0.241 OA
ATOM     17  O   UNL     1      -1.963  -0.791  -0.991  0.00  0.00    -0.241 OA
ENDBRANCH  14  15
ENDBRANCH   2  11
ENDBRANCH   1   6
BRANCH   1  18
ATOM     18  C   UNL     1       7.768   1.079   1.430  0.00  0.00    +0.146 C 
ATOM     19  N   UNL     1       8.600   0.743   2.395  0.00  0.00    -0.259 N 
ATOM     20  N   UNL     1       7.627   0.268   0.331  0.00  0.00    -0.338 N 
ATOM     21  H   UNL     1       7.014   0.516  -0.379  0.00  0.00    +0.144 HD
ATOM     22  H   UNL     1       8.139  -0.553   0.265  0.00  0.00    +0.144 HD
ATOM     23  H   UNL     1       8.700   1.315   3.171  0.00  0.00    +0.191 HD
BRANCH  19  24
ATOM     24  N   UNL     1       9.282  -0.349   2.308  0.00  0.00    -0.180 NA
ATOM     25  C   UNL     1      10.106  -0.683   3.263  0.00  0.00    +0.140 C 
BRANCH  25  26
ATOM     26  C   UNL     1      10.883  -1.928   3.163  0.00  0.00    -0.002 A 
ATOM     27  C   UNL     1      10.745  -2.753   2.042  0.00  0.00    +0.013 A 
ATOM     28  C   UNL     1      11.475  -3.919   1.951  0.00  0.00    +0.050 A 
ATOM     29  C   UNL     1      12.348  -4.278   2.969  0.00  0.00    +0.166 A 
ATOM     30  C   UNL     1      12.491  -3.461   4.089  0.00  0.00    +0.167 A 
ATOM     31  C   UNL     1      11.767  -2.288   4.186  0.00  0.00    +0.059 A 
ATOM     32  O   UNL     1      13.399  -4.033   4.933  0.00  0.00    -0.453 OA
ATOM     33  C   UNL     1      13.504  -5.405   4.512  0.00  0.00    +0.466 C 
ATOM     34  O   UNL     1      13.168  -5.361   3.112  0.00  0.00    -0.453 OA
ENDBRANCH  25  26
ENDBRANCH  19  24
ENDBRANCH   1  18
TORSDOF 6
