REMARK  Name = ZINC01424259
REMARK  7 active torsions:
REMARK  status: ('A' for Active; 'I' for Inactive)
REMARK    1  A    between atoms: C_1  and  C_2
REMARK    2  A    between atoms: C_3  and  C_21
REMARK    3  A    between atoms: C_4  and  C_14
REMARK    4  A    between atoms: N_23  and  C_24
REMARK    5  A    between atoms: C_25  and  C_33
REMARK    6  A    between atoms: C_33  and  O_35
REMARK    7  A    between atoms: O_35  and  C_36
REMARK                            x       y       z     vdW  Elec       q    Type
REMARK                         _______ _______ _______ _____ _____    ______ ____
ROOT
ATOM      1  C   UNL     1      -0.018   1.503   0.010  0.00  0.00    +0.061 C 
ATOM      2  C   UNL     1       0.002  -0.004   0.002  0.00  0.00    +0.014 C 
ATOM      3  C   UNL     1      -1.155  -0.687   0.004  0.00  0.00    +0.043 C 
ATOM      4  C   UNL     1      -1.173  -2.188   0.006  0.00  0.00    +0.093 C 
ATOM      5  C   UNL     1       0.160  -2.747  -0.422  0.00  0.00    +0.024 C 
ATOM      6  C   UNL     1       1.267  -1.974  -0.410  0.00  0.00    +0.015 C 
ATOM      7  N   UNL     1       1.198  -0.667  -0.013  0.00  0.00    -0.321 N 
ATOM      8  C   UNL     1       2.604  -2.524  -0.842  0.00  0.00    +0.051 C 
ATOM      9  C   UNL     1       2.670  -4.020  -0.526  0.00  0.00    +0.014 C 
ATOM     10  C   UNL     1       1.517  -4.722  -1.251  0.00  0.00    +0.080 C 
ATOM     11  C   UNL     1       0.218  -4.091  -0.829  0.00  0.00    +0.162 C 
ATOM     12  O   UNL     1      -0.799  -4.755  -0.841  0.00  0.00    -0.292 OA
ATOM     13  H   UNL     1       2.006  -0.208   0.264  0.00  0.00    +0.152 HD
ENDROOT
BRANCH   4  14
ATOM     14  C   UNL     1      -1.491  -2.676   1.395  0.00  0.00    -0.000 A 
ATOM     15  C   UNL     1      -0.665  -2.342   2.452  0.00  0.00    +0.007 A 
ATOM     16  C   UNL     1      -0.956  -2.791   3.726  0.00  0.00    +0.000 A 
ATOM     17  C   UNL     1      -2.074  -3.574   3.946  0.00  0.00    +0.003 A 
ATOM     18  C   UNL     1      -2.902  -3.909   2.892  0.00  0.00    +0.038 A 
ATOM     19  C   UNL     1      -2.614  -3.456   1.615  0.00  0.00    +0.127 A 
ATOM     20  F   UNL     1      -3.425  -3.779   0.584  0.00  0.00    -0.205 F 
ENDBRANCH   4  14
BRANCH   3  21
ATOM     21  C   UNL     1      -2.380   0.023   0.004  0.00  0.00    +0.247 C 
ATOM     22  O   UNL     1      -2.378   1.240   0.004  0.00  0.00    -0.270 OA
ATOM     23  N   UNL     1      -3.548  -0.650   0.006  0.00  0.00    -0.275 N 
ATOM     24  H   UNL     1      -3.550  -1.620   0.007  0.00  0.00    +0.156 HD
BRANCH  23  25
ATOM     25  C   UNL     1      -4.746   0.044   0.007  0.00  0.00    +0.087 A 
ATOM     26  C   UNL     1      -6.033  -0.475   0.015  0.00  0.00    +0.091 A 
ATOM     27  C   UNL     1      -7.132   0.476   0.014  0.00  0.00    -0.021 A 
ATOM     28  C   UNL     1      -6.744   1.769   0.006  0.00  0.00    -0.004 A 
ATOM     29  S   UNL     1      -4.976   1.708   0.006  0.00  0.00    -0.077 S 
ATOM     30  C   UNL     1      -7.632   2.974   0.002  0.00  0.00    +0.043 C 
ATOM     31  C   UNL     1      -9.053   2.526  -0.372  0.00  0.00    +0.005 C 
ATOM     32  C   UNL     1      -9.425   1.303   0.472  0.00  0.00    +0.005 C 
ATOM     33  C   UNL     1      -8.604   0.092   0.023  0.00  0.00    +0.037 C 
BRANCH  26  34
ATOM     34  C   UNL     1      -6.273  -1.919   0.022  0.00  0.00    +0.342 C 
ATOM     35  O   UNL     1      -6.369  -2.514   1.079  0.00  0.00    -0.245 OA
BRANCH  34  36
ATOM     36  O   UNL     1      -6.388  -2.590  -1.143  0.00  0.00    -0.464 OA
ATOM     37  C   UNL     1      -6.622  -3.997  -1.060  0.00  0.00    +0.280 C 
ENDBRANCH  34  36
ENDBRANCH  26  34
ENDBRANCH  23  25
ENDBRANCH   3  21
TORSDOF 5
