REMARK  Name = ZINC38597792
REMARK  8 active torsions:
REMARK  status: ('A' for Active; 'I' for Inactive)
REMARK    1  A    between atoms: C_5  and  C_7
REMARK    2  A    between atoms: C_7  and  S_8
REMARK    3  A    between atoms: S_8  and  N_11
REMARK    4  A    between atoms: N_11  and  C_12
REMARK    5  A    between atoms: C_12  and  C_13
REMARK    6  A    between atoms: C_13  and  C_15
REMARK    7  A    between atoms: C_13  and  N_20
REMARK    8  A    between atoms: N_23  and  C_26
REMARK                            x       y       z     vdW  Elec       q    Type
REMARK                         _______ _______ _______ _____ _____    ______ ____
ROOT
ATOM      1  C   UNL     1       2.240  -6.559   1.282  0.00  0.00    +0.015 C 
ENDROOT
BRANCH   1   2
ATOM      2  N   UNL     1       0.957  -7.056   0.766  0.00  0.00    +0.389 N 
ATOM      3  C   UNL     1       0.753  -8.438   1.216  0.00  0.00    -0.059 C 
ATOM      4  C   UNL     1      -0.528  -8.996   0.586  0.00  0.00    +0.086 C 
ATOM      5  N   UNL     1      -1.638  -8.084   0.903  0.00  0.00    -0.333 N 
ATOM      6  C   UNL     1      -1.455  -6.649   0.634  0.00  0.00    +0.086 C 
ATOM      7  C   UNL     1      -0.131  -6.203   1.262  0.00  0.00    -0.059 C 
ATOM      8  H   UNL     1       0.969  -7.031  -0.242  0.00  0.00    -0.081 HD
BRANCH   5   9
ATOM      9  C   UNL     1      -2.833  -8.567   1.444  0.00  0.00    +0.030 A 
ATOM     10  C   UNL     1      -3.821  -7.680   1.851  0.00  0.00    +0.026 A 
ATOM     11  C   UNL     1      -5.001  -8.160   2.384  0.00  0.00    +0.040 A 
ATOM     12  C   UNL     1      -5.200  -9.524   2.514  0.00  0.00    +0.124 A 
ATOM     13  C   UNL     1      -4.216 -10.411   2.109  0.00  0.00    +0.040 A 
ATOM     14  C   UNL     1      -3.036  -9.935   1.570  0.00  0.00    +0.026 A 
ATOM     15  F   UNL     1      -6.354  -9.991   3.037  0.00  0.00    -0.205 F 
ENDBRANCH   5   9
ENDBRANCH   1   2
BRANCH   1  16
ATOM     16  C   UNL     1       3.364  -7.382   0.707  0.00  0.00    +0.093 A 
ATOM     17  C   UNL     1       4.456  -7.797   1.375  0.00  0.00    +0.043 A 
ATOM     18  C   UNL     1       5.241  -8.533   0.458  0.00  0.00    +0.041 A 
ATOM     19  C   UNL     1       4.583  -8.523  -0.715  0.00  0.00    +0.195 A 
ATOM     20  O   UNL     1       3.444  -7.829  -0.556  0.00  0.00    -0.469 OA
ENDBRANCH   1  16
BRANCH   1  21
ATOM     21  C   UNL     1       2.420  -5.095   0.876  0.00  0.00    +0.098 C 
BRANCH  21  22
ATOM     22  N   UNL     1       2.270  -4.969  -0.576  0.00  0.00    -0.195 NA
ATOM     23  H   UNL     1       2.327  -5.756  -1.140  0.00  0.00    +0.148 HD
BRANCH  22  24
ATOM     24  S   UNL     1       2.004  -3.482  -1.255  0.00  0.00    +0.033 S 
ATOM     25  O   UNL     1       0.913  -2.939  -0.523  0.00  0.00    -0.158 OA
ATOM     26  O   UNL     1       1.887  -3.735  -2.648  0.00  0.00    -0.158 OA
BRANCH  24  27
ATOM     27  C   UNL     1       3.515  -2.537  -0.916  0.00  0.00    +0.221 C 
BRANCH  27  32
ATOM     28  C   UNL     1       3.672   0.368  -3.323  0.00  0.00    +0.000 A 
ATOM     29  C   UNL     1       3.139   1.389  -2.559  0.00  0.00    +0.001 A 
ATOM     30  C   UNL     1       2.727   1.141  -1.263  0.00  0.00    +0.020 A 
ATOM     31  C   UNL     1       2.849  -0.131  -0.731  0.00  0.00    +0.046 A 
ATOM     32  C   UNL     1       3.382  -1.152  -1.496  0.00  0.00    -0.007 A 
ATOM     33  C   UNL     1       3.794  -0.902  -2.791  0.00  0.00    +0.007 A 
ATOM     34 CL   UNL     1       2.333  -0.443   0.897  0.00  0.00    -0.083 Cl
ENDBRANCH  27  32
ENDBRANCH  24  27
ENDBRANCH  22  24
ENDBRANCH  21  22
ENDBRANCH   1  21
TORSDOF 8
