REMARK  Name = ZINC09406914
REMARK  6 active torsions:
REMARK  status: ('A' for Active; 'I' for Inactive)
REMARK    1  A    between atoms: C_1  and  C_2
REMARK    2  A    between atoms: C_5  and  N_8
REMARK    3  A    between atoms: C_9  and  C_11
REMARK    4  A    between atoms: N_16  and  S_17
REMARK    5  A    between atoms: S_17  and  C_20
REMARK    6  A    between atoms: C_27  and  C_30
REMARK                            x       y       z     vdW  Elec       q    Type
REMARK                         _______ _______ _______ _____ _____    ______ ____
ROOT
ATOM      1  S   UNL     1       1.399  -6.509   3.676  0.00  0.00    +0.062 S 
ATOM      2  O   UNL     1       2.060  -5.318   3.272  0.00  0.00    -0.153 OA
ATOM      3  O   UNL     1       0.712  -6.616   4.915  0.00  0.00    -0.153 OA
ENDROOT
BRANCH   1   4
ATOM      4  C   UNL     1       2.611  -7.788   3.660  0.00  0.00    +0.108 A 
ATOM      5  C   UNL     1       2.382  -8.960   4.367  0.00  0.00    +0.030 A 
ATOM      6  C   UNL     1       3.319  -9.972   4.367  0.00  0.00    +0.030 A 
ATOM      7  C   UNL     1       4.499  -9.816   3.652  0.00  0.00    +0.067 A 
ATOM      8  C   UNL     1       4.731  -8.629   2.935  0.00  0.00    +0.091 A 
ATOM      9  C   UNL     1       3.763  -7.619   2.947  0.00  0.00    +0.058 A 
ATOM     10  N   UNL     1       5.943  -8.750   2.342  0.00  0.00    -0.228 NA
ATOM     11  C   UNL     1       6.465  -9.914   2.641  0.00  0.00    +0.139 A 
ATOM     12  N   UNL     1       5.610 -10.611   3.450  0.00  0.00    -0.338 N 
ATOM     13  H   UNL     1       5.756 -11.499   3.814  0.00  0.00    +0.167 HD
BRANCH  11  14
ATOM     14  C   UNL     1       7.782 -10.401   2.174  0.00  0.00    +0.017 A 
ATOM     15  C   UNL     1       8.235 -11.665   2.552  0.00  0.00    +0.011 A 
ATOM     16  C   UNL     1       9.464 -12.114   2.114  0.00  0.00    +0.001 A 
ATOM     17  C   UNL     1      10.246 -11.313   1.300  0.00  0.00    +0.000 A 
ATOM     18  C   UNL     1       9.802 -10.058   0.922  0.00  0.00    +0.001 A 
ATOM     19  C   UNL     1       8.573  -9.601   1.349  0.00  0.00    +0.011 A 
ENDBRANCH  11  14
ENDBRANCH   1   4
BRANCH   1  24
ATOM     20  C   UNL     1       0.366  -6.413   1.095  0.00  0.00    +0.166 C 
ATOM     21  C   UNL     1      -0.852  -7.008   0.357  0.00  0.00    +0.031 C 
ATOM     22  C   UNL     1      -1.235  -8.223   1.243  0.00  0.00    +0.019 C 
ATOM     23  C   UNL     1      -0.919  -7.686   2.661  0.00  0.00    +0.110 C 
ATOM     24  N   UNL     1       0.297  -6.864   2.492  0.00  0.00    -0.165 NA
BRANCH  20  26
ATOM     25  N   UNL     1       0.876  -4.252   0.005  0.00  0.00    -0.284 N 
ATOM     26  C   UNL     1       0.313  -4.908   1.039  0.00  0.00    +0.236 C 
ATOM     27  O   UNL     1      -0.235  -4.287   1.925  0.00  0.00    -0.274 OA
ATOM     28  H   UNL     1       1.256  -4.749  -0.736  0.00  0.00    +0.155 HD
BRANCH  25  33
ATOM     29  C   UNL     1       1.023   1.420  -0.013  0.00  0.00    +0.044 C 
ATOM     30  C   UNL     1       0.984  -0.087  -0.008  0.00  0.00    -0.050 A 
ATOM     31  C   UNL     1      -0.104  -0.747   0.531  0.00  0.00    +0.005 A 
ATOM     32  C   UNL     1      -0.143  -2.128   0.537  0.00  0.00    +0.023 A 
ATOM     33  C   UNL     1       0.912  -2.853  -0.000  0.00  0.00    +0.033 A 
ATOM     34  C   UNL     1       2.004  -2.187  -0.542  0.00  0.00    +0.023 A 
ATOM     35  C   UNL     1       2.034  -0.806  -0.549  0.00  0.00    +0.005 A 
ENDBRANCH  25  33
ENDBRANCH  20  26
ENDBRANCH   1  24
TORSDOF 5
