REMARK  Name = ZINC38783385
REMARK  7 active torsions:
REMARK  status: ('A' for Active; 'I' for Inactive)
REMARK    1  A    between atoms: C_1  and  S_2
REMARK    2  A    between atoms: S_2  and  C_3
REMARK    3  A    between atoms: C_3  and  C_4
REMARK    4  A    between atoms: C_4  and  C_5
REMARK    5  A    between atoms: C_5  and  C_7
REMARK    6  A    between atoms: C_5  and  N_24
REMARK    7  A    between atoms: C_25  and  C_27
REMARK                            x       y       z     vdW  Elec       q    Type
REMARK                         _______ _______ _______ _____ _____    ______ ____
ROOT
ATOM      1  C   UNL     1       1.983  -3.777  -2.945  0.00  0.00    +0.236 C 
ATOM      2  O   UNL     1       1.608  -4.477  -3.862  0.00  0.00    -0.274 OA
ATOM      3  N   UNL     1       2.653  -4.323  -1.911  0.00  0.00    -0.300 N 
ATOM      4  C   UNL     1       3.013  -3.512  -0.740  0.00  0.00    +0.106 C 
ATOM      5  C   UNL     1       2.489  -4.207   0.521  0.00  0.00    +0.009 C 
ATOM      6  C   UNL     1       3.014  -5.642   0.564  0.00  0.00    -0.037 C 
ATOM      7  C   UNL     1       2.513  -6.413  -0.659  0.00  0.00    +0.009 C 
ATOM      8  C   UNL     1       3.031  -5.743  -1.929  0.00  0.00    +0.106 C 
ATOM      9  C   UNL     1       2.529  -6.330   1.840  0.00  0.00    +0.140 C 
ATOM     10  C   UNL     1       3.213  -7.694   1.860  0.00  0.00    +0.042 C 
ATOM     11  N   UNL     1       2.277  -8.558   1.947  0.00  0.00    -0.243 NA
ATOM     12  C   UNL     1       1.053  -7.977   1.895  0.00  0.00    +0.216 C 
ATOM     13  N   UNL     1       1.105  -6.665   1.806  0.00  0.00    -0.264 NA
ATOM     14  C   UNL     1       4.702  -7.831   1.669  0.00  0.00    +0.034 C 
ATOM     15  C   UNL     1       5.050  -6.975   0.436  0.00  0.00    -0.076 C 
ATOM     16  N   UNL     1       4.484  -5.631   0.571  0.00  0.00    +0.385 N 
ATOM     17  H   UNL     1       4.811  -5.059  -0.193  0.00  0.00    -0.085 HD
ATOM     18  H   UNL     1       4.804  -5.227   1.439  0.00  0.00    -0.085 HD
ENDROOT
BRANCH   1  19
ATOM     19  C   UNL     1       1.700  -2.297  -2.963  0.00  0.00    +0.160 C 
BRANCH  19  20
ATOM     20  N   UNL     1       1.567  -1.842  -4.349  0.00  0.00    -0.297 N 
ATOM     21  C   UNL     1       1.814  -0.554  -4.662  0.00  0.00    +0.280 C 
ATOM     22  O   UNL     1       2.147   0.230  -3.793  0.00  0.00    -0.267 OA
ATOM     23  H   UNL     1       1.302  -2.467  -5.041  0.00  0.00    +0.150 HD
BRANCH  21  24
ATOM     24  C   UNL     1       1.680  -0.098  -6.048  0.00  0.00    +0.191 A 
ATOM     25  C   UNL     1       1.904   1.171  -6.501  0.00  0.00    +0.056 A 
ATOM     26  C   UNL     1       1.660   1.156  -7.882  0.00  0.00    +0.058 A 
ATOM     27  C   UNL     1       1.301  -0.107  -8.210  0.00  0.00    +0.171 A 
ATOM     28  O   UNL     1       1.321  -0.861  -7.102  0.00  0.00    -0.444 OA
ATOM     29 BR   UNL     1       0.855  -0.711  -9.945  0.00  0.00    -0.008 Br
ENDBRANCH  21  24
ENDBRANCH  19  20
BRANCH  19  30
ATOM     30  C   UNL     1       0.400  -2.018  -2.207  0.00  0.00    +0.042 C 
BRANCH  30  31
ATOM     31  C   UNL     1       0.186  -0.506  -2.100  0.00  0.00    +0.071 C 
BRANCH  31  33
ATOM     32  C   UNL     1      -1.460   1.636  -1.165  0.00  0.00    +0.084 C 
ATOM     33  S   UNL     1      -1.355  -0.175  -1.204  0.00  0.00    -0.164 S 
ENDBRANCH  31  33
ENDBRANCH  30  31
ENDBRANCH  19  30
ENDBRANCH   1  19
TORSDOF 6
