REMARK  Name = ZINC40789280
REMARK  3 active torsions:
REMARK  status: ('A' for Active; 'I' for Inactive)
REMARK    1  A    between atoms: C_10  and  C_13
REMARK    2  A    between atoms: C_13  and  C_14
REMARK    3  A    between atoms: N_16  and  C_17
REMARK                            x       y       z     vdW  Elec       q    Type
REMARK                         _______ _______ _______ _____ _____    ______ ____
ROOT
ATOM      1  C   UNL     1      -0.017   1.378   0.010  0.00  0.00    +0.002 A 
ATOM      2  C   UNL     1       1.169   2.090   0.002  0.00  0.00    +0.004 A 
ATOM      3  C   UNL     1       2.381   1.424  -0.019  0.00  0.00    +0.047 A 
ATOM      4  C   UNL     1       2.408   0.040  -0.030  0.00  0.00    +0.143 A 
ATOM      5  C   UNL     1       1.213  -0.677  -0.012  0.00  0.00    +0.076 A 
ATOM      6  C   UNL     1       0.002  -0.004   0.002  0.00  0.00    +0.027 A 
ATOM      7  N   UNL     1       1.250  -2.078   0.012  0.00  0.00    -0.280 N 
ATOM      8  C   UNL     1       2.425  -2.703   0.235  0.00  0.00    +0.259 C 
ATOM      9  O   UNL     1       2.498  -3.911   0.151  0.00  0.00    -0.271 OA
ATOM     10  C   UNL     1       3.647  -1.893   0.589  0.00  0.00    +0.268 C 
ATOM     11  O   UNL     1       3.593  -0.626  -0.070  0.00  0.00    -0.477 OA
ATOM     12  H   UNL     1       0.440  -2.592  -0.130  0.00  0.00    +0.155 HD
ENDROOT
BRANCH  10  13
ATOM     13  C   UNL     1       3.693  -1.677   2.103  0.00  0.00    +0.150 C 
BRANCH  13  14
ATOM     14  C   UNL     1       4.975  -0.976   2.472  0.00  0.00    +0.217 C 
ATOM     15  O   UNL     1       5.773  -0.678   1.608  0.00  0.00    -0.276 OA
ATOM     16  N   UNL     1       5.234  -0.679   3.760  0.00  0.00    -0.311 N 
ATOM     17  H   UNL     1       4.596  -0.917   4.451  0.00  0.00    +0.149 HD
BRANCH  16  18
ATOM     18  C   UNL     1       6.480   0.003   4.119  0.00  0.00    +0.095 C 
ATOM     19  C   UNL     1       7.599  -1.032   4.320  0.00  0.00    +0.046 C 
ATOM     20  C   UNL     1       8.818  -0.365   5.002  0.00  0.00    +0.168 C 
ATOM     21  S   UNL     1       8.046   0.994   5.971  0.00  0.00    -0.029 S 
ATOM     22  O   UNL     1       8.521   2.240   5.481  0.00  0.00    -0.174 OA
ATOM     23  O   UNL     1       8.161   0.698   7.356  0.00  0.00    -0.174 OA
ATOM     24  C   UNL     1       6.290   0.777   5.455  0.00  0.00    +0.188 C 
ENDBRANCH  16  18
ENDBRANCH  13  14
ENDBRANCH  10  13
TORSDOF 3
