REMARK  Name = ZINC60319099
REMARK  12 active torsions:
REMARK  status: ('A' for Active; 'I' for Inactive)
REMARK    1  A    between atoms: C_1  and  C_2
REMARK    2  A    between atoms: C_2  and  C_3
REMARK    3  A    between atoms: C_2  and  C_4
REMARK    4  A    between atoms: C_4  and  N_5
REMARK    5  A    between atoms: C_12  and  N_14
REMARK    6  A    between atoms: C_15  and  C_17
REMARK    7  A    between atoms: C_17  and  C_19
REMARK    8  A    between atoms: C_17  and  N_30
REMARK    9  A    between atoms: C_19  and  C_20
REMARK   10  A    between atoms: C_31  and  C_33
REMARK   11  A    between atoms: C_33  and  C_34
REMARK   12  A    between atoms: C_33  and  C_35
REMARK                            x       y       z     vdW  Elec       q    Type
REMARK                         _______ _______ _______ _____ _____    ______ ____
ROOT
ATOM      1  C   UNL     1      -6.251  -4.290   6.042  0.00  0.00    +0.163 C 
ENDROOT
BRANCH   1   3
ATOM      2  N   UNL     1      -4.995  -2.237   5.468  0.00  0.00    -0.284 N 
ATOM      3  C   UNL     1      -5.401  -3.470   5.106  0.00  0.00    +0.238 C 
ATOM      4  O   UNL     1      -5.081  -3.921   4.026  0.00  0.00    -0.273 OA
ATOM      5  H   UNL     1      -5.190  -1.905   6.358  0.00  0.00    +0.155 HD
BRANCH   2  13
ATOM      6  N   UNL     1      -2.359   0.816   1.677  0.00  0.00    -0.346 N 
ATOM      7  C   UNL     1      -2.966   0.360   0.539  0.00  0.00    +0.087 A 
ATOM      8  C   UNL     1      -3.882  -0.570   0.850  0.00  0.00    +0.027 A 
ATOM      9  C   UNL     1      -3.860  -0.724   2.307  0.00  0.00    +0.002 A 
ATOM     10  C   UNL     1      -2.879   0.168   2.777  0.00  0.00    +0.049 A 
ATOM     11  C   UNL     1      -2.622   0.246   4.142  0.00  0.00    +0.028 A 
ATOM     12  C   UNL     1      -3.322  -0.548   5.022  0.00  0.00    +0.025 A 
ATOM     13  C   UNL     1      -4.292  -1.436   4.559  0.00  0.00    +0.034 A 
ATOM     14  C   UNL     1      -4.568  -1.522   3.207  0.00  0.00    +0.033 A 
BRANCH   6  15
ATOM     15  C   UNL     1      -1.308   1.836   1.720  0.00  0.00    +0.124 C 
BRANCH  15  17
ATOM     16  C   UNL     1       0.273   0.414   0.408  0.00  0.00    +0.009 C 
ATOM     17  C   UNL     1       0.062   1.156   1.730  0.00  0.00    +0.003 C 
ATOM     18  C   UNL     1       1.155   2.213   1.900  0.00  0.00    +0.009 C 
ENDBRANCH  15  17
ENDBRANCH   6  15
ENDBRANCH   2  13
ENDBRANCH   1   3
BRANCH   1  19
ATOM     19  N   UNL     1      -6.945  -5.334   5.285  0.00  0.00    -0.303 N 
ATOM     20  C   UNL     1      -6.239  -6.312   4.683  0.00  0.00    +0.216 C 
ATOM     21  O   UNL     1      -5.038  -6.378   4.842  0.00  0.00    -0.276 OA
ATOM     22  H   UNL     1      -7.912  -5.322   5.216  0.00  0.00    +0.149 HD
BRANCH  20  23
ATOM     23  C   UNL     1      -6.941  -7.322   3.812  0.00  0.00    +0.069 C 
ATOM     24  C   UNL     1      -5.923  -8.334   3.283  0.00  0.00    +0.017 C 
ATOM     25  C   UNL     1      -8.005  -8.051   4.634  0.00  0.00    +0.017 C 
ENDBRANCH  20  23
ENDBRANCH   1  19
BRANCH   1  26
ATOM     26  C   UNL     1      -5.361  -4.936   7.105  0.00  0.00    +0.069 C 
BRANCH  26  27
ATOM     27  C   UNL     1      -4.778  -3.866   7.991  0.00  0.00    -0.020 A 
ATOM     28  C   UNL     1      -3.563  -3.308   7.875  0.00  0.00    +0.087 A 
ATOM     29  N   UNL     1      -3.383  -2.373   8.858  0.00  0.00    -0.360 N 
ATOM     30  H   UNL     1      -2.583  -1.838   8.978  0.00  0.00    +0.165 HD
ATOM     31  C   UNL     1      -4.506  -2.305   9.651  0.00  0.00    +0.047 A 
ATOM     32  C   UNL     1      -5.432  -3.233   9.139  0.00  0.00    +0.003 A 
ATOM     33  C   UNL     1      -6.680  -3.380   9.747  0.00  0.00    +0.010 A 
ATOM     34  C   UNL     1      -6.998  -2.618  10.836  0.00  0.00    +0.001 A 
ATOM     35  C   UNL     1      -6.090  -1.698  11.342  0.00  0.00    +0.002 A 
ATOM     36  C   UNL     1      -4.849  -1.544  10.763  0.00  0.00    +0.026 A 
ENDBRANCH  26  27
ENDBRANCH   1  26
TORSDOF 8
