REMARK  Name = ZINC40657996
REMARK  5 active torsions:
REMARK  status: ('A' for Active; 'I' for Inactive)
REMARK    1  A    between atoms: C_6  and  C_7
REMARK    2  A    between atoms: N_9  and  N_10
REMARK    3  A    between atoms: C_12  and  N_26
REMARK    4  A    between atoms: C_13  and  N_17
REMARK    5  A    between atoms: N_17  and  C_18
REMARK                            x       y       z     vdW  Elec       q    Type
REMARK                         _______ _______ _______ _____ _____    ______ ____
ROOT
ATOM      1  N   UNL     1      -2.487  -2.914   0.947  0.00  0.00    -0.246 N 
ATOM      2  C   UNL     1      -2.454  -4.277   0.693  0.00  0.00    +0.171 A 
ATOM      3  C   UNL     1      -3.634  -4.983   0.474  0.00  0.00    +0.207 A 
ATOM      4  C   UNL     1      -3.547  -6.349   0.224  0.00  0.00    +0.159 A 
ATOM      5  N   UNL     1      -2.347  -6.927   0.202  0.00  0.00    -0.218 NA
ATOM      6  C   UNL     1      -1.254  -6.224   0.414  0.00  0.00    +0.225 A 
ATOM      7  N   UNL     1      -1.294  -4.928   0.649  0.00  0.00    -0.217 NA
ATOM      8  H   UNL     1      -3.337  -2.447   0.977  0.00  0.00    +0.172 HD
ENDROOT
BRANCH   1  11
ATOM      9  C   UNL     1      -1.326  -0.888   1.407  0.00  0.00    +0.260 C 
ATOM     10  O   UNL     1      -2.390  -0.302   1.444  0.00  0.00    -0.269 OA
ATOM     11  N   UNL     1      -1.294  -2.212   1.160  0.00  0.00    -0.231 N 
ATOM     12  H   UNL     1      -0.444  -2.679   1.129  0.00  0.00    +0.173 HD
BRANCH   9  18
ATOM     13  C   UNL     1      -0.098   1.225   1.887  0.00  0.00    +0.016 A 
ATOM     14  C   UNL     1       1.080   1.911   2.096  0.00  0.00    +0.039 A 
ATOM     15  C   UNL     1       2.292   1.240   2.053  0.00  0.00    +0.123 A 
ATOM     16  C   UNL     1       2.328  -0.122   1.799  0.00  0.00    +0.039 A 
ATOM     17  C   UNL     1       1.157  -0.818   1.589  0.00  0.00    +0.016 A 
ATOM     18  C   UNL     1      -0.067  -0.147   1.631  0.00  0.00    +0.038 A 
ATOM     19  F   UNL     1       3.443   1.917   2.258  0.00  0.00    -0.205 F 
ENDBRANCH   9  18
ENDBRANCH   1  11
BRANCH   3  20
ATOM     20  N   UNL     1      -4.946  -4.299   0.508  0.00  0.00    +0.063 N 
ATOM     21  O   UNL     1      -5.407  -3.826  -0.505  0.00  0.00    -0.126 OA
ATOM     22  O   UNL     1      -5.556  -4.213   1.548  0.00  0.00    -0.126 OA
ENDBRANCH   3  20
BRANCH   4  23
ATOM     23  N   UNL     1      -4.693  -7.097   0.000  0.00  0.00    -0.295 N 
ATOM     24  H   UNL     1      -5.553  -6.656  -0.078  0.00  0.00    +0.154 HD
BRANCH  23  25
ATOM     25  C   UNL     1      -4.608  -8.491  -0.114  0.00  0.00    +0.068 A 
ATOM     26  C   UNL     1      -3.548  -9.172   0.468  0.00  0.00    +0.029 A 
ATOM     27  C   UNL     1      -3.466 -10.547   0.355  0.00  0.00    +0.040 A 
ATOM     28  C   UNL     1      -4.440 -11.246  -0.338  0.00  0.00    +0.126 A 
ATOM     29  C   UNL     1      -5.499 -10.569  -0.920  0.00  0.00    +0.078 A 
ATOM     30  C   UNL     1      -5.589  -9.194  -0.805  0.00  0.00    +0.147 A 
ATOM     31  F   UNL     1      -6.625  -8.534  -1.367  0.00  0.00    -0.203 F 
ATOM     32  F   UNL     1      -4.357 -12.590  -0.447  0.00  0.00    -0.205 F 
ENDBRANCH  23  25
ENDBRANCH   4  23
TORSDOF 5
