REMARK  Name = ZINC09598305
REMARK  10 active torsions:
REMARK  status: ('A' for Active; 'I' for Inactive)
REMARK    1  A    between atoms: C_1  and  C_2
REMARK    2  A    between atoms: C_7  and  N_8
REMARK    3  A    between atoms: C_9  and  C_11
REMARK    4  A    between atoms: C_12  and  C_41
REMARK    5  A    between atoms: C_16  and  C_18
REMARK    6  A    between atoms: C_28  and  C_31
REMARK    7  A    between atoms: C_34  and  O_39
REMARK    8  A    between atoms: C_35  and  O_37
REMARK    9  A    between atoms: O_37  and  C_38
REMARK   10  A    between atoms: O_39  and  C_40
REMARK                            x       y       z     vdW  Elec       q    Type
REMARK                         _______ _______ _______ _____ _____    ______ ____
ROOT
ATOM      1  C   UNL     1      -4.947   3.647   0.095  0.00  0.00    +0.043 C 
ATOM      2  C   UNL     1      -6.037   2.865   0.156  0.00  0.00    +0.014 C 
ATOM      3  N   UNL     1      -7.287   3.420   0.189  0.00  0.00    -0.321 N 
ATOM      4  C   UNL     1      -7.460   4.728   0.553  0.00  0.00    +0.016 C 
ATOM      5  C   UNL     1      -6.424   5.593   0.516  0.00  0.00    +0.024 C 
ATOM      6  C   UNL     1      -5.062   5.142   0.059  0.00  0.00    +0.093 C 
ATOM      7  C   UNL     1      -6.585   6.935   0.902  0.00  0.00    +0.162 C 
ATOM      8  O   UNL     1      -5.634   7.689   0.849  0.00  0.00    -0.292 OA
ATOM      9  C   UNL     1      -7.913   7.455   1.381  0.00  0.00    +0.088 C 
ATOM     10  C   UNL     1      -8.698   6.304   2.020  0.00  0.00    +0.032 C 
ATOM     11  C   UNL     1      -8.832   5.178   0.992  0.00  0.00    +0.059 C 
ATOM     12  C   UNL     1      -5.883   1.367   0.191  0.00  0.00    +0.061 C 
ATOM     13  H   UNL     1      -8.165   2.814  -0.079  0.00  0.00    +0.152 HD
ENDROOT
BRANCH   6  14
ATOM     14  C   UNL     1      -4.834   5.623  -1.351  0.00  0.00    -0.000 A 
ATOM     15  C   UNL     1      -5.665   5.195  -2.370  0.00  0.00    +0.007 A 
ATOM     16  C   UNL     1      -5.457   5.636  -3.663  0.00  0.00    +0.000 A 
ATOM     17  C   UNL     1      -4.418   6.505  -3.940  0.00  0.00    +0.003 A 
ATOM     18  C   UNL     1      -3.586   6.934  -2.923  0.00  0.00    +0.038 A 
ATOM     19  C   UNL     1      -3.796   6.497  -1.626  0.00  0.00    +0.127 A 
ATOM     20  F   UNL     1      -2.987   6.919  -0.631  0.00  0.00    -0.205 F 
ENDBRANCH   6  14
BRANCH  10  21
ATOM     21  C   UNL     1     -10.068   6.785   2.425  0.00  0.00    -0.040 A 
ATOM     22  C   UNL     1     -10.927   7.303   1.474  0.00  0.00    +0.008 A 
ATOM     23  C   UNL     1     -12.184   7.745   1.841  0.00  0.00    +0.049 A 
ATOM     24  C   UNL     1     -12.586   7.669   3.165  0.00  0.00    +0.161 A 
ATOM     25  C   UNL     1     -11.722   7.147   4.122  0.00  0.00    +0.162 A 
ATOM     26  C   UNL     1     -10.465   6.701   3.747  0.00  0.00    +0.053 A 
BRANCH  25  27
ATOM     27  O   UNL     1     -12.112   7.070   5.423  0.00  0.00    -0.491 OA
ATOM     28  C   UNL     1     -11.173   6.523   6.351  0.00  0.00    +0.277 C 
ENDBRANCH  25  27
BRANCH  24  29
ATOM     29  O   UNL     1     -13.823   8.104   3.527  0.00  0.00    -0.491 OA
ATOM     30  C   UNL     1     -14.656   8.628   2.491  0.00  0.00    +0.277 C 
ENDBRANCH  24  29
ENDBRANCH  10  21
BRANCH   1  32
ATOM     31  N   UNL     1      -3.139   2.629  -1.100  0.00  0.00    -0.281 N 
ATOM     32  C   UNL     1      -3.663   3.048   0.068  0.00  0.00    +0.247 C 
ATOM     33  O   UNL     1      -3.034   2.911   1.102  0.00  0.00    -0.270 OA
ATOM     34  H   UNL     1      -3.665   2.834  -2.044  0.00  0.00    +0.155 HD
BRANCH  31  41
ATOM     35  C   UNL     1      -1.575   2.698  -3.477  0.00  0.00    +0.045 C 
ATOM     36  C   UNL     1      -1.131   1.940  -2.252  0.00  0.00    -0.029 A 
ATOM     37  C   UNL     1       0.066   1.252  -2.261  0.00  0.00    +0.005 A 
ATOM     38  C   UNL     1       0.474   0.556  -1.138  0.00  0.00    +0.000 A 
ATOM     39  C   UNL     1      -0.316   0.546  -0.002  0.00  0.00    +0.002 A 
ATOM     40  C   UNL     1      -1.516   1.228   0.012  0.00  0.00    +0.023 A 
ATOM     41  C   UNL     1      -1.926   1.933  -1.113  0.00  0.00    +0.037 A 
ENDBRANCH  31  41
ENDBRANCH   1  32
TORSDOF 6
