REMARK  Name = ZINC30829663
REMARK  10 active torsions:
REMARK  status: ('A' for Active; 'I' for Inactive)
REMARK    1  A    between atoms: C_1  and  C_2
REMARK    2  A    between atoms: C_4  and  N_21
REMARK    3  A    between atoms: C_6  and  C_9
REMARK    4  A    between atoms: C_7  and  O_8
REMARK    5  A    between atoms: C_13  and  C_18
REMARK    6  A    between atoms: C_18  and  C_19
REMARK    7  A    between atoms: C_18  and  C_20
REMARK    8  A    between atoms: N_21  and  C_22
REMARK    9  A    between atoms: C_22  and  N_24
REMARK   10  A    between atoms: C_25  and  C_27
REMARK                            x       y       z     vdW  Elec       q    Type
REMARK                         _______ _______ _______ _____ _____    ______ ____
ROOT
ATOM      1  C   UNL     1       2.548   5.148  -0.364  0.00  0.00    +0.047 C 
ATOM      2  C   UNL     1       2.500   3.648  -0.227  0.00  0.00    -0.007 A 
ATOM      3  C   UNL     1       1.282   2.999  -0.173  0.00  0.00    +0.030 A 
ATOM      4  C   UNL     1       1.229   1.616  -0.046  0.00  0.00    +0.034 A 
ATOM      5  C   UNL     1       2.399   0.879   0.033  0.00  0.00    +0.040 A 
ATOM      6  C   UNL     1       3.633   1.528  -0.025  0.00  0.00    +0.080 A 
ATOM      7  C   UNL     1       3.679   2.923  -0.153  0.00  0.00    +0.132 A 
ENDROOT
BRANCH   6   8
ATOM      8  C   UNL     1       4.885   0.750   0.053  0.00  0.00    +0.232 A 
ATOM      9  N   UNL     1       4.953  -0.552   0.178  0.00  0.00    -0.209 NA
ATOM     10  C   UNL     1       6.260  -0.919   0.214  0.00  0.00    +0.110 A 
ATOM     11  C   UNL     1       6.913  -2.149   0.331  0.00  0.00    +0.035 A 
ATOM     12  C   UNL     1       8.290  -2.192   0.343  0.00  0.00    -0.043 A 
ATOM     13  C   UNL     1       9.030  -1.024   0.240  0.00  0.00    +0.007 A 
ATOM     14  C   UNL     1       8.398   0.198   0.124  0.00  0.00    +0.049 A 
ATOM     15  C   UNL     1       7.014   0.261   0.110  0.00  0.00    +0.156 A 
ATOM     16  O   UNL     1       6.125   1.274   0.012  0.00  0.00    -0.435 OA
BRANCH  12  17
ATOM     17  C   UNL     1       8.996  -3.517   0.469  0.00  0.00    +0.013 C 
ATOM     18  C   UNL     1       9.879  -3.743  -0.760  0.00  0.00    +0.012 C 
ATOM     19  C   UNL     1       9.864  -3.515   1.728  0.00  0.00    +0.012 C 
ENDBRANCH  12  17
ENDBRANCH   6   8
BRANCH   7  20
ATOM     20  O   UNL     1       4.876   3.563  -0.205  0.00  0.00    -0.506 OA
ATOM     21  H   UNL     1       5.811   2.986  -0.147  0.00  0.00    +0.292 HD
ENDBRANCH   7  20
BRANCH   4  22
ATOM     22  N   UNL     1      -0.011   0.966   0.007  0.00  0.00    -0.297 N 
ATOM     23  H   UNL     1      -0.813   1.363   0.646  0.00  0.00    +0.154 HD
BRANCH  22  24
ATOM     24  C   UNL     1      -0.221  -0.147  -0.724  0.00  0.00    +0.141 C 
ATOM     25  S   UNL     1       1.058  -0.823  -1.639  0.00  0.00    -0.018 S 
BRANCH  24  26
ATOM     26  N   UNL     1      -1.438  -0.727  -0.734  0.00  0.00    -0.263 N 
ATOM     27  C   UNL     1      -1.647  -1.839  -1.465  0.00  0.00    +0.252 C 
ATOM     28  O   UNL     1      -0.740  -2.320  -2.115  0.00  0.00    -0.270 OA
ATOM     29  H   UNL     1      -2.259  -0.292  -0.146  0.00  0.00    +0.157 HD
BRANCH  27  30
ATOM     30  C   UNL     1      -2.980  -2.474  -1.477  0.00  0.00    +0.072 A 
ATOM     31  C   UNL     1      -4.024  -1.929  -0.727  0.00  0.00    +0.016 A 
ATOM     32  C   UNL     1      -5.267  -2.524  -0.746  0.00  0.00    +0.001 A 
ATOM     33  C   UNL     1      -5.481  -3.667  -1.498  0.00  0.00    +0.003 A 
ATOM     34  C   UNL     1      -4.453  -4.218  -2.239  0.00  0.00    +0.039 A 
ATOM     35  C   UNL     1      -3.202  -3.629  -2.234  0.00  0.00    +0.135 A 
ATOM     36  F   UNL     1      -2.196  -4.168  -2.958  0.00  0.00    -0.205 F 
ENDBRANCH  27  30
ENDBRANCH  24  26
ENDBRANCH  22  24
ENDBRANCH   4  22
TORSDOF 7
