REMARK  Name = ZINC39898144
REMARK  10 active torsions:
REMARK  status: ('A' for Active; 'I' for Inactive)
REMARK    1  A    between atoms: C_1  and  C_2
REMARK    2  A    between atoms: C_2  and  C_3
REMARK    3  A    between atoms: C_2  and  C_4
REMARK    4  A    between atoms: C_2  and  C_5
REMARK    5  A    between atoms: C_8  and  C_11
REMARK    6  A    between atoms: C_14  and  C_26
REMARK    7  A    between atoms: N_21  and  C_22
REMARK    8  A    between atoms: C_22  and  C_23
REMARK    9  A    between atoms: C_23  and  O_24
REMARK   10  A    between atoms: O_24  and  C_25
REMARK                            x       y       z     vdW  Elec       q    Type
REMARK                         _______ _______ _______ _____ _____    ______ ____
ROOT
ATOM      1  C   UNL     1       2.707  -1.868  -4.752  0.00  0.00    +0.141 C 
ATOM      2  C   UNL     1       2.752  -0.775  -5.784  0.00  0.00    +0.035 A 
ATOM      3  C   UNL     1       2.059   0.075  -6.587  0.00  0.00    +0.075 A 
ATOM      4  N   UNL     1       2.986   0.805  -7.276  0.00  0.00    -0.276 N 
ATOM      5  N   UNL     1       4.171   0.443  -6.934  0.00  0.00    -0.168 NA
ATOM      6  H   UNL     1       2.780   1.494  -7.927  0.00  0.00    +0.189 HD
ATOM      7  C   UNL     1       4.119  -0.515  -6.030  0.00  0.00    +0.153 A 
ATOM      8  C   UNL     1       4.912  -1.419  -5.177  0.00  0.00    +0.268 C 
ATOM      9  O   UNL     1       6.126  -1.453  -5.145  0.00  0.00    -0.268 OA
ATOM     10  N   UNL     1       4.102  -2.200  -4.440  0.00  0.00    -0.283 N 
ENDROOT
BRANCH   3  11
ATOM     11  C   UNL     1       0.588   0.188  -6.694  0.00  0.00    +0.048 A 
ATOM     12  C   UNL     1      -0.055  -0.146  -7.885  0.00  0.00    +0.033 A 
ATOM     13  C   UNL     1      -1.429  -0.039  -7.979  0.00  0.00    +0.042 A 
ATOM     14  C   UNL     1      -2.170   0.399  -6.894  0.00  0.00    +0.024 A 
ATOM     15  C   UNL     1      -1.542   0.733  -5.709  0.00  0.00    +0.053 A 
ATOM     16  C   UNL     1      -0.165   0.625  -5.598  0.00  0.00    +0.188 A 
ATOM     17  O   UNL     1       0.453   0.947  -4.431  0.00  0.00    -0.287 OA
ATOM     18 CL   UNL     1      -2.229  -0.454  -9.462  0.00  0.00    -0.084 Cl
ENDBRANCH   3  11
BRANCH   1  22
ATOM     19  C   UNL     1       0.707  -0.490  -1.238  0.00  0.00    -0.042 A 
ATOM     20  C   UNL     1       0.036  -1.284  -2.148  0.00  0.00    +0.004 A 
ATOM     21  C   UNL     1       0.683  -1.730  -3.286  0.00  0.00    +0.006 A 
ATOM     22  C   UNL     1       2.001  -1.381  -3.513  0.00  0.00    -0.022 A 
ATOM     23  C   UNL     1       2.672  -0.586  -2.603  0.00  0.00    +0.006 A 
ATOM     24  C   UNL     1       2.024  -0.137  -1.467  0.00  0.00    +0.004 A 
BRANCH  19  26
ATOM     25  C   UNL     1      -0.019   1.526   0.010  0.00  0.00    +0.015 C 
ATOM     26  C   UNL     1       0.002  -0.004   0.002  0.00  0.00    -0.013 C 
ATOM     27  C   UNL     1       0.742  -0.511   1.242  0.00  0.00    +0.015 C 
ATOM     28  C   UNL     1      -1.433  -0.534   0.013  0.00  0.00    +0.015 C 
ENDBRANCH  19  26
ENDBRANCH   1  22
BRANCH  10  29
ATOM     29  C   UNL     1       4.541  -3.217  -3.481  0.00  0.00    +0.137 C 
BRANCH  29  30
ATOM     30  C   UNL     1       4.692  -4.561  -4.196  0.00  0.00    +0.178 C 
BRANCH  30  31
ATOM     31  O   UNL     1       5.744  -4.472  -5.159  0.00  0.00    -0.381 OA
ATOM     32  C   UNL     1       5.969  -5.681  -5.887  0.00  0.00    +0.194 C 
ENDBRANCH  30  31
ENDBRANCH  29  30
ENDBRANCH  10  29
TORSDOF 6
