REMARK  Name = ZINC33703367
REMARK  6 active torsions:
REMARK  status: ('A' for Active; 'I' for Inactive)
REMARK    1  A    between atoms: C_10  and  C_11
REMARK    2  A    between atoms: N_19  and  C_22
REMARK    3  A    between atoms: C_26  and  N_28
REMARK    4  A    between atoms: C_31  and  C_33
REMARK    5  A    between atoms: C_31  and  C_40
REMARK    6  A    between atoms: C_33  and  C_34
REMARK                            x       y       z     vdW  Elec       q    Type
REMARK                         _______ _______ _______ _____ _____    ______ ____
ROOT
ATOM      1  C   UNL     1       0.179   1.295   0.334  0.00  0.00    -0.026 C 
ATOM      2  C   UNL     1      -0.620   1.483  -0.887  0.00  0.00    +0.077 C 
ATOM      3  C   UNL     1      -1.340   2.867  -0.624  0.00  0.00    +0.086 C 
ATOM      4  C   UNL     1      -2.271   2.780  -1.802  0.00  0.00    +0.229 C 
ATOM      5  O   UNL     1      -3.417   3.172  -1.861  0.00  0.00    -0.275 OA
ATOM      6  N   UNL     1      -1.557   2.167  -2.793  0.00  0.00    -0.210 N 
ATOM      7  C   UNL     1      -0.437   1.528  -2.322  0.00  0.00    +0.229 C 
ATOM      8  O   UNL     1       0.497   1.098  -2.964  0.00  0.00    -0.275 OA
ATOM      9  C   UNL     1      -1.862   2.516   0.774  0.00  0.00    +0.048 C 
ATOM     10  N   UNL     1      -0.662   1.889   1.425  0.00  0.00    +0.395 N 
ATOM     11  H   UNL     1      -0.971   1.096   2.122  0.00  0.00    -0.083 HD
ATOM     12  H   UNL     1      -0.078   2.646   1.968  0.00  0.00    -0.083 HD
ENDROOT
BRANCH   1  22
ATOM     13  C   UNL     1       4.728   0.337  -1.809  0.00  0.00    +0.001 A 
ATOM     14  C   UNL     1       3.522  -0.356  -1.717  0.00  0.00    +0.001 A 
ATOM     15  C   UNL     1       2.456   0.177  -1.060  0.00  0.00    +0.009 A 
ATOM     16  C   UNL     1       2.570   1.445  -0.464  0.00  0.00    -0.016 A 
ATOM     17  C   UNL     1       3.795   2.152  -0.563  0.00  0.00    -0.018 A 
ATOM     18  C   UNL     1       4.872   1.571  -1.254  0.00  0.00    +0.008 A 
ATOM     19  C   UNL     1       3.910   3.417   0.038  0.00  0.00    +0.008 A 
ATOM     20  C   UNL     1       2.846   3.948   0.699  0.00  0.00    +0.001 A 
ATOM     21  C   UNL     1       1.640   3.256   0.791  0.00  0.00    +0.002 A 
ATOM     22  C   UNL     1       1.492   2.028   0.222  0.00  0.00    -0.053 A 
ENDBRANCH   1  22
BRANCH   6  23
ATOM     23  C   UNL     1      -1.928   2.188  -4.145  0.00  0.00    +0.046 A 
ATOM     24  C   UNL     1      -3.078   2.857  -4.540  0.00  0.00    +0.024 A 
ATOM     25  C   UNL     1      -3.441   2.877  -5.872  0.00  0.00    +0.004 A 
ATOM     26  C   UNL     1      -2.660   2.230  -6.812  0.00  0.00    +0.033 A 
ATOM     27  C   UNL     1      -1.514   1.562  -6.422  0.00  0.00    +0.128 A 
ATOM     28  C   UNL     1      -1.143   1.544  -5.091  0.00  0.00    +0.056 A 
BRANCH  27  29
ATOM     29  N   UNL     1      -0.681   0.871  -7.431  0.00  0.00    +0.056 N 
ATOM     30  O   UNL     1      -1.005   0.890  -8.605  0.00  0.00    -0.126 OA
ATOM     31  O   UNL     1       0.329   0.283  -7.088  0.00  0.00    -0.126 OA
ENDBRANCH  27  29
ENDBRANCH   6  23
BRANCH   9  32
ATOM     32  C   UNL     1      -3.004   1.536   0.688  0.00  0.00    +0.346 C 
ATOM     33  O   UNL     1      -3.720   1.527  -0.285  0.00  0.00    -0.248 OA
ATOM     34  O   UNL     1      -3.224   0.672   1.692  0.00  0.00    -0.248 OA
ENDBRANCH   9  32
BRANCH   9  35
ATOM     35  C   UNL     1      -2.288   3.778   1.527  0.00  0.00    +0.003 C 
BRANCH  35  36
ATOM     36  C   UNL     1      -2.917   3.385   2.866  0.00  0.00    -0.012 C 
ATOM     37  C   UNL     1      -3.543   4.620   3.517  0.00  0.00    +0.003 C 
ATOM     38  C   UNL     1      -4.171   4.227   4.856  0.00  0.00    +0.000 C 
ATOM     39  C   UNL     1      -3.092   3.656   5.777  0.00  0.00    +0.000 C 
ATOM     40  C   UNL     1      -2.467   2.421   5.126  0.00  0.00    +0.000 C 
ATOM     41  C   UNL     1      -1.838   2.814   3.788  0.00  0.00    +0.003 C 
ENDBRANCH  35  36
ENDBRANCH   9  35
TORSDOF 6
