REMARK  Name = ZINC65247934
REMARK  7 active torsions:
REMARK  status: ('A' for Active; 'I' for Inactive)
REMARK    1  A    between atoms: C_1  and  C_2
REMARK    2  A    between atoms: C_2  and  C_3
REMARK    3  A    between atoms: C_6  and  C_9
REMARK    4  A    between atoms: C_9  and  N_10
REMARK    5  A    between atoms: C_11  and  C_13
REMARK    6  A    between atoms: C_13  and  C_14
REMARK    7  A    between atoms: C_24  and  C_26
REMARK                            x       y       z     vdW  Elec       q    Type
REMARK                         _______ _______ _______ _____ _____    ______ ____
ROOT
ATOM      1  C   UNL     1       4.979  -0.226  -8.780  0.00  0.00    +0.222 C 
ATOM      2  N   UNL     1       6.167  -1.014  -8.406  0.00  0.00    -0.174 NA
ATOM      3  N   UNL     1       7.299  -0.535  -8.312  0.00  0.00    -0.082 NA
ATOM      4  C   UNL     1       7.578   0.780  -8.506  0.00  0.00    +0.276 C 
ATOM      5  O   UNL     1       8.712   1.196  -8.516  0.00  0.00    -0.270 OA
ATOM      6  C   UNL     1       6.401   1.685  -8.708  0.00  0.00    +0.192 C 
ATOM      7  N   UNL     1       5.444   0.902  -9.558  0.00  0.00    -0.187 NA
ATOM      8  N   UNL     1       4.620   1.886  -9.986  0.00  0.00    -0.275 N 
ATOM      9  C   UNL     1       5.484   2.949 -10.344  0.00  0.00    +0.047 C 
ATOM     10  C   UNL     1       6.622   2.892  -9.578  0.00  0.00    +0.027 C 
ATOM     11  H   UNL     1       3.652   1.866 -10.038  0.00  0.00    +0.167 HD
ENDROOT
BRANCH   9  12
ATOM     12  C   UNL     1       5.197   3.975 -11.372  0.00  0.00    -0.003 A 
ATOM     13  C   UNL     1       6.131   4.975 -11.642  0.00  0.00    +0.012 A 
ATOM     14  C   UNL     1       5.860   5.929 -12.601  0.00  0.00    +0.039 A 
ATOM     15  C   UNL     1       4.661   5.895 -13.296  0.00  0.00    +0.123 A 
ATOM     16  C   UNL     1       3.730   4.904 -13.030  0.00  0.00    +0.039 A 
ATOM     17  C   UNL     1       3.995   3.942 -12.078  0.00  0.00    +0.012 A 
ATOM     18  F   UNL     1       4.400   6.831 -14.234  0.00  0.00    -0.205 F 
ENDBRANCH   9  12
BRANCH   1  19
ATOM     19  C   UNL     1       4.263   0.268  -7.522  0.00  0.00    +0.141 C 
BRANCH  19  21
ATOM     20  N   UNL     1       3.149  -0.719  -5.546  0.00  0.00    -0.311 N 
ATOM     21  C   UNL     1       3.808  -0.914  -6.705  0.00  0.00    +0.217 C 
ATOM     22  O   UNL     1       4.034  -2.041  -7.092  0.00  0.00    -0.276 OA
ATOM     23  H   UNL     1       2.969   0.182  -5.236  0.00  0.00    +0.149 HD
BRANCH  20  24
ATOM     24  C   UNL     1       2.707  -1.868  -4.752  0.00  0.00    +0.139 C 
BRANCH  24  28
ATOM     25  C   UNL     1       0.707  -0.490  -1.238  0.00  0.00    -0.048 A 
ATOM     26  C   UNL     1      -0.011  -0.719  -2.397  0.00  0.00    +0.004 A 
ATOM     27  C   UNL     1       0.636  -1.164  -3.534  0.00  0.00    +0.005 A 
ATOM     28  C   UNL     1       2.002  -1.381  -3.513  0.00  0.00    -0.030 A 
ATOM     29  C   UNL     1       2.720  -1.152  -2.354  0.00  0.00    +0.005 A 
ATOM     30  C   UNL     1       2.073  -0.702  -1.218  0.00  0.00    +0.004 A 
BRANCH  25  32
ATOM     31  C   UNL     1      -0.019   1.526   0.010  0.00  0.00    +0.009 C 
ATOM     32  C   UNL     1       0.002  -0.004   0.002  0.00  0.00    +0.032 C 
ENDBRANCH  25  32
ENDBRANCH  24  28
ENDBRANCH  20  24
ENDBRANCH  19  21
ENDBRANCH   1  19
TORSDOF 6
