REMARK  Name = ZINC33821871
REMARK  8 active torsions:
REMARK  status: ('A' for Active; 'I' for Inactive)
REMARK    1  A    between atoms: C_1  and  C_2
REMARK    2  A    between atoms: C_2  and  C_3
REMARK    3  A    between atoms: C_2  and  C_4
REMARK    4  A    between atoms: C_2  and  C_5
REMARK    5  A    between atoms: C_5  and  C_7
REMARK    6  A    between atoms: C_9  and  C_29
REMARK    7  A    between atoms: C_11  and  C_24
REMARK    8  A    between atoms: C_11  and  C_26
REMARK                            x       y       z     vdW  Elec       q    Type
REMARK                         _______ _______ _______ _____ _____    ______ ____
ROOT
ATOM      1  C   UNL     1       4.287  -0.714   1.623  0.00  0.00    +0.150 C 
ATOM      2  C   UNL     1       3.884  -1.181   0.202  0.00  0.00    +0.078 C 
ATOM      3  C   UNL     1       5.174  -1.031  -0.652  0.00  0.00    +0.163 C 
ATOM      4  C   UNL     1       6.273  -1.062   0.423  0.00  0.00    +0.127 C 
ATOM      5  N   UNL     1       5.667  -0.253   1.513  0.00  0.00    -0.310 N 
ATOM      6  C   UNL     1       6.480  -0.275   2.620  0.00  0.00    +0.038 A 
ATOM      7  C   UNL     1       6.015  -0.440   3.910  0.00  0.00    +0.025 A 
ATOM      8  C   UNL     1       6.906  -0.456   4.967  0.00  0.00    +0.017 A 
ATOM      9  C   UNL     1       8.265  -0.307   4.744  0.00  0.00    +0.019 A 
ATOM     10  C   UNL     1       8.749  -0.138   3.460  0.00  0.00    +0.025 A 
ATOM     11  C   UNL     1       7.865  -0.118   2.390  0.00  0.00    -0.003 A 
ATOM     12  C   UNL     1       8.335   0.067   0.996  0.00  0.00    +0.007 C 
ATOM     13  C   UNL     1       7.553  -0.399   0.007  0.00  0.00    -0.002 C 
ATOM     14 BR   UNL     1       9.466  -0.336   6.205  0.00  0.00    -0.050 Br
ENDROOT
BRANCH   2  15
ATOM     15  C   UNL     1       2.788  -0.304  -0.347  0.00  0.00    -0.037 A 
ATOM     16  C   UNL     1       2.961   1.067  -0.451  0.00  0.00    +0.024 A 
ATOM     17  C   UNL     1       1.934   1.840  -0.958  0.00  0.00    +0.111 A 
ATOM     18  N   UNL     1       0.800   1.286  -1.341  0.00  0.00    -0.263 NA
ATOM     19  C   UNL     1       0.600  -0.014  -1.257  0.00  0.00    +0.111 A 
ATOM     20  C   UNL     1       1.582  -0.850  -0.759  0.00  0.00    +0.024 A 
ENDBRANCH   2  15
BRANCH   3  21
ATOM     21  C   UNL     1       5.180   0.282  -1.391  0.00  0.00    +0.233 C 
ATOM     22  O   UNL     1       5.889   1.189  -1.010  0.00  0.00    -0.274 OA
ATOM     23  N   UNL     1       4.399   0.448  -2.476  0.00  0.00    -0.328 N 
ATOM     24  H   UNL     1       4.403   1.407  -3.016  0.00  0.00    +0.145 HD
ATOM     25  H   UNL     1       3.756  -0.374  -2.823  0.00  0.00    +0.145 HD
ENDBRANCH   3  21
BRANCH   1  26
ATOM     26  C   UNL     1       3.396   0.416   2.071  0.00  0.00    +0.159 C 
ATOM     27  O   UNL     1       3.707   1.559   1.837  0.00  0.00    -0.295 OA
BRANCH  26  29
ATOM     28  C   UNL     1       1.349   1.422   3.045  0.00  0.00    +0.018 C 
ATOM     29  C   UNL     1       2.117   0.119   2.810  0.00  0.00    +0.022 C 
ATOM     30  C   UNL     1       1.258  -0.836   1.979  0.00  0.00    +0.018 C 
ATOM     31  C   UNL     1       2.444  -0.530   4.156  0.00  0.00    +0.018 C 
ENDBRANCH  26  29
ENDBRANCH   1  26
BRANCH   3  32
ATOM     32  C   UNL     1       5.320  -2.159  -1.586  0.00  0.00    +0.082 C 
ATOM     33  N   UNL     1       5.434  -3.030  -2.307  0.00  0.00    -0.195 NA
ENDBRANCH   3  32
TORSDOF 5
