REMARK  Name = ZINC63562442
REMARK  8 active torsions:
REMARK  status: ('A' for Active; 'I' for Inactive)
REMARK    1  A    between atoms: C_1  and  C_2
REMARK    2  A    between atoms: C_2  and  C_3
REMARK    3  A    between atoms: C_3  and  C_5
REMARK    4  A    between atoms: C_3  and  S_19
REMARK    5  A    between atoms: N_7  and  N_8
REMARK    6  A    between atoms: C_9  and  C_10
REMARK    7  A    between atoms: C_13  and  O_17
REMARK    8  A    between atoms: S_19  and  C_20
REMARK                            x       y       z     vdW  Elec       q    Type
REMARK                         _______ _______ _______ _____ _____    ______ ____
ROOT
ATOM      1  C   UNL     1      -1.153  -1.956   0.160  0.00  0.00    +0.245 C 
ATOM      2  O   UNL     1      -1.033  -2.515   1.230  0.00  0.00    -0.273 OA
ATOM      3  N   UNL     1      -1.019  -2.657  -0.984  0.00  0.00    -0.206 N 
ATOM      4  H   UNL     1      -1.115  -2.210  -1.840  0.00  0.00    +0.177 HD
ENDROOT
BRANCH   3   5
ATOM      5  N   UNL     1      -0.743  -4.029  -0.937  0.00  0.00    -0.188 NA
ATOM      6  C   UNL     1      -0.615  -4.704  -2.039  0.00  0.00    +0.138 C 
BRANCH   6   7
ATOM      7  C   UNL     1      -0.324  -6.148  -1.989  0.00  0.00    -0.003 A 
ATOM      8  C   UNL     1      -0.192  -6.794  -0.757  0.00  0.00    +0.028 A 
ATOM      9  C   UNL     1       0.080  -8.145  -0.716  0.00  0.00    +0.061 A 
ATOM     10  C   UNL     1       0.223  -8.864  -1.896  0.00  0.00    +0.145 A 
ATOM     11  C   UNL     1       0.093  -8.225  -3.123  0.00  0.00    +0.061 A 
ATOM     12  C   UNL     1      -0.186  -6.876  -3.174  0.00  0.00    +0.028 A 
ATOM     13 BR   UNL     1       0.289  -9.210  -4.726  0.00  0.00    -0.046 Br
ATOM     14 BR   UNL     1       0.260  -9.021   0.951  0.00  0.00    -0.046 Br
BRANCH  10  15
ATOM     15  O   UNL     1       0.492 -10.195  -1.851  0.00  0.00    -0.505 OA
ATOM     16  H   UNL     1      -0.296 -10.755  -1.836  0.00  0.00    +0.292 HD
ENDBRANCH  10  15
ENDBRANCH   6   7
ENDBRANCH   3   5
BRANCH   1  17
ATOM     17  C   UNL     1      -1.450  -0.480   0.109  0.00  0.00    +0.137 C 
BRANCH  17  19
ATOM     18  C   UNL     1      -0.480   1.774  -0.363  0.00  0.00    +0.005 C 
ATOM     19  C   UNL     1      -0.158   0.291  -0.168  0.00  0.00    +0.020 C 
ENDBRANCH  17  19
BRANCH  17  20
ATOM     20  S   UNL     1      -2.143   0.052   1.699  0.00  0.00    -0.102 S 
BRANCH  20  21
ATOM     21  C   UNL     1      -3.814  -0.654   1.708  0.00  0.00    +0.236 C 
ATOM     22  N   UNL     1      -4.585  -0.138   0.570  0.00  0.00    -0.355 N 
ATOM     23  C   UNL     1      -4.922  -1.156  -0.168  0.00  0.00    +0.061 A 
ATOM     24  C   UNL     1      -5.686  -1.276  -1.417  0.00  0.00    +0.027 A 
ATOM     25  C   UNL     1      -5.881  -2.493  -1.964  0.00  0.00    +0.002 A 
ATOM     26  C   UNL     1      -5.380  -3.672  -1.386  0.00  0.00    +0.002 A 
ATOM     27  C   UNL     1      -4.667  -3.675  -0.242  0.00  0.00    +0.027 A 
ATOM     28  C   UNL     1      -4.391  -2.405   0.444  0.00  0.00    +0.061 A 
ATOM     29  N   UNL     1      -3.746  -2.111   1.535  0.00  0.00    -0.355 N 
ATOM     30  H   UNL     1      -4.803   0.791   0.399  0.00  0.00    +0.162 HD
ATOM     31  H   UNL     1      -3.302  -2.738   2.127  0.00  0.00    +0.162 HD
ENDBRANCH  20  21
ENDBRANCH  17  20
ENDBRANCH   1  17
TORSDOF 7
