REMARK  Name = ZINC23971248
REMARK  7 active torsions:
REMARK  status: ('A' for Active; 'I' for Inactive)
REMARK    1  A    between atoms: C_1  and  C_2
REMARK    2  A    between atoms: C_2  and  N_3
REMARK    3  A    between atoms: C_13  and  S_16
REMARK    4  A    between atoms: S_16  and  C_17
REMARK    5  A    between atoms: C_17  and  C_18
REMARK    6  A    between atoms: N_20  and  N_21
REMARK    7  A    between atoms: C_22  and  C_24
REMARK                            x       y       z     vdW  Elec       q    Type
REMARK                         _______ _______ _______ _____ _____    ______ ____
ROOT
ATOM      1  N   UNL     1     -12.232   4.548   0.090  0.00  0.00    -0.324 N 
ATOM      2  C   UNL     1     -12.692   5.854   0.099  0.00  0.00    +0.053 A 
ATOM      3  C   UNL     1     -13.974   6.395   0.109  0.00  0.00    +0.026 A 
ATOM      4  C   UNL     1     -14.146   7.763   0.116  0.00  0.00    +0.002 A 
ATOM      5  C   UNL     1     -13.050   8.611   0.114  0.00  0.00    +0.001 A 
ATOM      6  C   UNL     1     -11.772   8.095   0.105  0.00  0.00    +0.012 A 
ATOM      7  C   UNL     1     -11.583   6.715   0.098  0.00  0.00    +0.029 A 
ATOM      8  C   UNL     1     -10.389   5.853   0.087  0.00  0.00    +0.138 A 
ATOM      9  C   UNL     1     -10.860   4.523   0.083  0.00  0.00    +0.165 A 
ATOM     10  N   UNL     1      -9.968   3.537   0.068  0.00  0.00    -0.201 NA
ATOM     11  C   UNL     1      -8.674   3.833   0.068  0.00  0.00    +0.212 A 
ATOM     12  N   UNL     1      -8.255   5.094   0.072  0.00  0.00    -0.122 NA
ATOM     13  N   UNL     1      -9.084   6.081   0.081  0.00  0.00    -0.143 NA
ENDROOT
BRANCH   1  15
ATOM     14  C   UNL     1     -13.395   2.954  -1.355  0.00  0.00    +0.027 C 
ATOM     15  C   UNL     1     -13.090   3.360   0.088  0.00  0.00    +0.120 C 
ENDBRANCH   1  15
BRANCH  11  16
ATOM     16  S   UNL     1      -7.490   2.528   0.055  0.00  0.00    -0.075 S 
BRANCH  16  17
ATOM     17  C   UNL     1      -5.959   3.494   0.052  0.00  0.00    +0.174 C 
BRANCH  17  18
ATOM     18  C   UNL     1      -4.776   2.560   0.041  0.00  0.00    +0.239 C 
ATOM     19  O   UNL     1      -4.951   1.359   0.036  0.00  0.00    -0.273 OA
ATOM     20  N   UNL     1      -3.524   3.058   0.037  0.00  0.00    -0.233 N 
ATOM     21  H   UNL     1      -3.365   4.146   0.041  0.00  0.00    +0.173 HD
BRANCH  20  22
ATOM     22  N   UNL     1      -2.425   2.190   0.026  0.00  0.00    -0.230 N 
ATOM     23  C   UNL     1      -1.173   2.688   0.022  0.00  0.00    +0.267 C 
ATOM     24  O   UNL     1      -0.997   3.893   0.028  0.00  0.00    -0.268 OA
ATOM     25  H   UNL     1      -2.583   1.101   0.022  0.00  0.00    +0.173 HD
BRANCH  23  26
ATOM     26  C   UNL     1      -0.022   1.780   0.012  0.00  0.00    +0.075 A 
ATOM     27  C   UNL     1       1.330   2.083   0.001  0.00  0.00    +0.021 A 
ATOM     28  C   UNL     1       2.208   1.027  -0.013  0.00  0.00    +0.008 A 
ATOM     29  C   UNL     1       1.719  -0.241  -0.016  0.00  0.00    +0.046 A 
ATOM     30  S   UNL     1       0.002  -0.004   0.002  0.00  0.00    -0.092 S 
ENDBRANCH  23  26
ENDBRANCH  20  22
ENDBRANCH  17  18
ENDBRANCH  16  17
ENDBRANCH  11  16
TORSDOF 6
