REMARK  Name = ZINC03361378
REMARK  5 active torsions:
REMARK  status: ('A' for Active; 'I' for Inactive)
REMARK    1  A    between atoms: C_2  and  C_11
REMARK    2  A    between atoms: C_12  and  C_13
REMARK    3  A    between atoms: C_12  and  C_22
REMARK    4  A    between atoms: N_15  and  C_16
REMARK    5  A    between atoms: N_24  and  C_25
REMARK                            x       y       z     vdW  Elec       q    Type
REMARK                         _______ _______ _______ _____ _____    ______ ____
ROOT
ATOM      1  C   UNL     1       4.587   0.717   1.277  0.00  0.00    +0.027 C 
ATOM      2  C   UNL     1       3.620   1.530   0.721  0.00  0.00    +0.099 C 
ENDROOT
BRANCH   1   4
ATOM      3  C   UNL     1       6.516   2.140   0.626  0.00  0.00    +0.058 A 
ATOM      4  C   UNL     1       5.927   1.245   1.532  0.00  0.00    -0.006 A 
ATOM      5  C   UNL     1       6.627   0.862   2.687  0.00  0.00    +0.029 A 
ATOM      6  C   UNL     1       7.891   1.358   2.920  0.00  0.00    +0.065 A 
ATOM      7  C   UNL     1       8.473   2.244   2.022  0.00  0.00    +0.167 A 
ATOM      8  C   UNL     1       7.780   2.634   0.872  0.00  0.00    +0.167 A 
ATOM      9  O   UNL     1       8.564   3.501   0.165  0.00  0.00    -0.453 OA
ATOM     10  C   UNL     1       9.896   3.318   0.679  0.00  0.00    +0.466 C 
ATOM     11  O   UNL     1       9.685   2.867   2.030  0.00  0.00    -0.453 OA
ATOM     12 BR   UNL     1       5.840  -0.339   3.917  0.00  0.00    -0.050 Br
ENDBRANCH   1   4
BRANCH   2  13
ATOM     13  C   UNL     1       2.323   0.963   0.325  0.00  0.00    +0.249 C 
ATOM     14  O   UNL     1       2.066  -0.201   0.572  0.00  0.00    -0.270 OA
ATOM     15  N   UNL     1       1.417   1.732  -0.311  0.00  0.00    -0.308 N 
ATOM     16  H   UNL     1       1.590   2.678  -0.441  0.00  0.00    +0.149 HD
BRANCH  15  17
ATOM     17  C   UNL     1       0.172   1.140  -0.807  0.00  0.00    +0.073 C 
ATOM     18  C   UNL     1      -0.862   1.111   0.320  0.00  0.00    +0.022 C 
ATOM     19  C   UNL     1      -2.163   0.493  -0.198  0.00  0.00    +0.002 C 
ATOM     20  C   UNL     1      -2.698   1.331  -1.361  0.00  0.00    +0.000 C 
ATOM     21  C   UNL     1      -1.663   1.360  -2.487  0.00  0.00    +0.002 C 
ATOM     22  C   UNL     1      -0.363   1.978  -1.970  0.00  0.00    +0.022 C 
ENDBRANCH  15  17
ENDBRANCH   2  13
BRANCH   2  23
ATOM     23  C   UNL     1       3.888   2.962   0.525  0.00  0.00    +0.249 C 
ATOM     24  O   UNL     1       4.103   3.393  -0.592  0.00  0.00    -0.270 OA
ATOM     25  N   UNL     1       3.894   3.797   1.582  0.00  0.00    -0.308 N 
ATOM     26  H   UNL     1       3.789   3.445   2.480  0.00  0.00    +0.149 HD
BRANCH  25  27
ATOM     27  C   UNL     1       4.059   5.238   1.376  0.00  0.00    +0.073 C 
ATOM     28  C   UNL     1       5.549   5.573   1.289  0.00  0.00    +0.022 C 
ATOM     29  C   UNL     1       5.722   7.078   1.074  0.00  0.00    +0.002 C 
ATOM     30  C   UNL     1       5.096   7.836   2.246  0.00  0.00    +0.000 C 
ATOM     31  C   UNL     1       3.606   7.501   2.334  0.00  0.00    +0.002 C 
ATOM     32  C   UNL     1       3.434   5.996   2.549  0.00  0.00    +0.022 C 
ENDBRANCH  25  27
ENDBRANCH   2  23
TORSDOF 5
