REMARK  Name = ZINC34749318
REMARK  11 active torsions:
REMARK  status: ('A' for Active; 'I' for Inactive)
REMARK    1  A    between atoms: C_1  and  C_2
REMARK    2  A    between atoms: C_2  and  C_3
REMARK    3  A    between atoms: C_4  and  C_31
REMARK    4  A    between atoms: N_10  and  C_27
REMARK    5  A    between atoms: N_16  and  C_19
REMARK    6  A    between atoms: C_19  and  C_20
REMARK    7  A    between atoms: N_22  and  C_23
REMARK    8  A    between atoms: N_22  and  C_25
REMARK    9  A    between atoms: C_23  and  C_24
REMARK   10  A    between atoms: C_25  and  C_26
REMARK   11  A    between atoms: C_27  and  C_28
REMARK                            x       y       z     vdW  Elec       q    Type
REMARK                         _______ _______ _______ _____ _____    ______ ____
ROOT
ATOM      1  C   UNL     1       0.803  -0.172  -1.038  0.00  0.00    -0.023 A 
ATOM      2  C   UNL     1       0.571   1.133  -1.241  0.00  0.00    -0.007 A 
ATOM      3  S   UNL     1       2.173   1.776  -1.685  0.00  0.00    -0.073 S 
ATOM      4  C   UNL     1       3.110   0.272  -1.585  0.00  0.00    +0.117 A 
ATOM      5  C   UNL     1       2.152  -0.686  -1.203  0.00  0.00    +0.076 A 
ATOM      6  C   UNL     1       2.639  -2.021  -1.039  0.00  0.00    +0.264 A 
ATOM      7  O   UNL     1       1.881  -2.919  -0.714  0.00  0.00    -0.267 OA
ATOM      8  N   UNL     1       3.944  -2.273  -1.247  0.00  0.00    -0.271 N 
ATOM      9  C   UNL     1       4.807  -1.281  -1.611  0.00  0.00    +0.202 A 
ATOM     10  N   UNL     1       4.385  -0.045  -1.780  0.00  0.00    -0.208 NA
ATOM     11  N   UNL     1       6.132  -1.577  -1.814  0.00  0.00    -0.304 N 
ATOM     12  C   UNL     1       7.099  -1.519  -0.707  0.00  0.00    +0.089 C 
ATOM     13  C   UNL     1       8.300  -0.679  -1.154  0.00  0.00    -0.059 C 
ATOM     14  N   UNL     1       8.842  -1.229  -2.403  0.00  0.00    +0.387 N 
ATOM     15  C   UNL     1       7.849  -1.102  -3.478  0.00  0.00    -0.059 C 
ATOM     16  C   UNL     1       6.624  -1.968  -3.144  0.00  0.00    +0.089 C 
ATOM     17  C   UNL     1      -0.734   1.878  -1.123  0.00  0.00    +0.052 C 
ATOM     18  H   UNL     1       9.069  -2.203  -2.270  0.00  0.00    -0.081 HD
ENDROOT
BRANCH   1  20
ATOM     19  C   UNL     1      -0.426  -1.133   0.889  0.00  0.00    +0.009 C 
ATOM     20  C   UNL     1      -0.320  -1.093  -0.637  0.00  0.00    +0.033 C 
ENDBRANCH   1  20
BRANCH  14  21
ATOM     21  C   UNL     1      10.058  -0.492  -2.773  0.00  0.00    +0.019 C 
BRANCH  21  22
ATOM     22  C   UNL     1      10.683  -1.132  -3.986  0.00  0.00    +0.199 C 
ATOM     23  O   UNL     1      10.167  -2.106  -4.492  0.00  0.00    -0.278 OA
ATOM     24  N   UNL     1      11.816  -0.623  -4.508  0.00  0.00    -0.304 N 
BRANCH  24  25
ATOM     25  C   UNL     1      12.440   0.554  -3.897  0.00  0.00    +0.104 C 
ATOM     26  C   UNL     1      13.438   0.104  -2.828  0.00  0.00    +0.024 C 
ENDBRANCH  24  25
BRANCH  24  27
ATOM     27  C   UNL     1      12.424  -1.245  -5.687  0.00  0.00    +0.104 C 
ATOM     28  C   UNL     1      11.855  -0.602  -6.953  0.00  0.00    +0.024 C 
ENDBRANCH  24  27
ENDBRANCH  21  22
ENDBRANCH  14  21
BRANCH   8  29
ATOM     29  C   UNL     1       4.449  -3.638  -1.080  0.00  0.00    +0.223 C 
BRANCH  29  30
ATOM     30  C   UNL     1       4.266  -4.402  -2.366  0.00  0.00    +0.230 C 
ATOM     31  O   UNL     1       3.764  -3.859  -3.328  0.00  0.00    -0.274 OA
ATOM     32  N   UNL     1       4.660  -5.688  -2.448  0.00  0.00    -0.328 N 
ATOM     33  H   UNL     1       5.062  -6.122  -1.679  0.00  0.00    +0.145 HD
ATOM     34  H   UNL     1       4.543  -6.180  -3.276  0.00  0.00    +0.145 HD
ENDBRANCH  29  30
ENDBRANCH   8  29
TORSDOF 7
