REMARK  Name = ZINC36637617
REMARK  12 active torsions:
REMARK  status: ('A' for Active; 'I' for Inactive)
REMARK    1  A    between atoms: C_1  and  C_2
REMARK    2  A    between atoms: C_4  and  C_38
REMARK    3  A    between atoms: N_11  and  C_12
REMARK    4  A    between atoms: C_12  and  C_13
REMARK    5  A    between atoms: C_13  and  N_14
REMARK    6  A    between atoms: N_14  and  C_15
REMARK    7  A    between atoms: N_14  and  C_16
REMARK    8  A    between atoms: C_17  and  C_19
REMARK    9  A    between atoms: C_22  and  S_25
REMARK   10  A    between atoms: S_25  and  N_28
REMARK   11  A    between atoms: C_30  and  C_37
REMARK   12  A    between atoms: C_33  and  C_36
REMARK                            x       y       z     vdW  Elec       q    Type
REMARK                         _______ _______ _______ _____ _____    ______ ____
ROOT
ATOM      1  C   UNL     1      -0.897   0.982  -1.130  0.00  0.00    +0.044 C 
ATOM      2  C   UNL     1      -0.703  -0.500  -0.940  0.00  0.00    -0.049 A 
ATOM      3  C   UNL     1      -0.772  -1.361  -2.026  0.00  0.00    +0.009 A 
ATOM      4  C   UNL     1      -0.598  -2.713  -1.881  0.00  0.00    -0.024 A 
ATOM      5  C   UNL     1      -0.342  -3.276  -0.609  0.00  0.00    +0.083 A 
ATOM      6  C   UNL     1      -0.278  -2.369   0.473  0.00  0.00    +0.041 A 
ATOM      7  C   UNL     1      -0.448  -1.016   0.318  0.00  0.00    +0.020 A 
ATOM      8  S   UNL     1       0.053  -3.445   1.849  0.00  0.00    -0.052 S 
ATOM      9  C   UNL     1       0.085  -4.978   0.931  0.00  0.00    +0.168 A 
ATOM     10  N   UNL     1      -0.148  -4.575  -0.296  0.00  0.00    -0.224 NA
ATOM     11  N   UNL     1       0.299  -6.264   1.397  0.00  0.00    -0.248 N 
ATOM     12  C   UNL     1       0.285  -7.303   0.539  0.00  0.00    +0.252 C 
ATOM     13  O   UNL     1       0.156  -7.104  -0.653  0.00  0.00    -0.270 OA
ATOM     14  C   UNL     1      -0.682  -3.609  -3.089  0.00  0.00    +0.046 C 
ENDROOT
BRANCH  12  15
ATOM     15  C   UNL     1       0.427  -8.683   1.047  0.00  0.00    +0.037 A 
ATOM     16  C   UNL     1      -0.200  -9.061   2.235  0.00  0.00    +0.015 A 
ATOM     17  C   UNL     1      -0.064 -10.351   2.704  0.00  0.00    +0.029 A 
ATOM     18  C   UNL     1       0.693 -11.270   1.999  0.00  0.00    +0.106 A 
ATOM     19  C   UNL     1       1.317 -10.903   0.820  0.00  0.00    +0.029 A 
ATOM     20  C   UNL     1       1.184  -9.617   0.337  0.00  0.00    +0.015 A 
BRANCH  18  21
ATOM     21  S   UNL     1       0.862 -12.916   2.605  0.00  0.00    +0.061 S 
ATOM     22  O   UNL     1       2.065 -13.431   2.051  0.00  0.00    -0.153 OA
ATOM     23  O   UNL     1       0.632 -12.858   4.006  0.00  0.00    -0.153 OA
BRANCH  21  24
ATOM     24  N   UNL     1      -0.376 -13.806   1.959  0.00  0.00    -0.176 NA
ATOM     25  C   UNL     1      -1.665 -13.912   2.656  0.00  0.00    +0.112 C 
ATOM     26  C   UNL     1      -2.782 -13.502   1.692  0.00  0.00    +0.002 C 
ATOM     27  C   UNL     1      -2.685 -14.345   0.417  0.00  0.00    +0.009 C 
ATOM     28  C   UNL     1      -1.340 -14.087  -0.265  0.00  0.00    +0.002 C 
ATOM     29  C   UNL     1      -0.208 -14.499   0.674  0.00  0.00    +0.112 C 
ATOM     30  C   UNL     1      -1.211 -12.598  -0.594  0.00  0.00    +0.009 C 
ATOM     31  C   UNL     1      -4.141 -13.735   2.356  0.00  0.00    +0.009 C 
ENDBRANCH  21  24
ENDBRANCH  18  21
ENDBRANCH  12  15
BRANCH  11  32
ATOM     32  C   UNL     1       0.542  -6.495   2.823  0.00  0.00    +0.097 C 
BRANCH  32  33
ATOM     33  C   UNL     1      -0.771  -6.345   3.595  0.00  0.00    -0.060 C 
BRANCH  33  34
ATOM     34  N   UNL     1      -0.558  -6.718   5.000  0.00  0.00    +0.377 N 
ATOM     35  C   UNL     1       0.371  -5.766   5.624  0.00  0.00    -0.097 C 
ATOM     36  C   UNL     1      -1.842  -6.689   5.713  0.00  0.00    -0.097 C 
ATOM     37  H   UNL     1      -0.169  -7.648   5.046  0.00  0.00    -0.083 HD
ENDBRANCH  33  34
ENDBRANCH  32  33
ENDBRANCH  11  32
TORSDOF 6
