REMARK  Name = ZINC06135740
REMARK  13 active torsions:
REMARK  status: ('A' for Active; 'I' for Inactive)
REMARK    1  A    between atoms: C_1  and  N_60
REMARK    2  A    between atoms: C_2  and  N_60
REMARK    3  A    between atoms: C_3  and  C_4
REMARK    4  A    between atoms: C_3  and  N_60
REMARK    5  A    between atoms: C_4  and  N_5
REMARK    6  A    between atoms: N_5  and  C_6
REMARK    7  A    between atoms: N_5  and  C_22
REMARK    8  A    between atoms: C_6  and  C_7
REMARK    9  A    between atoms: C_22  and  N_24
REMARK   10  A    between atoms: N_24  and  C_25
REMARK   11  A    between atoms: C_30  and  C_31
REMARK   12  A    between atoms: C_31  and  O_33
REMARK   13  A    between atoms: O_33  and  C_34
REMARK                            x       y       z     vdW  Elec       q    Type
REMARK                         _______ _______ _______ _____ _____    ______ ____
ROOT
ATOM      1  N   UNL     1      -0.276   1.448  -0.272  0.00  0.00    -0.310 N 
ENDROOT
BRANCH   1   2
ATOM      2  C   UNL     1      -0.223   0.116  -0.472  0.00  0.00    +0.137 C 
ATOM      3  S   UNL     1       1.132  -0.579  -1.255  0.00  0.00    -0.018 S 
BRANCH   2   4
ATOM      4  N   UNL     1      -1.237  -0.669  -0.056  0.00  0.00    -0.296 N 
ATOM      5  H   UNL     1      -2.033  -0.270   0.327  0.00  0.00    +0.154 HD
BRANCH   4   6
ATOM      6  C   UNL     1      -1.140  -2.052  -0.177  0.00  0.00    +0.047 A 
ATOM      7  C   UNL     1       0.061  -2.695   0.094  0.00  0.00    +0.024 A 
ATOM      8  C   UNL     1       0.153  -4.067  -0.022  0.00  0.00    +0.002 A 
ATOM      9  C   UNL     1      -0.946  -4.813  -0.419  0.00  0.00    +0.001 A 
ATOM     10  C   UNL     1      -2.144  -4.193  -0.697  0.00  0.00    +0.017 A 
ATOM     11  C   UNL     1      -2.255  -2.805  -0.579  0.00  0.00    +0.080 A 
BRANCH  11  12
ATOM     12  C   UNL     1      -3.534  -2.135  -0.875  0.00  0.00    +0.341 C 
ATOM     13  O   UNL     1      -3.599  -0.922  -0.873  0.00  0.00    -0.245 OA
BRANCH  12  14
ATOM     14  O   UNL     1      -4.631  -2.868  -1.149  0.00  0.00    -0.464 OA
ATOM     15  C   UNL     1      -5.856  -2.142  -1.432  0.00  0.00    +0.280 C 
ENDBRANCH  12  14
ENDBRANCH  11  12
ENDBRANCH   4   6
ENDBRANCH   2   4
ENDBRANCH   1   2
BRANCH   1  16
ATOM     16  C   UNL     1      -1.484   2.056   0.293  0.00  0.00    +0.088 C 
BRANCH  16  17
ATOM     17  C   UNL     1      -1.373   2.089   1.818  0.00  0.00    -0.060 C 
BRANCH  17  20
ATOM     18  C   UNL     1      -2.623   2.535   3.843  0.00  0.00    -0.097 C 
ATOM     19  C   UNL     1      -2.683   4.116   2.010  0.00  0.00    -0.097 C 
ATOM     20  N   UNL     1      -2.607   2.685   2.373  0.00  0.00    +0.377 N 
ATOM     21  H   UNL     1      -3.419   2.197   1.979  0.00  0.00    -0.083 HD
ENDBRANCH  17  20
ENDBRANCH  16  17
ENDBRANCH   1  16
BRANCH   1  22
ATOM     22  C   UNL     1       0.871   2.288  -0.624  0.00  0.00    +0.147 C 
BRANCH  22  23
ATOM     23  C   UNL     1       1.820   2.357   0.545  0.00  0.00    +0.035 A 
ATOM     24  C   UNL     1       2.881   1.513   0.606  0.00  0.00    +0.020 A 
ATOM     25  C   UNL     1       3.784   1.606   1.752  0.00  0.00    +0.003 A 
ATOM     26  C   UNL     1       4.895   0.761   1.867  0.00  0.00    +0.059 A 
ATOM     27  C   UNL     1       5.728   0.873   2.958  0.00  0.00    +0.167 A 
ATOM     28  C   UNL     1       5.467   1.827   3.950  0.00  0.00    +0.168 A 
ATOM     29  C   UNL     1       4.372   2.664   3.845  0.00  0.00    +0.075 A 
ATOM     30  C   UNL     1       3.523   2.565   2.751  0.00  0.00    +0.053 A 
ATOM     31  N   UNL     1       2.426   3.394   2.629  0.00  0.00    -0.322 N 
ATOM     32  H   UNL     1       2.239   4.071   3.340  0.00  0.00    +0.169 HD
ATOM     33  C   UNL     1       1.606   3.304   1.567  0.00  0.00    +0.254 A 
ATOM     34  O   UNL     1       0.649   4.056   1.490  0.00  0.00    -0.268 OA
ATOM     35  O   UNL     1       6.434   1.729   4.909  0.00  0.00    -0.453 OA
ATOM     36  C   UNL     1       7.511   0.997   4.297  0.00  0.00    +0.466 C 
ATOM     37  O   UNL     1       6.857   0.186   3.304  0.00  0.00    -0.453 OA
ENDBRANCH  22  23
ENDBRANCH   1  22
TORSDOF 10
