REMARK  Name = ZINC32778598
REMARK  7 active torsions:
REMARK  status: ('A' for Active; 'I' for Inactive)
REMARK    1  A    between atoms: C_1  and  C_2
REMARK    2  A    between atoms: C_5  and  C_8
REMARK    3  A    between atoms: C_12  and  S_15
REMARK    4  A    between atoms: S_15  and  C_16
REMARK    5  A    between atoms: C_16  and  C_17
REMARK    6  A    between atoms: N_19  and  C_20
REMARK    7  A    between atoms: C_23  and  C_27
REMARK                            x       y       z     vdW  Elec       q    Type
REMARK                         _______ _______ _______ _____ _____    ______ ____
ROOT
ATOM      1  C   UNL     1      -9.656   5.566  -0.504  0.00  0.00    +0.159 A 
ATOM      2  C   UNL     1      -9.954   4.177  -0.435  0.00  0.00    +0.300 A 
ATOM      3  O   UNL     1     -11.107   3.782  -0.440  0.00  0.00    -0.263 OA
ATOM      4  N   UNL     1      -8.921   3.306  -0.369  0.00  0.00    -0.180 NA
ATOM      5  C   UNL     1      -7.650   3.801  -0.362  0.00  0.00    +0.213 A 
ATOM      6  N   UNL     1      -7.433   5.104  -0.428  0.00  0.00    -0.122 NA
ATOM      7  N   UNL     1      -8.393   5.955  -0.497  0.00  0.00    -0.141 NA
ENDROOT
BRANCH   1  12
ATOM      8  C   UNL     1     -13.897   9.446  -0.812  0.00  0.00    +0.044 C 
ATOM      9  C   UNL     1     -12.787   8.430  -0.731  0.00  0.00    -0.050 A 
ATOM     10  C   UNL     1     -11.588   8.766  -0.126  0.00  0.00    +0.004 A 
ATOM     11  C   UNL     1     -10.568   7.840  -0.049  0.00  0.00    +0.010 A 
ATOM     12  C   UNL     1     -10.747   6.564  -0.583  0.00  0.00    +0.008 A 
ATOM     13  C   UNL     1     -11.955   6.233  -1.196  0.00  0.00    +0.010 A 
ATOM     14  C   UNL     1     -12.970   7.166  -1.262  0.00  0.00    +0.004 A 
ENDBRANCH   1  12
BRANCH   5  15
ATOM     15  S   UNL     1      -6.283   2.692  -0.271  0.00  0.00    -0.075 S 
BRANCH  15  16
ATOM     16  C   UNL     1      -4.915   3.877  -0.305  0.00  0.00    +0.173 C 
BRANCH  16  17
ATOM     17  C   UNL     1      -3.605   3.134  -0.236  0.00  0.00    +0.227 C 
ATOM     18  O   UNL     1      -3.598   1.923  -0.170  0.00  0.00    -0.275 OA
ATOM     19  N   UNL     1      -2.443   3.815  -0.247  0.00  0.00    -0.285 N 
ATOM     20  H   UNL     1      -2.449   4.915  -0.222  0.00  0.00    +0.155 HD
BRANCH  19  21
ATOM     21  C   UNL     1      -1.227   3.124  -0.291  0.00  0.00    +0.035 A 
ATOM     22  C   UNL     1      -0.110   3.638   0.356  0.00  0.00    +0.023 A 
ATOM     23  C   UNL     1       1.090   2.957   0.306  0.00  0.00    +0.006 A 
ATOM     24  C   UNL     1       1.179   1.758  -0.377  0.00  0.00    -0.032 A 
ATOM     25  C   UNL     1       0.067   1.240  -1.018  0.00  0.00    +0.046 A 
ATOM     26  C   UNL     1      -1.136   1.920  -0.976  0.00  0.00    +0.043 A 
ATOM     27 CL   UNL     1       0.183  -0.266  -1.875  0.00  0.00    -0.083 Cl
ATOM     28  C   UNL     1       2.489   1.014  -0.424  0.00  0.00    +0.045 C 
ENDBRANCH  19  21
ENDBRANCH  16  17
ENDBRANCH  15  16
ENDBRANCH   5  15
TORSDOF 5
