REMARK  Name = ZINC35754541
REMARK  12 active torsions:
REMARK  status: ('A' for Active; 'I' for Inactive)
REMARK    1  A    between atoms: C_1  and  C_2
REMARK    2  A    between atoms: C_2  and  C_3
REMARK    3  A    between atoms: C_2  and  C_4
REMARK    4  A    between atoms: C_4  and  C_5
REMARK    5  A    between atoms: N_7  and  C_8
REMARK    6  A    between atoms: C_12  and  C_14
REMARK    7  A    between atoms: C_16  and  C_29
REMARK    8  A    between atoms: N_18  and  C_22
REMARK    9  A    between atoms: C_22  and  C_23
REMARK   10  A    between atoms: N_31  and  C_32
REMARK   11  A    between atoms: C_32  and  C_33
REMARK   12  A    between atoms: C_32  and  C_34
REMARK                            x       y       z     vdW  Elec       q    Type
REMARK                         _______ _______ _______ _____ _____    ______ ____
ROOT
ATOM      1  C   UNL     1       0.410  -0.278   8.603  0.00  0.00    +0.238 C 
ATOM      2  C   UNL     1      -0.268  -1.530   9.208  0.00  0.00    +0.210 C 
ATOM      3  N   UNL     1      -0.340  -1.185  10.641  0.00  0.00    -0.248 N 
ATOM      4  C   UNL     1      -0.107   0.136  10.757  0.00  0.00    +0.405 C 
ATOM      5  O   UNL     1      -0.071   0.722  11.821  0.00  0.00    -0.226 OA
ATOM      6  O   UNL     1       0.083   0.738   9.570  0.00  0.00    -0.440 OA
ENDROOT
BRANCH   1  11
ATOM      7  C   UNL     1      -0.074  -0.051   4.861  0.00  0.00    +0.034 A 
ATOM      8  C   UNL     1      -1.261   0.666   4.781  0.00  0.00    +0.023 A 
ATOM      9  C   UNL     1      -1.899   1.072   5.936  0.00  0.00    +0.002 A 
ATOM     10  C   UNL     1      -1.358   0.766   7.172  0.00  0.00    +0.007 A 
ATOM     11  C   UNL     1      -0.176   0.053   7.255  0.00  0.00    -0.003 A 
ATOM     12  C   UNL     1       0.464  -0.362   6.103  0.00  0.00    +0.030 A 
BRANCH   7  15
ATOM     13  C   UNL     1       0.556   0.322   2.597  0.00  0.00    +0.217 C 
ATOM     14  O   UNL     1      -0.086   1.351   2.601  0.00  0.00    -0.275 OA
ATOM     15  N   UNL     1       0.576  -0.463   3.693  0.00  0.00    -0.285 N 
ATOM     16  H   UNL     1       1.041  -1.314   3.671  0.00  0.00    +0.155 HD
BRANCH  13  17
ATOM     17  C   UNL     1       1.331  -0.079   1.368  0.00  0.00    +0.099 C 
BRANCH  17  19
ATOM     18  C   UNL     1       1.760   2.299   0.734  0.00  0.00    +0.008 C 
ATOM     19  C   UNL     1       1.140   0.977   0.278  0.00  0.00    -0.008 C 
ATOM     20  C   UNL     1       1.823   0.510  -1.009  0.00  0.00    +0.008 C 
ENDBRANCH  17  19
ENDBRANCH  13  17
ENDBRANCH   7  15
ENDBRANCH   1  11
BRANCH   2  21
ATOM     21  C   UNL     1       0.579  -2.758   8.989  0.00  0.00    +0.238 C 
ATOM     22  O   UNL     1       1.227  -3.218   9.904  0.00  0.00    -0.274 OA
ATOM     23  N   UNL     1       0.615  -3.343   7.776  0.00  0.00    -0.311 N 
ATOM     24  H   UNL     1       0.097  -2.975   7.043  0.00  0.00    +0.149 HD
BRANCH  23  25
ATOM     25  C   UNL     1       1.438  -4.537   7.563  0.00  0.00    +0.067 C 
ATOM     26  C   UNL     1       0.650  -5.781   7.977  0.00  0.00    +0.027 C 
ATOM     27  C   UNL     1       1.813  -4.640   6.083  0.00  0.00    +0.027 C 
ENDBRANCH  23  25
ENDBRANCH   2  21
BRANCH   3  28
ATOM     28  C   UNL     1      -0.614  -2.113  11.741  0.00  0.00    +0.147 C 
BRANCH  28  29
ATOM     29  C   UNL     1      -2.085  -2.082  12.069  0.00  0.00    -0.030 A 
ATOM     30  C   UNL     1      -2.581  -1.121  12.929  0.00  0.00    +0.005 A 
ATOM     31  C   UNL     1      -3.930  -1.092  13.229  0.00  0.00    +0.000 A 
ATOM     32  C   UNL     1      -4.783  -2.026  12.670  0.00  0.00    +0.000 A 
ATOM     33  C   UNL     1      -4.287  -2.987  11.809  0.00  0.00    +0.000 A 
ATOM     34  C   UNL     1      -2.938  -3.012  11.505  0.00  0.00    +0.005 A 
ENDBRANCH  28  29
ENDBRANCH   3  28
TORSDOF 8
