REMARK  Name = ZINC16042760
REMARK  12 active torsions:
REMARK  status: ('A' for Active; 'I' for Inactive)
REMARK    1  A    between atoms: C_1  and  C_2
REMARK    2  A    between atoms: C_2  and  N_74
REMARK    3  A    between atoms: C_3  and  C_4
REMARK    4  A    between atoms: C_3  and  N_74
REMARK    5  A    between atoms: C_5  and  C_6
REMARK    6  A    between atoms: C_5  and  N_74
REMARK    7  A    between atoms: C_6  and  C_7
REMARK    8  A    between atoms: C_7  and  N_8
REMARK    9  A    between atoms: C_28  and  C_30
REMARK   10  A    between atoms: C_33  and  C_36
REMARK   11  A    between atoms: C_36  and  C_37
REMARK   12  A    between atoms: C_36  and  C_38
REMARK                            x       y       z     vdW  Elec       q    Type
REMARK                         _______ _______ _______ _____ _____    ______ ____
ROOT
ATOM      1  N   UNL     1      -1.032  -1.508  -0.903  0.00  0.00    -0.291 N 
ATOM      2  C   UNL     1      -0.828  -2.444   0.190  0.00  0.00    +0.203 C 
ATOM      3  C   UNL     1      -0.814  -3.862  -0.280  0.00  0.00    +0.234 C 
ATOM      4  O   UNL     1      -0.675  -4.732   0.553  0.00  0.00    -0.274 OA
ATOM      5  N   UNL     1      -0.944  -4.236  -1.554  0.00  0.00    -0.276 N 
ATOM      6  C   UNL     1      -1.037  -3.284  -2.661  0.00  0.00    +0.167 C 
ATOM      7  C   UNL     1      -1.134  -1.873  -2.180  0.00  0.00    +0.237 C 
ATOM      8  O   UNL     1      -1.314  -1.003  -3.006  0.00  0.00    -0.274 OA
ATOM      9  C   UNL     1       0.194  -3.442  -3.566  0.00  0.00    +0.069 C 
ATOM     10  C   UNL     1       0.434  -4.910  -3.810  0.00  0.00    -0.015 A 
ATOM     11  C   UNL     1       1.239  -5.529  -4.843  0.00  0.00    +0.003 A 
ATOM     12  C   UNL     1       2.003  -5.005  -5.890  0.00  0.00    +0.010 A 
ATOM     13  C   UNL     1       2.653  -5.907  -6.696  0.00  0.00    +0.001 A 
ATOM     14  C   UNL     1       2.562  -7.274  -6.492  0.00  0.00    +0.002 A 
ATOM     15  C   UNL     1       1.813  -7.820  -5.464  0.00  0.00    +0.026 A 
ATOM     16  C   UNL     1       1.143  -6.928  -4.630  0.00  0.00    +0.047 A 
ATOM     17  N   UNL     1       0.335  -7.119  -3.546  0.00  0.00    -0.356 N 
ATOM     18  H   UNL     1       0.094  -7.982  -3.175  0.00  0.00    +0.166 HD
ATOM     19  C   UNL     1      -0.086  -5.908  -3.063  0.00  0.00    +0.046 A 
ATOM     20  C   UNL     1      -0.995  -5.678  -1.877  0.00  0.00    +0.154 C 
ENDROOT
BRANCH  20  21
ATOM     21  C   UNL     1      -0.513  -6.484  -0.699  0.00  0.00    -0.021 A 
ATOM     22  C   UNL     1       0.811  -6.415  -0.308  0.00  0.00    +0.006 A 
ATOM     23  C   UNL     1       1.252  -7.151   0.775  0.00  0.00    +0.004 A 
ATOM     24  C   UNL     1       0.371  -7.963   1.463  0.00  0.00    -0.045 A 
ATOM     25  C   UNL     1      -0.953  -8.037   1.070  0.00  0.00    +0.004 A 
ATOM     26  C   UNL     1      -1.394  -7.297  -0.011  0.00  0.00    +0.006 A 
BRANCH  24  27
ATOM     27  C   UNL     1       0.852  -8.769   2.642  0.00  0.00    +0.013 C 
ATOM     28  C   UNL     1       1.958  -9.724   2.190  0.00  0.00    +0.012 C 
ATOM     29  C   UNL     1       1.400  -7.826   3.715  0.00  0.00    +0.012 C 
ENDBRANCH  24  27
ENDBRANCH  20  21
BRANCH   1  30
ATOM     30  C   UNL     1      -1.137  -0.083  -0.582  0.00  0.00    +0.106 C 
BRANCH  30  31
ATOM     31  C   UNL     1       0.255   0.552  -0.618  0.00  0.00    +0.000 C 
BRANCH  31  32
ATOM     32  C   UNL     1       0.146   2.040  -0.282  0.00  0.00    -0.077 C 
BRANCH  32  33
ATOM     33  N   UNL     1       1.494   2.643  -0.342  0.00  0.00    +0.379 N 
ATOM     34  H   UNL     1       1.927   2.402  -1.241  0.00  0.00    -0.082 HD
BRANCH  33  36
ATOM     35  C   UNL     1       0.958   4.676  -1.588  0.00  0.00    -0.017 C 
ATOM     36  C   UNL     1       1.395   4.114  -0.234  0.00  0.00    -0.082 C 
ENDBRANCH  33  36
BRANCH  33  37
ATOM     37  C   UNL     1       2.334   2.112   0.753  0.00  0.00    -0.082 C 
ATOM     38  C   UNL     1       3.796   2.453   0.460  0.00  0.00    -0.017 C 
ENDBRANCH  33  37
ENDBRANCH  32  33
ENDBRANCH  31  32
ENDBRANCH  30  31
ENDBRANCH   1  30
TORSDOF 8
