REMARK  Name = ZINC20114653
REMARK  11 active torsions:
REMARK  status: ('A' for Active; 'I' for Inactive)
REMARK    1  A    between atoms: C_1  and  C_2
REMARK    2  A    between atoms: C_5  and  O_10
REMARK    3  A    between atoms: C_6  and  O_8
REMARK    4  A    between atoms: O_8  and  C_9
REMARK    5  A    between atoms: O_10  and  C_11
REMARK    6  A    between atoms: C_11  and  C_12
REMARK    7  A    between atoms: C_12  and  O_13
REMARK    8  A    between atoms: O_13  and  C_14
REMARK    9  A    between atoms: C_17  and  C_21
REMARK   10  A    between atoms: C_32  and  S_33
REMARK   11  A    between atoms: S_33  and  C_34
REMARK                            x       y       z     vdW  Elec       q    Type
REMARK                         _______ _______ _______ _____ _____    ______ ____
ROOT
ATOM      1  C   UNL     1      -2.000  -8.135  -0.713  0.00  0.00    +0.139 A 
ATOM      2  C   UNL     1      -0.801  -8.822  -0.867  0.00  0.00    +0.048 A 
ATOM      3  C   UNL     1      -0.701 -10.128  -0.477  0.00  0.00    +0.011 A 
ATOM      4  C   UNL     1      -1.810 -10.781   0.079  0.00  0.00    -0.023 A 
ATOM      5  C   UNL     1      -3.019 -10.088   0.234  0.00  0.00    +0.031 A 
ATOM      6  C   UNL     1      -3.107  -8.771  -0.157  0.00  0.00    +0.083 A 
ATOM      7 CL   UNL     1      -4.598  -7.905   0.038  0.00  0.00    -0.080 Cl
ENDROOT
BRANCH   4   8
ATOM      8  C   UNL     1      -1.705 -12.181   0.496  0.00  0.00    +0.024 C 
ATOM      9  C   UNL     1      -2.366 -12.614   1.623  0.00  0.00    +0.079 C 
ATOM     10  C   UNL     1      -2.440 -14.059   1.986  0.00  0.00    +0.137 C 
ATOM     11  N   UNL     1      -1.491 -14.916   1.724  0.00  0.00    -0.284 NA
ATOM     12  N   UNL     1      -3.639 -14.405   2.641  0.00  0.00    -0.211 N 
ATOM     13  C   UNL     1      -4.340 -13.413   3.296  0.00  0.00    +0.183 C 
ATOM     14  N   UNL     1      -4.062 -12.128   3.297  0.00  0.00    -0.152 NA
ATOM     15  C   UNL     1      -3.039 -11.669   2.549  0.00  0.00    +0.273 C 
ATOM     16  O   UNL     1      -2.677 -10.506   2.626  0.00  0.00    -0.268 OA
ATOM     17  S   UNL     1      -5.585 -14.243   4.033  0.00  0.00    +0.048 S 
ATOM     18  N   UNL     1      -5.282 -15.779   3.435  0.00  0.00    -0.185 NA
ATOM     19  C   UNL     1      -4.203 -15.638   2.716  0.00  0.00    +0.175 C 
ATOM     20  H   UNL     1      -0.684 -14.623   1.271  0.00  0.00    +0.188 HD
BRANCH  19  21
ATOM     21  S   UNL     1      -3.496 -17.009   1.865  0.00  0.00    -0.093 S 
ATOM     22  C   UNL     1      -4.595 -18.393   2.275  0.00  0.00    +0.093 C 
ENDBRANCH  19  21
ENDBRANCH   4   8
BRANCH   1  23
ATOM     23  O   UNL     1      -2.091  -6.838  -1.103  0.00  0.00    -0.487 OA
BRANCH  23  24
ATOM     24  C   UNL     1      -0.918  -6.247  -1.666  0.00  0.00    +0.270 C 
BRANCH  24  25
ATOM     25  C   UNL     1      -1.210  -4.793  -2.041  0.00  0.00    +0.270 C 
BRANCH  25  26
ATOM     26  O   UNL     1      -1.482  -4.040  -0.857  0.00  0.00    -0.485 OA
BRANCH  26  31
ATOM     27  C   UNL     1      -2.650   1.434  -1.521  0.00  0.00    +0.044 C 
ATOM     28  C   UNL     1      -2.338  -0.029  -1.341  0.00  0.00    -0.047 A 
ATOM     29  C   UNL     1      -2.065  -0.817  -2.444  0.00  0.00    +0.007 A 
ATOM     30  C   UNL     1      -1.778  -2.160  -2.284  0.00  0.00    +0.049 A 
ATOM     31  C   UNL     1      -1.764  -2.719  -1.016  0.00  0.00    +0.162 A 
ATOM     32  C   UNL     1      -2.038  -1.926   0.094  0.00  0.00    +0.162 A 
ATOM     33  C   UNL     1      -2.320  -0.580  -0.073  0.00  0.00    +0.052 A 
BRANCH  32  34
ATOM     34  O   UNL     1      -2.025  -2.471   1.340  0.00  0.00    -0.491 OA
ATOM     35  C   UNL     1      -2.317  -1.597   2.433  0.00  0.00    +0.277 C 
ENDBRANCH  32  34
ENDBRANCH  26  31
ENDBRANCH  25  26
ENDBRANCH  24  25
ENDBRANCH  23  24
ENDBRANCH   1  23
TORSDOF 8
