REMARK  Name = ZINC38893941
REMARK  8 active torsions:
REMARK  status: ('A' for Active; 'I' for Inactive)
REMARK    1  A    between atoms: C_4  and  S_7
REMARK    2  A    between atoms: S_7  and  C_8
REMARK    3  A    between atoms: C_8  and  C_9
REMARK    4  A    between atoms: C_12  and  N_15
REMARK    5  A    between atoms: C_16  and  C_18
REMARK    6  A    between atoms: N_23  and  C_25
REMARK    7  A    between atoms: C_25  and  C_26
REMARK    8  A    between atoms: C_28  and  C_31
REMARK                            x       y       z     vdW  Elec       q    Type
REMARK                         _______ _______ _______ _____ _____    ______ ____
ROOT
ATOM      1  C   UNL     1      10.056  -6.870   1.020  0.00  0.00    +0.059 C 
ATOM      2  C   UNL     1      11.103  -6.067   0.242  0.00  0.00    +0.009 C 
ATOM      3  C   UNL     1      12.441  -6.811   0.290  0.00  0.00    -0.018 C 
ATOM      4  C   UNL     1      12.845  -7.030   1.750  0.00  0.00    -0.078 C 
ATOM      5  N   UNL     1      11.816  -7.825   2.431  0.00  0.00    +0.386 N 
ATOM      6  C   UNL     1      10.547  -7.088   2.452  0.00  0.00    -0.065 C 
ATOM      7  H   UNL     1      11.688  -8.698   1.941  0.00  0.00    -0.081 HD
ENDROOT
BRANCH   1   9
ATOM      8  N   UNL     1       8.134  -5.800  -0.111  0.00  0.00    -0.285 N 
ATOM      9  C   UNL     1       8.755  -6.109   1.044  0.00  0.00    +0.218 C 
ATOM     10  O   UNL     1       8.268  -5.776   2.103  0.00  0.00    -0.275 OA
ATOM     11  H   UNL     1       8.482  -6.132  -0.953  0.00  0.00    +0.155 HD
BRANCH   8  15
ATOM     12  C   UNL     1       4.717  -3.417  -0.066  0.00  0.00    -0.037 A 
ATOM     13  C   UNL     1       5.715  -3.209   0.868  0.00  0.00    +0.006 A 
ATOM     14  C   UNL     1       6.849  -3.997   0.856  0.00  0.00    +0.023 A 
ATOM     15  C   UNL     1       6.986  -5.000  -0.096  0.00  0.00    +0.033 A 
ATOM     16  C   UNL     1       5.981  -5.207  -1.032  0.00  0.00    +0.023 A 
ATOM     17  C   UNL     1       4.847  -4.418  -1.011  0.00  0.00    +0.006 A 
BRANCH  12  18
ATOM     18  C   UNL     1       3.481  -2.555  -0.049  0.00  0.00    +0.109 C 
BRANCH  18  19
ATOM     19  S   UNL     1       2.229  -3.314   1.022  0.00  0.00    -0.121 S 
BRANCH  19  23
ATOM     20  C   UNL     1      -1.278  -0.456   0.804  0.00  0.00    +0.000 A 
ATOM     21  C   UNL     1      -1.365  -1.597   1.581  0.00  0.00    +0.001 A 
ATOM     22  C   UNL     1      -0.298  -2.470   1.650  0.00  0.00    +0.015 A 
ATOM     23  C   UNL     1       0.864  -2.202   0.937  0.00  0.00    +0.008 A 
ATOM     24  C   UNL     1       0.948  -1.055   0.157  0.00  0.00    +0.015 A 
ATOM     25  C   UNL     1      -0.123  -0.186   0.093  0.00  0.00    +0.001 A 
ENDBRANCH  19  23
ENDBRANCH  18  19
ENDBRANCH  12  18
ENDBRANCH   8  15
ENDBRANCH   1   9
BRANCH   5  26
ATOM     26  C   UNL     1      12.245  -8.099   3.809  0.00  0.00    +0.022 C 
BRANCH  26  27
ATOM     27  C   UNL     1      13.475  -8.970   3.790  0.00  0.00    +0.211 A 
ATOM     28  N   UNL     1      14.706  -8.546   3.767  0.00  0.00    -0.193 NA
ATOM     29  C   UNL     1      15.553  -9.591   3.754  0.00  0.00    +0.202 A 
ATOM     30  N   UNL     1      14.851 -10.698   3.769  0.00  0.00    -0.056 NA
ATOM     31  O   UNL     1      13.486 -10.309   3.799  0.00  0.00    -0.340 OA
BRANCH  29  32
ATOM     32  C   UNL     1      17.034  -9.506   3.728  0.00  0.00    +0.023 A 
ATOM     33  C   UNL     1      17.662  -8.262   3.719  0.00  0.00    +0.014 A 
ATOM     34  C   UNL     1      19.039  -8.187   3.695  0.00  0.00    +0.039 A 
ATOM     35  C   UNL     1      19.798  -9.346   3.679  0.00  0.00    +0.123 A 
ATOM     36  C   UNL     1      19.178 -10.585   3.687  0.00  0.00    +0.039 A 
ATOM     37  C   UNL     1      17.801 -10.669   3.717  0.00  0.00    +0.014 A 
ATOM     38  F   UNL     1      21.146  -9.268   3.655  0.00  0.00    -0.205 F 
ENDBRANCH  29  32
ENDBRANCH  26  27
ENDBRANCH   5  26
TORSDOF 8
