REMARK  Name = ZINC46686550
REMARK  6 active torsions:
REMARK  status: ('A' for Active; 'I' for Inactive)
REMARK    1  A    between atoms: C_5  and  C_7
REMARK    2  A    between atoms: N_9  and  C_10
REMARK    3  A    between atoms: C_10  and  C_11
REMARK    4  A    between atoms: C_11  and  N_12
REMARK    5  A    between atoms: C_13  and  C_15
REMARK    6  A    between atoms: C_18  and  N_22
REMARK                            x       y       z     vdW  Elec       q    Type
REMARK                         _______ _______ _______ _____ _____    ______ ____
ROOT
ATOM      1  N   UNL     1      -1.283  -6.322  -0.023  0.00  0.00    -0.310 N 
ATOM      2  C   UNL     1      -2.437  -7.018  -0.015  0.00  0.00    +0.246 C 
ATOM      3  O   UNL     1      -3.501  -6.429  -0.001  0.00  0.00    -0.270 OA
ATOM      4  H   UNL     1      -0.434  -6.791  -0.034  0.00  0.00    +0.149 HD
ENDROOT
BRANCH   2   5
ATOM      5  C   UNL     1      -2.410  -8.495  -0.024  0.00  0.00    +0.055 A 
ATOM      6  C   UNL     1      -1.190  -9.174  -0.035  0.00  0.00    +0.017 A 
ATOM      7  C   UNL     1      -1.171 -10.553  -0.043  0.00  0.00    +0.033 A 
ATOM      8  C   UNL     1      -2.358 -11.265  -0.041  0.00  0.00    +0.128 A 
ATOM      9  C   UNL     1      -3.571 -10.600  -0.031  0.00  0.00    +0.053 A 
ATOM     10  C   UNL     1      -3.604  -9.219  -0.017  0.00  0.00    +0.055 A 
ATOM     11 CL   UNL     1      -5.127  -8.386   0.003  0.00  0.00    -0.083 Cl
BRANCH   8  12
ATOM     12  N   UNL     1      -2.329 -12.745  -0.050  0.00  0.00    +0.056 N 
ATOM     13  O   UNL     1      -1.270 -13.328  -0.059  0.00  0.00    -0.126 OA
ATOM     14  O   UNL     1      -3.364 -13.369  -0.049  0.00  0.00    -0.126 OA
ENDBRANCH   8  12
ENDBRANCH   2   5
BRANCH   1  15
ATOM     15  C   UNL     1      -1.310  -4.857  -0.013  0.00  0.00    +0.123 C 
BRANCH  15  16
ATOM     16  C   UNL     1       0.122  -4.321  -0.025  0.00  0.00    +0.123 C 
BRANCH  16  19
ATOM     17  C   UNL     1       1.250  -2.160  -0.023  0.00  0.00    +0.246 C 
ATOM     18  O   UNL     1       2.313  -2.748  -0.037  0.00  0.00    -0.270 OA
ATOM     19  N   UNL     1       0.095  -2.856  -0.015  0.00  0.00    -0.310 N 
ATOM     20  H   UNL     1      -0.754  -2.386  -0.004  0.00  0.00    +0.149 HD
BRANCH  17  25
ATOM     21  C   UNL     1      -0.017   1.375   0.010  0.00  0.00    +0.001 A 
ATOM     22  C   UNL     1       1.170   2.087   0.002  0.00  0.00    +0.001 A 
ATOM     23  C   UNL     1       2.383   1.423  -0.013  0.00  0.00    +0.021 A 
ATOM     24  C   UNL     1       2.417   0.041  -0.021  0.00  0.00    +0.053 A 
ATOM     25  C   UNL     1       1.222  -0.683  -0.014  0.00  0.00    +0.055 A 
ATOM     26  C   UNL     1       0.002  -0.004   0.002  0.00  0.00    +0.014 A 
ATOM     27 CL   UNL     1       3.940  -0.792  -0.041  0.00  0.00    -0.083 Cl
ENDBRANCH  17  25
ENDBRANCH  16  19
ENDBRANCH  15  16
ENDBRANCH   1  15
TORSDOF 6
