REMARK  Name = ZINC40371982
REMARK  4 active torsions:
REMARK  status: ('A' for Active; 'I' for Inactive)
REMARK    1  A    between atoms: C_4  and  C_6
REMARK    2  A    between atoms: C_4  and  N_10
REMARK    3  A    between atoms: N_7  and  O_8
REMARK    4  A    between atoms: C_11  and  C_13
REMARK                            x       y       z     vdW  Elec       q    Type
REMARK                         _______ _______ _______ _____ _____    ______ ____
ROOT
ATOM      1  C   UNL     1      -0.048   1.529   0.210  0.00  0.00    +0.003 C 
ATOM      2  C   UNL     1       1.415   2.003   0.088  0.00  0.00    +0.003 C 
ATOM      3  C   UNL     1       2.249   0.792   0.575  0.00  0.00    +0.033 C 
ATOM      4  C   UNL     1       1.463  -0.415   0.004  0.00  0.00    +0.093 C 
ATOM      5  C   UNL     1      -0.017  -0.009   0.157  0.00  0.00    +0.033 C 
ENDROOT
BRANCH   4   6
ATOM      6  C   UNL     1       1.754  -1.659   0.804  0.00  0.00    +0.155 C 
ATOM      7  N   UNL     1       1.506  -1.685   2.071  0.00  0.00    -0.075 NA
ATOM      8  N   UNL     1       2.284  -2.768   0.183  0.00  0.00    -0.342 N 
ATOM      9  H   UNL     1       2.414  -2.770  -0.778  0.00  0.00    +0.144 HD
ATOM     10  H   UNL     1       2.526  -3.548   0.707  0.00  0.00    +0.144 HD
BRANCH   7  11
ATOM     11  O   UNL     1       0.858  -0.587   2.688  0.00  0.00    -0.408 OA
ATOM     12  H   UNL     1       0.715  -0.698   3.638  0.00  0.00    +0.328 HD
ENDBRANCH   7  11
ENDBRANCH   4   6
BRANCH   4  13
ATOM     13  N   UNL     1       1.795  -0.622  -1.408  0.00  0.00    -0.301 N 
ATOM     14  C   UNL     1       1.137  -1.554  -2.125  0.00  0.00    +0.243 C 
ATOM     15  O   UNL     1       0.211  -2.160  -1.628  0.00  0.00    -0.273 OA
ATOM     16  H   UNL     1       2.489  -0.089  -1.826  0.00  0.00    +0.150 HD
BRANCH  14  17
ATOM     17  C   UNL     1       1.550  -1.842  -3.545  0.00  0.00    +0.204 C 
ATOM     18  C   UNL     1       1.298  -0.600  -4.427  0.00  0.00    +0.043 C 
ATOM     19  C   UNL     1       0.773  -1.232  -5.745  0.00  0.00    +0.031 C 
ATOM     20  C   UNL     1      -0.007  -2.453  -5.196  0.00  0.00    +0.161 C 
ATOM     21  O   UNL     1       0.762  -2.916  -4.072  0.00  0.00    -0.367 OA
ENDBRANCH  14  17
ENDBRANCH   4  13
TORSDOF 4
