REMARK  Name = ZINC05506831
REMARK  7 active torsions:
REMARK  status: ('A' for Active; 'I' for Inactive)
REMARK    1  A    between atoms: C_1  and  C_2
REMARK    2  A    between atoms: C_2  and  C_3
REMARK    3  A    between atoms: C_3  and  N_4
REMARK    4  A    between atoms: C_8  and  C_10
REMARK    5  A    between atoms: C_10  and  O_11
REMARK    6  A    between atoms: O_11  and  C_12
REMARK    7  A    between atoms: C_12  and  C_14
REMARK                            x       y       z     vdW  Elec       q    Type
REMARK                         _______ _______ _______ _____ _____    ______ ____
ROOT
ATOM      1  C   UNL     1      -0.439   5.842  -1.355  0.00  0.00    +0.320 C 
ATOM      2  O   UNL     1       0.321   6.576  -1.940  0.00  0.00    -0.250 OA
ENDROOT
BRANCH   1   3
ATOM      3  C   UNL     1      -0.098   5.350   0.028  0.00  0.00    +0.165 C 
ATOM      4  C   UNL     1      -0.053   3.846   0.022  0.00  0.00    +0.013 A 
ATOM      5  C   UNL     1      -1.238   3.132   0.030  0.00  0.00    +0.008 A 
ATOM      6  C   UNL     1      -1.219   1.751   0.017  0.00  0.00    +0.001 A 
ATOM      7  C   UNL     1      -0.013   1.076   0.008  0.00  0.00    +0.004 A 
ATOM      8  C   UNL     1       1.173   1.782   0.000  0.00  0.00    +0.046 A 
ATOM      9  C   UNL     1       1.157   3.172   0.007  0.00  0.00    +0.133 A 
ATOM     10  O   UNL     1       2.332   3.847  -0.000  0.00  0.00    -0.455 OA
ATOM     11  C   UNL     1       2.378   5.138   0.407  0.00  0.00    +0.133 A 
ATOM     12  C   UNL     1       1.233   5.917   0.442  0.00  0.00    +0.013 A 
ATOM     13  C   UNL     1       1.308   7.234   0.861  0.00  0.00    +0.008 A 
ATOM     14  C   UNL     1       2.521   7.774   1.244  0.00  0.00    +0.001 A 
ATOM     15  C   UNL     1       3.665   6.999   1.211  0.00  0.00    +0.004 A 
ATOM     16  C   UNL     1       3.596   5.685   0.794  0.00  0.00    +0.046 A 
ENDBRANCH   1   3
BRANCH   1  17
ATOM     17  O   UNL     1      -1.589   5.464  -1.936  0.00  0.00    -0.455 OA
BRANCH  17  18
ATOM     18  C   UNL     1      -1.852   5.976  -3.269  0.00  0.00    +0.328 C 
BRANCH  18  23
ATOM     19  N   UNL     1      -5.271   5.669  -6.635  0.00  0.00    -0.299 N 
ATOM     20  C   UNL     1      -4.817   5.323  -5.414  0.00  0.00    +0.306 C 
ATOM     21  O   UNL     1      -5.475   4.587  -4.706  0.00  0.00    -0.252 OA
ATOM     22  N   UNL     1      -3.632   5.795  -4.978  0.00  0.00    -0.237 N 
ATOM     23  C   UNL     1      -3.177   5.449  -3.757  0.00  0.00    +0.258 C 
ATOM     24  O   UNL     1      -3.834   4.715  -3.051  0.00  0.00    -0.272 OA
ATOM     25  H   UNL     1      -4.745   6.256  -7.199  0.00  0.00    +0.150 HD
ATOM     26  H   UNL     1      -3.106   6.382  -5.542  0.00  0.00    +0.159 HD
BRANCH  19  27
ATOM     27  C   UNL     1      -6.559   5.157  -7.109  0.00  0.00    +0.105 C 
BRANCH  27  29
ATOM     28  C   UNL     1      -8.182   5.161  -9.008  0.00  0.00    +0.005 C 
ATOM     29  C   UNL     1      -6.837   5.696  -8.513  0.00  0.00    +0.015 C 
ENDBRANCH  27  29
ENDBRANCH  19  27
ENDBRANCH  18  23
ENDBRANCH  17  18
ENDBRANCH   1  17
TORSDOF 6
