REMARK  Name = ZINC09892112
REMARK  5 active torsions:
REMARK  status: ('A' for Active; 'I' for Inactive)
REMARK    1  A    between atoms: C_6  and  C_7
REMARK    2  A    between atoms: C_8  and  C_9
REMARK    3  A    between atoms: N_11  and  C_12
REMARK    4  A    between atoms: C_12  and  N_14
REMARK    5  A    between atoms: C_17  and  C_20
REMARK                            x       y       z     vdW  Elec       q    Type
REMARK                         _______ _______ _______ _____ _____    ______ ____
ROOT
ATOM      1  C   UNL     1      -0.021   1.708   0.011  0.00  0.00    +0.143 C 
ATOM      2  S   UNL     1       0.002  -0.004   0.002  0.00  0.00    -0.018 S 
ENDROOT
BRANCH   1   3
ATOM      3  N   UNL     1       1.137   2.397   0.004  0.00  0.00    -0.276 N 
ATOM      4  C   UNL     1       2.349   1.720  -0.011  0.00  0.00    +0.164 A 
ATOM      5  N   UNL     1       3.577   2.204  -0.020  0.00  0.00    -0.225 NA
ATOM      6  C   UNL     1       4.632   1.403  -0.034  0.00  0.00    +0.080 A 
ATOM      7  C   UNL     1       4.446   0.049  -0.039  0.00  0.00    +0.076 A 
ATOM      8  S   UNL     1       2.660  -0.041  -0.016  0.00  0.00    -0.060 S 
ATOM      9  H   UNL     1       1.124   3.367   0.009  0.00  0.00    +0.156 HD
BRANCH   6  10
ATOM     10  C   UNL     1       6.002   1.970  -0.043  0.00  0.00    +0.001 A 
ATOM     11  C   UNL     1       7.109   1.124  -0.052  0.00  0.00    +0.011 A 
ATOM     12  C   UNL     1       8.382   1.657  -0.066  0.00  0.00    +0.016 A 
ATOM     13  C   UNL     1       8.560   3.029  -0.061  0.00  0.00    +0.018 A 
ATOM     14  C   UNL     1       7.464   3.874  -0.048  0.00  0.00    +0.016 A 
ATOM     15  C   UNL     1       6.187   3.352  -0.039  0.00  0.00    +0.011 A 
ATOM     16 BR   UNL     1      10.308   3.752  -0.073  0.00  0.00    -0.050 Br
ENDBRANCH   6  10
ENDBRANCH   1   3
BRANCH   1  19
ATOM     17  C   UNL     1      -2.355   1.676   0.022  0.00  0.00    +0.242 C 
ATOM     18  O   UNL     1      -2.339   0.459   0.016  0.00  0.00    -0.270 OA
ATOM     19  N   UNL     1      -1.197   2.366   0.021  0.00  0.00    -0.264 N 
ATOM     20  H   UNL     1      -1.210   3.336   0.026  0.00  0.00    +0.157 HD
BRANCH  17  22
ATOM     21  C   UNL     1      -4.791   1.700   0.034  0.00  0.00    +0.013 C 
ATOM     22  C   UNL     1      -3.632   2.390   0.032  0.00  0.00    +0.068 C 
BRANCH  21  28
ATOM     23  C   UNL     1      -6.098   3.816   0.058  0.00  0.00    +0.009 A 
ATOM     24  C   UNL     1      -7.304   4.483   0.061  0.00  0.00    +0.020 A 
ATOM     25  C   UNL     1      -8.493   3.770   0.063  0.00  0.00    +0.041 A 
ATOM     26  C   UNL     1      -8.478   2.385   0.055  0.00  0.00    +0.020 A 
ATOM     27  C   UNL     1      -7.279   1.705   0.046  0.00  0.00    +0.009 A 
ATOM     28  C   UNL     1      -6.075   2.418   0.044  0.00  0.00    -0.025 A 
ATOM     29 CL   UNL     1     -10.008   4.618   0.075  0.00  0.00    -0.084 Cl
ENDBRANCH  21  28
ENDBRANCH  17  22
ENDBRANCH   1  19
TORSDOF 5
