REMARK  Name = ZINC20103609
REMARK  14 active torsions:
REMARK  status: ('A' for Active; 'I' for Inactive)
REMARK    1  A    between atoms: C_1  and  C_2
REMARK    2  A    between atoms: C_2  and  C_3
REMARK    3  A    between atoms: C_3  and  C_4
REMARK    4  A    between atoms: C_4  and  N_5
REMARK    5  A    between atoms: N_5  and  C_6
REMARK    6  A    between atoms: N_5  and  C_8
REMARK    7  A    between atoms: C_6  and  C_7
REMARK    8  A    between atoms: C_8  and  C_9
REMARK    9  A    between atoms: C_9  and  N_10
REMARK   10  A    between atoms: C_11  and  C_13
REMARK   11  A    between atoms: C_13  and  C_14
REMARK   12  A    between atoms: C_14  and  N_15
REMARK   13  A    between atoms: C_16  and  C_18
REMARK   14  A    between atoms: C_18  and  N_19
REMARK                            x       y       z     vdW  Elec       q    Type
REMARK                         _______ _______ _______ _____ _____    ______ ____
ROOT
ATOM      1  N   UNL     1       0.897  -8.496  -2.691  0.00  0.00    -0.313 N 
ATOM      2  C   UNL     1      -0.072  -7.656  -2.276  0.00  0.00    +0.233 C 
ATOM      3  O   UNL     1      -0.713  -7.021  -3.088  0.00  0.00    -0.274 OA
ATOM      4  H   UNL     1       1.477  -9.072  -1.955  0.00  0.00    +0.149 HD
ENDROOT
BRANCH   1   5
ATOM      5  C   UNL     1       1.177  -8.643  -4.121  0.00  0.00    +0.113 C 
BRANCH   5   6
ATOM      6  C   UNL     1       2.313  -9.649  -4.318  0.00  0.00    +0.114 C 
BRANCH   6   8
ATOM      7  N   UNL     1       3.570 -10.639  -6.204  0.00  0.00    -0.317 N 
ATOM      8  C   UNL     1       2.601  -9.799  -5.789  0.00  0.00    +0.214 C 
ATOM      9  O   UNL     1       1.961  -9.165  -6.601  0.00  0.00    -0.276 OA
ATOM     10  H   UNL     1       4.151 -11.215  -5.468  0.00  0.00    +0.149 HD
BRANCH   7  11
ATOM     11  C   UNL     1       3.850 -10.786  -7.634  0.00  0.00    +0.085 C 
BRANCH  11  12
ATOM     12  C   UNL     1       4.987 -11.792  -7.831  0.00  0.00    -0.060 C 
BRANCH  12  13
ATOM     13  N   UNL     1       5.267 -11.939  -9.265  0.00  0.00    +0.381 N 
ATOM     14  H   UNL     1       4.318 -12.158  -9.775  0.00  0.00    -0.082 HD
BRANCH  13  15
ATOM     15  C   UNL     1       5.804 -10.692  -9.827  0.00  0.00    -0.082 C 
ATOM     16  C   UNL     1       7.116 -10.338  -9.124  0.00  0.00    -0.017 C 
ENDBRANCH  13  15
BRANCH  13  17
ATOM     17  C   UNL     1       6.181 -13.062  -9.510  0.00  0.00    -0.079 C 
BRANCH  17  18
ATOM     18  C   UNL     1       6.146 -13.434 -10.994  0.00  0.00    -0.019 C 
BRANCH  18  20
ATOM     19  C   UNL     1       7.064 -14.976 -12.733  0.00  0.00    +0.004 C 
ATOM     20  C   UNL     1       7.099 -14.604 -11.249  0.00  0.00    -0.005 C 
ENDBRANCH  18  20
ENDBRANCH  17  18
ENDBRANCH  13  17
ENDBRANCH  12  13
ENDBRANCH  11  12
ENDBRANCH   7  11
ENDBRANCH   6   8
ENDBRANCH   5   6
ENDBRANCH   1   5
BRANCH   2  21
ATOM     21  C   UNL     1      -0.361  -7.505  -0.805  0.00  0.00    +0.221 C 
BRANCH  21  22
ATOM     22  N   UNL     1      -1.448  -6.542  -0.617  0.00  0.00    -0.290 N 
ATOM     23  C   UNL     1      -2.722  -7.002  -0.599  0.00  0.00    +0.203 A 
ATOM     24  N   UNL     1      -3.765  -6.218  -0.437  0.00  0.00    -0.230 NA
ATOM     25  C   UNL     1      -3.534  -4.917  -0.286  0.00  0.00    +0.116 A 
ATOM     26  C   UNL     1      -2.244  -4.342  -0.289  0.00  0.00    +0.076 A 
ATOM     27  C   UNL     1      -1.133  -5.234  -0.468  0.00  0.00    +0.263 A 
ATOM     28  O   UNL     1       0.020  -4.838  -0.487  0.00  0.00    -0.267 OA
ATOM     29  C   UNL     1      -2.184  -2.902  -0.111  0.00  0.00    -0.023 A 
ATOM     30  C   UNL     1      -3.366  -2.260   0.040  0.00  0.00    -0.004 A 
ATOM     31  S   UNL     1      -4.601  -3.532  -0.048  0.00  0.00    -0.073 S 
ATOM     32  C   UNL     1      -3.581  -0.791   0.239  0.00  0.00    +0.043 C 
ATOM     33  C   UNL     1      -2.239  -0.150   0.620  0.00  0.00    +0.005 C 
ATOM     34  C   UNL     1      -1.165  -0.648  -0.352  0.00  0.00    +0.005 C 
ATOM     35  C   UNL     1      -0.871  -2.125  -0.089  0.00  0.00    +0.037 C 
ENDBRANCH  21  22
ENDBRANCH   2  21
TORSDOF 12
