REMARK  Name = ZINC09330125
REMARK  7 active torsions:
REMARK  status: ('A' for Active; 'I' for Inactive)
REMARK    1  A    between atoms: C_1  and  O_2
REMARK    2  A    between atoms: O_2  and  C_3
REMARK    3  A    between atoms: C_5  and  N_35
REMARK    4  A    between atoms: C_8  and  N_9
REMARK    5  A    between atoms: C_14  and  C_30
REMARK    6  A    between atoms: C_30  and  C_31
REMARK    7  A    between atoms: C_31  and  C_32
REMARK                            x       y       z     vdW  Elec       q    Type
REMARK                         _______ _______ _______ _____ _____    ______ ____
ROOT
ATOM      1  N   UNL     1       3.553   2.311  -0.391  0.00  0.00    -0.206 N 
ATOM      2  C   UNL     1       3.412   0.999  -0.766  0.00  0.00    +0.229 C 
ATOM      3  O   UNL     1       4.272   0.146  -0.804  0.00  0.00    -0.275 OA
ATOM      4  C   UNL     1       1.966   0.850  -1.120  0.00  0.00    +0.073 C 
ATOM      5  C   UNL     1       1.180  -0.409  -0.825  0.00  0.00    -0.057 C 
ATOM      6  C   UNL     1      -0.018   1.497   0.010  0.00  0.00    +0.050 C 
ATOM      7  C   UNL     1       1.410   1.811  -0.002  0.00  0.00    +0.088 C 
ATOM      8  C   UNL     1       2.353   2.898  -0.067  0.00  0.00    +0.229 C 
ATOM      9  O   UNL     1       2.135   4.075   0.122  0.00  0.00    -0.275 OA
ATOM     10  C   UNL     1      -0.811   2.007  -1.160  0.00  0.00    -0.028 A 
ATOM     11  C   UNL     1      -0.658   1.910  -2.525  0.00  0.00    +0.004 A 
ATOM     12  C   UNL     1      -1.578   2.504  -3.371  0.00  0.00    +0.000 A 
ATOM     13  C   UNL     1      -2.652   3.196  -2.843  0.00  0.00    +0.002 A 
ATOM     14  C   UNL     1      -2.810   3.297  -1.476  0.00  0.00    +0.023 A 
ATOM     15  C   UNL     1      -1.889   2.701  -0.618  0.00  0.00    +0.036 A 
ATOM     16  N   UNL     1      -1.835   2.664   0.777  0.00  0.00    -0.286 N 
ATOM     17  C   UNL     1      -0.768   1.978   1.226  0.00  0.00    +0.211 C 
ATOM     18  O   UNL     1      -0.468   1.782   2.385  0.00  0.00    -0.277 OA
ATOM     19  H   UNL     1      -2.490   3.086   1.355  0.00  0.00    +0.155 HD
ATOM     20  N   UNL     1       0.015   0.009  -0.007  0.00  0.00    +0.394 N 
ATOM     21  H   UNL     1       0.114  -0.350   0.950  0.00  0.00    -0.083 HD
ATOM     22  H   UNL     1      -0.851  -0.355  -0.422  0.00  0.00    -0.083 HD
ENDROOT
BRANCH   1  28
ATOM     23  C   UNL     1       5.537   2.974   0.831  0.00  0.00    +0.144 A 
ATOM     24  C   UNL     1       6.756   3.632   0.872  0.00  0.00    +0.080 A 
ATOM     25  C   UNL     1       7.219   4.301  -0.246  0.00  0.00    +0.130 A 
ATOM     26  C   UNL     1       6.471   4.312  -1.409  0.00  0.00    +0.035 A 
ATOM     27  C   UNL     1       5.256   3.654  -1.459  0.00  0.00    +0.030 A 
ATOM     28  C   UNL     1       4.786   2.980  -0.342  0.00  0.00    +0.086 A 
BRANCH  25  29
ATOM     29  N   UNL     1       8.518   5.009  -0.197  0.00  0.00    +0.057 N 
ATOM     30  O   UNL     1       8.927   5.599  -1.181  0.00  0.00    -0.126 OA
ATOM     31  O   UNL     1       9.178   5.000   0.826  0.00  0.00    -0.126 OA
ENDBRANCH  25  29
BRANCH  23  33
ATOM     32  C   UNL     1       5.902   2.356   3.098  0.00  0.00    +0.277 C 
ATOM     33  O   UNL     1       5.079   2.320   1.931  0.00  0.00    -0.493 OA
ENDBRANCH  23  33
ENDBRANCH   1  28
BRANCH   5  34
ATOM     34  C   UNL     1       2.050  -1.398  -0.046  0.00  0.00    -0.006 C 
BRANCH  34  35
ATOM     35  C   UNL     1       1.279  -2.703   0.160  0.00  0.00    +0.094 C 
BRANCH  35  36
ATOM     36  C   UNL     1       2.136  -3.677   0.927  0.00  0.00    +0.210 C 
ATOM     37  O   UNL     1       3.253  -3.358   1.275  0.00  0.00    -0.276 OA
ATOM     38  N   UNL     1       1.660  -4.902   1.226  0.00  0.00    -0.329 N 
ATOM     39  H   UNL     1       0.767  -5.157   0.948  0.00  0.00    +0.145 HD
ATOM     40  H   UNL     1       2.212  -5.529   1.720  0.00  0.00    +0.145 HD
ENDBRANCH  35  36
ENDBRANCH  34  35
ENDBRANCH   5  34
TORSDOF 6
