REMARK  Name = ZINC57695784
REMARK  8 active torsions:
REMARK  status: ('A' for Active; 'I' for Inactive)
REMARK    1  A    between atoms: C_1  and  C_2
REMARK    2  A    between atoms: C_2  and  C_3
REMARK    3  A    between atoms: C_2  and  C_4
REMARK    4  A    between atoms: C_4  and  C_6
REMARK    5  A    between atoms: C_4  and  N_19
REMARK    6  A    between atoms: N_8  and  C_9
REMARK    7  A    between atoms: C_11  and  N_16
REMARK    8  A    between atoms: C_20  and  C_22
REMARK                            x       y       z     vdW  Elec       q    Type
REMARK                         _______ _______ _______ _____ _____    ______ ____
ROOT
ATOM      1  C   UNL     1       0.745  -2.005  -1.269  0.00  0.00    +0.238 C 
ATOM      2  O   UNL     1       0.217  -2.614  -2.175  0.00  0.00    -0.273 OA
ATOM      3  N   UNL     1       1.341  -2.676  -0.264  0.00  0.00    -0.282 N 
ATOM      4  H   UNL     1       1.819  -2.190   0.427  0.00  0.00    +0.155 HD
ENDROOT
BRANCH   3   5
ATOM      5  C   UNL     1       1.270  -4.073  -0.215  0.00  0.00    +0.071 A 
ATOM      6  C   UNL     1       1.275  -4.811  -1.391  0.00  0.00    +0.059 A 
ATOM      7  C   UNL     1       1.205  -6.190  -1.341  0.00  0.00    +0.128 A 
ATOM      8  C   UNL     1       1.131  -6.837  -0.121  0.00  0.00    +0.035 A 
ATOM      9  C   UNL     1       1.125  -6.106   1.053  0.00  0.00    +0.042 A 
ATOM     10  C   UNL     1       1.200  -4.726   1.010  0.00  0.00    +0.145 A 
ATOM     11  F   UNL     1       1.201  -4.013   2.158  0.00  0.00    -0.204 F 
BRANCH   7  12
ATOM     12  N   UNL     1       1.210  -6.976  -2.595  0.00  0.00    +0.056 N 
ATOM     13  O   UNL     1       1.274  -6.412  -3.662  0.00  0.00    -0.126 OA
ATOM     14  O   UNL     1       1.149  -8.183  -2.552  0.00  0.00    -0.126 OA
ENDBRANCH   7  12
ENDBRANCH   3   5
BRANCH   1  15
ATOM     15  C   UNL     1       0.735  -0.498  -1.268  0.00  0.00    +0.162 C 
BRANCH  15  16
ATOM     16  N   UNL     1       0.032  -0.013  -2.458  0.00  0.00    -0.299 N 
ATOM     17  C   UNL     1       0.305   1.211  -2.950  0.00  0.00    +0.251 C 
ATOM     18  O   UNL     1       1.137   1.914  -2.406  0.00  0.00    -0.270 OA
ATOM     19  H   UNL     1      -0.631  -0.573  -2.892  0.00  0.00    +0.150 HD
BRANCH  17  20
ATOM     20  C   UNL     1      -0.398   1.696  -4.141  0.00  0.00    +0.074 A 
ATOM     21  C   UNL     1      -0.263   2.907  -4.804  0.00  0.00    +0.021 A 
ATOM     22  C   UNL     1      -1.068   3.078  -5.905  0.00  0.00    +0.008 A 
ATOM     23  C   UNL     1      -1.918   2.083  -6.261  0.00  0.00    +0.046 A 
ATOM     24  S   UNL     1      -1.645   0.880  -5.120  0.00  0.00    -0.092 S 
ENDBRANCH  17  20
ENDBRANCH  15  16
BRANCH  15  26
ATOM     25  C   UNL     1       0.010   1.536  -0.011  0.00  0.00    +0.009 C 
ATOM     26  C   UNL     1       0.020   0.006  -0.012  0.00  0.00    +0.012 C 
ATOM     27  C   UNL     1      -1.419  -0.514  -0.002  0.00  0.00    +0.009 C 
ENDBRANCH  15  26
ENDBRANCH   1  15
TORSDOF 6
