REMARK  Name = ZINC14005537
REMARK  9 active torsions:
REMARK  status: ('A' for Active; 'I' for Inactive)
REMARK    1  A    between atoms: C_1  and  C_2
REMARK    2  A    between atoms: C_2  and  N_3
REMARK    3  A    between atoms: N_3  and  C_4
REMARK    4  A    between atoms: C_14  and  C_16
REMARK    5  A    between atoms: C_19  and  N_22
REMARK    6  A    between atoms: N_22  and  C_23
REMARK    7  A    between atoms: C_23  and  N_25
REMARK    8  A    between atoms: C_26  and  C_28
REMARK    9  A    between atoms: C_28  and  C_29
REMARK                            x       y       z     vdW  Elec       q    Type
REMARK                         _______ _______ _______ _____ _____    ______ ____
ROOT
ATOM      1  C   UNL     1      -4.466   4.711  -1.177  0.00  0.00    +0.037 A 
ATOM      2  C   UNL     1      -4.820   5.494  -0.075  0.00  0.00    +0.015 A 
ATOM      3  C   UNL     1      -6.034   6.142  -0.054  0.00  0.00    +0.024 A 
ATOM      4  C   UNL     1      -6.914   6.009  -1.124  0.00  0.00    +0.033 A 
ATOM      5  C   UNL     1      -6.566   5.226  -2.221  0.00  0.00    +0.024 A 
ATOM      6  C   UNL     1      -5.351   4.580  -2.251  0.00  0.00    +0.015 A 
ENDROOT
BRANCH   1   8
ATOM      7  N   UNL     1      -2.088   4.584  -0.619  0.00  0.00    -0.267 N 
ATOM      8  C   UNL     1      -3.163   4.020  -1.205  0.00  0.00    +0.251 C 
ATOM      9  O   UNL     1      -3.058   2.942  -1.758  0.00  0.00    -0.270 OA
BRANCH   7  10
ATOM     10  C   UNL     1      -2.247   5.704   0.198  0.00  0.00    +0.044 A 
ATOM     11  C   UNL     1      -2.333   6.963  -0.357  0.00  0.00    +0.024 A 
ATOM     12  C   UNL     1      -2.486   8.087   0.448  0.00  0.00    +0.002 A 
ATOM     13  C   UNL     1      -2.566   7.975   1.803  0.00  0.00    +0.008 A 
ATOM     14  C   UNL     1      -2.488   6.710   2.409  0.00  0.00    -0.016 A 
ATOM     15  C   UNL     1      -2.326   5.558   1.599  0.00  0.00    +0.004 A 
ATOM     16  C   UNL     1      -2.249   4.294   2.205  0.00  0.00    +0.010 A 
ATOM     17  C   UNL     1      -2.330   4.191   3.561  0.00  0.00    +0.001 A 
ATOM     18  C   UNL     1      -2.489   5.323   4.358  0.00  0.00    +0.001 A 
ATOM     19  C   UNL     1      -2.568   6.564   3.804  0.00  0.00    +0.008 A 
ENDBRANCH   7  10
BRANCH   7  21
ATOM     20  C   UNL     1      -0.515   2.875   0.148  0.00  0.00    +0.025 C 
ATOM     21  C   UNL     1      -0.754   4.020  -0.838  0.00  0.00    +0.110 C 
ENDBRANCH   7  21
ENDBRANCH   1   8
BRANCH   4  22
ATOM     22  N   UNL     1      -8.145   6.661  -1.098  0.00  0.00    -0.297 N 
ATOM     23  H   UNL     1      -8.211   7.557  -0.730  0.00  0.00    +0.154 HD
BRANCH  22  24
ATOM     24  C   UNL     1      -9.243   6.049  -1.583  0.00  0.00    +0.141 C 
ATOM     25  S   UNL     1      -9.159   4.415  -2.087  0.00  0.00    -0.018 S 
BRANCH  24  26
ATOM     26  N   UNL     1     -10.407   6.722  -1.671  0.00  0.00    -0.267 N 
ATOM     27  C   UNL     1     -11.505   6.109  -2.155  0.00  0.00    +0.223 C 
ATOM     28  O   UNL     1     -11.446   4.952  -2.512  0.00  0.00    -0.275 OA
ATOM     29  H   UNL     1     -10.455   7.648  -1.385  0.00  0.00    +0.157 HD
BRANCH  27  30
ATOM     30  C   UNL     1     -12.807   6.862  -2.254  0.00  0.00    +0.131 C 
BRANCH  30  31
ATOM     31  C   UNL     1     -13.869   5.958  -2.823  0.00  0.00    -0.031 A 
ATOM     32  C   UNL     1     -14.136   5.972  -4.158  0.00  0.00    +0.005 A 
ATOM     33  C   UNL     1     -15.114   5.142  -4.702  0.00  0.00    +0.001 A 
ATOM     34  C   UNL     1     -15.831   4.294  -3.916  0.00  0.00    +0.008 A 
ATOM     35  C   UNL     1     -15.583   4.251  -2.533  0.00  0.00    -0.018 A 
ATOM     36  C   UNL     1     -14.585   5.091  -1.980  0.00  0.00    -0.014 A 
ATOM     37  C   UNL     1     -14.340   5.051  -0.597  0.00  0.00    +0.009 A 
ATOM     38  C   UNL     1     -15.057   4.203   0.190  0.00  0.00    +0.001 A 
ATOM     39  C   UNL     1     -16.036   3.374  -0.355  0.00  0.00    +0.001 A 
ATOM     40  C   UNL     1     -16.303   3.388  -1.689  0.00  0.00    +0.008 A 
ENDBRANCH  30  31
ENDBRANCH  27  30
ENDBRANCH  24  26
ENDBRANCH  22  24
ENDBRANCH   4  22
TORSDOF 8
