REMARK  Name = ZINC00824018
REMARK  7 active torsions:
REMARK  status: ('A' for Active; 'I' for Inactive)
REMARK    1  A    between atoms: C_1  and  O_2
REMARK    2  A    between atoms: O_2  and  C_3
REMARK    3  A    between atoms: C_6  and  N_9
REMARK    4  A    between atoms: C_10  and  C_12
REMARK    5  A    between atoms: C_12  and  N_21
REMARK    6  A    between atoms: C_13  and  C_14
REMARK    7  A    between atoms: C_22  and  C_24
REMARK                            x       y       z     vdW  Elec       q    Type
REMARK                         _______ _______ _______ _____ _____    ______ ____
ROOT
ATOM      1  C   UNL     1       2.907  -4.386   5.277  0.00  0.00    +0.097 C 
ATOM      2  C   UNL     1       2.917  -5.609   5.854  0.00  0.00    +0.036 C 
ENDROOT
BRANCH   2   3
ATOM      3  C   UNL     1       3.172  -5.739   7.297  0.00  0.00    -0.023 A 
ATOM      4  C   UNL     1       2.843  -4.694   8.166  0.00  0.00    +0.009 A 
ATOM      5  C   UNL     1       3.085  -4.823   9.517  0.00  0.00    +0.016 A 
ATOM      6  C   UNL     1       3.651  -5.985  10.015  0.00  0.00    +0.018 A 
ATOM      7  C   UNL     1       3.980  -7.024   9.160  0.00  0.00    +0.016 A 
ATOM      8  C   UNL     1       3.739  -6.912   7.808  0.00  0.00    +0.009 A 
ATOM      9 BR   UNL     1       3.978  -6.152  11.870  0.00  0.00    -0.050 Br
ENDBRANCH   2   3
BRANCH   1  11
ATOM     10  N   UNL     1       2.504  -3.022   3.292  0.00  0.00    -0.280 N 
ATOM     11  C   UNL     1       2.514  -4.241   3.868  0.00  0.00    +0.262 C 
ATOM     12  O   UNL     1       2.200  -5.222   3.220  0.00  0.00    -0.268 OA
ATOM     13  H   UNL     1       2.824  -2.251   3.785  0.00  0.00    +0.155 HD
BRANCH  10  17
ATOM     14  C   UNL     1       1.094  -2.570  -0.605  0.00  0.00    +0.120 A 
ATOM     15  C   UNL     1       2.088  -1.729  -0.125  0.00  0.00    +0.047 A 
ATOM     16  C   UNL     1       2.556  -1.879   1.166  0.00  0.00    +0.027 A 
ATOM     17  C   UNL     1       2.030  -2.870   1.984  0.00  0.00    +0.034 A 
ATOM     18  C   UNL     1       1.035  -3.711   1.503  0.00  0.00    +0.027 A 
ATOM     19  C   UNL     1       0.565  -3.557   0.214  0.00  0.00    +0.047 A 
BRANCH  14  21
ATOM     20  C   UNL     1       1.225  -1.386  -2.663  0.00  0.00    +0.277 C 
ATOM     21  O   UNL     1       0.635  -2.422  -1.876  0.00  0.00    -0.495 OA
ENDBRANCH  14  21
ENDBRANCH  10  17
ENDBRANCH   1  11
BRANCH   1  22
ATOM     22  N   UNL     1       3.268  -3.259   6.020  0.00  0.00    -0.275 N 
ATOM     23  C   UNL     1       2.393  -2.245   6.177  0.00  0.00    +0.284 C 
ATOM     24  O   UNL     1       1.264  -2.343   5.734  0.00  0.00    -0.266 OA
ATOM     25  H   UNL     1       4.149  -3.206   6.424  0.00  0.00    +0.155 HD
BRANCH  23  26
ATOM     26  C   UNL     1       2.802  -1.027   6.880  0.00  0.00    +0.191 A 
ATOM     27  C   UNL     1       1.994   0.029   7.194  0.00  0.00    +0.056 A 
ATOM     28  C   UNL     1       2.795   0.968   7.860  0.00  0.00    +0.058 A 
ATOM     29  C   UNL     1       4.044   0.451   7.924  0.00  0.00    +0.171 A 
ATOM     30  O   UNL     1       4.043  -0.753   7.337  0.00  0.00    -0.444 OA
ATOM     31 BR   UNL     1       5.542   1.288   8.718  0.00  0.00    -0.008 Br
ENDBRANCH  23  26
ENDBRANCH   1  22
TORSDOF 6
