REMARK  Name = ZINC22064796
REMARK  9 active torsions:
REMARK  status: ('A' for Active; 'I' for Inactive)
REMARK    1  A    between atoms: C_1  and  C_2
REMARK    2  A    between atoms: C_2  and  C_3
REMARK    3  A    between atoms: C_6  and  C_9
REMARK    4  A    between atoms: C_11  and  C_33
REMARK    5  A    between atoms: C_12  and  C_14
REMARK    6  A    between atoms: C_19  and  C_22
REMARK    7  A    between atoms: C_25  and  N_28
REMARK    8  A    between atoms: N_28  and  S_29
REMARK    9  A    between atoms: S_29  and  C_32
REMARK                            x       y       z     vdW  Elec       q    Type
REMARK                         _______ _______ _______ _____ _____    ______ ____
ROOT
ATOM      1  C   UNL     1      -2.317   5.158  -0.191  0.00  0.00    +0.258 C 
ATOM      2  O   UNL     1      -3.100   4.229  -0.131  0.00  0.00    -0.269 OA
ATOM      3  N   UNL     1      -0.990   4.921  -0.198  0.00  0.00    -0.260 N 
ATOM      4  C   UNL     1      -0.517   3.617  -0.137  0.00  0.00    +0.165 A 
ATOM      5  N   UNL     1       0.728   3.179  -0.132  0.00  0.00    -0.225 NA
ATOM      6  C   UNL     1       1.001   1.884  -0.069  0.00  0.00    +0.080 A 
ATOM      7  C   UNL     1      -0.026   0.984  -0.008  0.00  0.00    +0.076 A 
ATOM      8  S   UNL     1      -1.434   2.085  -0.051  0.00  0.00    -0.060 S 
ATOM      9  H   UNL     1      -0.281   5.761  -0.252  0.00  0.00    +0.157 HD
ENDROOT
BRANCH   1  13
ATOM     10  C   UNL     1      -3.281   9.140  -0.383  0.00  0.00    +0.109 A 
ATOM     11  N   UNL     1      -4.303   8.297  -0.325  0.00  0.00    -0.243 NA
ATOM     12  C   UNL     1      -4.122   7.006  -0.261  0.00  0.00    +0.058 A 
ATOM     13  C   UNL     1      -2.815   6.535  -0.255  0.00  0.00    +0.097 A 
ATOM     14  S   UNL     1      -1.911   8.074  -0.341  0.00  0.00    -0.062 S 
ATOM     15  C   UNL     1      -5.292   6.059  -0.195  0.00  0.00    +0.067 C 
BRANCH  10  19
ATOM     16  C   UNL     1      -3.342  13.381  -0.602  0.00  0.00    -0.048 A 
ATOM     17  C   UNL     1      -2.133  12.710  -0.584  0.00  0.00    +0.004 A 
ATOM     18  C   UNL     1      -2.106  11.332  -0.514  0.00  0.00    +0.011 A 
ATOM     19  C   UNL     1      -3.302  10.616  -0.459  0.00  0.00    +0.007 A 
ATOM     20  C   UNL     1      -4.519  11.299  -0.482  0.00  0.00    +0.011 A 
ATOM     21  C   UNL     1      -4.532  12.677  -0.549  0.00  0.00    +0.004 A 
BRANCH  16  23
ATOM     22  C   UNL     1      -3.392  15.320  -2.147  0.00  0.00    +0.009 C 
ATOM     23  C   UNL     1      -3.364  14.886  -0.680  0.00  0.00    +0.032 C 
ENDBRANCH  16  23
ENDBRANCH  10  19
ENDBRANCH   1  13
BRANCH   6  24
ATOM     24  C   UNL     1       2.409   1.416  -0.066  0.00  0.00    +0.001 A 
ATOM     25  C   UNL     1       2.690   0.052   0.006  0.00  0.00    +0.012 A 
ATOM     26  C   UNL     1       3.999  -0.382   0.004  0.00  0.00    +0.025 A 
ATOM     27  C   UNL     1       5.037   0.540  -0.059  0.00  0.00    +0.048 A 
ATOM     28  C   UNL     1       4.759   1.900  -0.125  0.00  0.00    +0.025 A 
ATOM     29  C   UNL     1       3.452   2.338  -0.129  0.00  0.00    +0.012 A 
BRANCH  27  30
ATOM     30  N   UNL     1       6.363   0.099  -0.055  0.00  0.00    -0.221 N 
ATOM     31  H   UNL     1       7.083   0.514  -0.775  0.00  0.00    +0.173 HD
BRANCH  30  32
ATOM     32  S   UNL     1       6.850  -1.050   1.034  0.00  0.00    +0.040 S 
ATOM     33  O   UNL     1       5.955  -2.137   0.838  0.00  0.00    -0.155 OA
ATOM     34  O   UNL     1       8.242  -1.206   0.798  0.00  0.00    -0.155 OA
ATOM     35  C   UNL     1       6.572  -0.298   2.661  0.00  0.00    +0.218 C 
ENDBRANCH  30  32
ENDBRANCH  27  30
ENDBRANCH   6  24
TORSDOF 6
