REMARK  Name = ZINC61796467
REMARK  4 active torsions:
REMARK  status: ('A' for Active; 'I' for Inactive)
REMARK    1  A    between atoms: C_1  and  N_2
REMARK    2  A    between atoms: N_5  and  C_10
REMARK    3  A    between atoms: C_10  and  C_11
REMARK    4  A    between atoms: C_13  and  N_21
REMARK                            x       y       z     vdW  Elec       q    Type
REMARK                         _______ _______ _______ _____ _____    ______ ____
ROOT
ATOM      1  C   UNL     1       1.484  -4.725  -0.217  0.00  0.00    +0.016 A 
ATOM      2  C   UNL     1       2.066  -5.065  -1.423  0.00  0.00    +0.031 A 
ATOM      3  C   UNL     1       3.380  -5.510  -1.457  0.00  0.00    +0.025 A 
ATOM      4  C   UNL     1       4.107  -5.614  -0.279  0.00  0.00    +0.032 A 
ATOM      5  C   UNL     1       3.524  -5.274   0.927  0.00  0.00    +0.022 A 
ATOM      6  C   UNL     1       2.214  -4.822   0.960  0.00  0.00    +0.134 A 
ATOM      7  O   UNL     1       1.634  -4.470   2.139  0.00  0.00    -0.465 OA
ATOM      8  C   UNL     1       2.277  -4.919   3.335  0.00  0.00    +0.394 C 
ATOM      9  O   UNL     1       3.678  -4.637   3.234  0.00  0.00    -0.339 OA
ATOM     10  C   UNL     1       4.322  -5.395   2.201  0.00  0.00    +0.202 C 
ENDROOT
BRANCH   3  11
ATOM     11  N   UNL     1       3.971  -5.854  -2.678  0.00  0.00    -0.358 N 
ATOM     12  H   UNL     1       3.463  -5.782  -3.500  0.00  0.00    +0.142 HD
ATOM     13  H   UNL     1       4.890  -6.165  -2.701  0.00  0.00    +0.142 HD
ENDBRANCH   3  11
BRANCH   1  14
ATOM     14  C   UNL     1       0.057  -4.242  -0.180  0.00  0.00    +0.164 C 
BRANCH  14  19
ATOM     15  C   UNL     1      -0.018   1.461   0.010  0.00  0.00    +0.152 C 
ATOM     16  N   UNL     1       0.002  -0.004   0.002  0.00  0.00    -0.312 N 
ATOM     17  C   UNL     1       0.006  -0.688  -1.195  0.00  0.00    +0.106 A 
ATOM     18  C   UNL     1       0.024  -2.017  -1.239  0.00  0.00    +0.107 A 
ATOM     19  N   UNL     1       0.039  -2.780  -0.090  0.00  0.00    -0.305 N 
ATOM     20  C   UNL     1       0.036  -2.175   1.118  0.00  0.00    +0.316 A 
ATOM     21  O   UNL     1       0.050  -2.832   2.141  0.00  0.00    -0.262 OA
ATOM     22  C   UNL     1       0.022  -0.687   1.167  0.00  0.00    +0.316 A 
ATOM     23  O   UNL     1       0.025  -0.100   2.232  0.00  0.00    -0.262 OA
ENDBRANCH  14  19
ENDBRANCH   1  14
TORSDOF 3
