REMARK  Name = ZINC13554958
REMARK  7 active torsions:
REMARK  status: ('A' for Active; 'I' for Inactive)
REMARK    1  A    between atoms: C_1  and  C_2
REMARK    2  A    between atoms: C_2  and  S_3
REMARK    3  A    between atoms: S_3  and  C_6
REMARK    4  A    between atoms: C_9  and  O_24
REMARK    5  A    between atoms: C_10  and  N_12
REMARK    6  A    between atoms: C_13  and  C_15
REMARK    7  A    between atoms: C_16  and  C_17
REMARK                            x       y       z     vdW  Elec       q    Type
REMARK                         _______ _______ _______ _____ _____    ______ ____
ROOT
ATOM      1  C   UNL     1      -1.558  -2.377   0.017  0.00  0.00    +0.090 A 
ATOM      2  C   UNL     1      -1.506  -3.052  -1.189  0.00  0.00    +0.030 A 
ATOM      3  C   UNL     1      -1.373  -4.428  -1.210  0.00  0.00    +0.049 A 
ATOM      4  C   UNL     1      -1.293  -5.135  -0.022  0.00  0.00    +0.138 A 
ATOM      5  C   UNL     1      -1.345  -4.456   1.194  0.00  0.00    +0.077 A 
ATOM      6  C   UNL     1      -1.472  -3.075   1.207  0.00  0.00    +0.054 A 
ENDROOT
BRANCH   5   7
ATOM      7  N   UNL     1      -1.263  -5.165   2.398  0.00  0.00    -0.279 N 
ATOM      8  C   UNL     1      -0.633  -4.622   3.459  0.00  0.00    +0.241 C 
ATOM      9  O   UNL     1      -0.206  -3.485   3.396  0.00  0.00    -0.270 OA
ATOM     10  H   UNL     1      -1.660  -6.047   2.469  0.00  0.00    +0.155 HD
BRANCH   8  11
ATOM     11  C   UNL     1      -0.462  -5.401   4.686  0.00  0.00    +0.068 C 
ATOM     12  C   UNL     1       0.169  -4.858   5.747  0.00  0.00    +0.013 C 
BRANCH  12  13
ATOM     13  C   UNL     1       0.340  -5.641   6.981  0.00  0.00    -0.025 A 
ATOM     14  C   UNL     1      -0.144  -6.951   7.055  0.00  0.00    +0.009 A 
ATOM     15  C   UNL     1       0.021  -7.679   8.214  0.00  0.00    +0.020 A 
ATOM     16  C   UNL     1       0.664  -7.116   9.304  0.00  0.00    +0.041 A 
ATOM     17  C   UNL     1       1.146  -5.819   9.238  0.00  0.00    +0.020 A 
ATOM     18  C   UNL     1       0.994  -5.081   8.083  0.00  0.00    +0.009 A 
ATOM     19 CL   UNL     1       0.866  -8.040  10.760  0.00  0.00    -0.084 Cl
ENDBRANCH  12  13
ENDBRANCH   8  11
ENDBRANCH   5   7
BRANCH   1  20
ATOM     20  S   UNL     1      -1.726  -0.623   0.036  0.00  0.00    -0.003 S 
ATOM     21  O   UNL     1      -2.340  -0.332   1.284  0.00  0.00    -0.169 OA
ATOM     22  O   UNL     1      -2.381  -0.309  -1.185  0.00  0.00    -0.169 OA
BRANCH  20  24
ATOM     23  C   UNL     1      -0.050   1.538   0.029  0.00  0.00    +0.028 C 
ATOM     24  C   UNL     1      -0.026   0.008   0.015  0.00  0.00    +0.168 C 
ENDBRANCH  20  24
ENDBRANCH   1  20
BRANCH   4  25
ATOM     25  O   UNL     1      -1.163  -6.489  -0.041  0.00  0.00    -0.505 OA
ATOM     26  H   UNL     1      -0.246  -6.796  -0.057  0.00  0.00    +0.292 HD
ENDBRANCH   4  25
TORSDOF 6
