REMARK  Name = ZINC08456034
REMARK  9 active torsions:
REMARK  status: ('A' for Active; 'I' for Inactive)
REMARK    1  A    between atoms: C_1  and  C_2
REMARK    2  A    between atoms: C_3  and  C_7
REMARK    3  A    between atoms: N_9  and  C_10
REMARK    4  A    between atoms: C_13  and  C_16
REMARK    5  A    between atoms: C_16  and  C_33
REMARK    6  A    between atoms: N_17  and  N_18
REMARK    7  A    between atoms: C_19  and  C_21
REMARK    8  A    between atoms: C_24  and  C_26
REMARK    9  A    between atoms: C_26  and  N_27
REMARK                            x       y       z     vdW  Elec       q    Type
REMARK                         _______ _______ _______ _____ _____    ______ ____
ROOT
ATOM      1  C   UNL     1       3.755   1.912   0.541  0.00  0.00    +0.063 C 
ATOM      2  N   UNL     1       4.833   1.202   0.408  0.00  0.00    -0.184 NA
ATOM      3  C   UNL     1       3.835   3.304   1.115  0.00  0.00    +0.068 C 
ENDROOT
BRANCH   1   7
ATOM      4  C   UNL     1       0.002   0.316  -0.640  0.00  0.00    +0.034 A 
ATOM      5  C   UNL     1       1.123   0.115  -1.438  0.00  0.00    +0.024 A 
ATOM      6  C   UNL     1       2.343   0.631  -1.058  0.00  0.00    +0.011 A 
ATOM      7  C   UNL     1       2.452   1.358   0.131  0.00  0.00    -0.002 A 
ATOM      8  C   UNL     1       1.322   1.559   0.929  0.00  0.00    +0.011 A 
ATOM      9  C   UNL     1       0.107   1.039   0.543  0.00  0.00    +0.024 A 
BRANCH   4  12
ATOM     10  C   UNL     1      -1.581  -0.218  -2.331  0.00  0.00    +0.252 C 
ATOM     11  O   UNL     1      -0.799   0.180  -3.173  0.00  0.00    -0.270 OA
ATOM     12  N   UNL     1      -1.232  -0.210  -1.029  0.00  0.00    -0.281 N 
ATOM     13  H   UNL     1      -1.839  -0.568  -0.362  0.00  0.00    +0.155 HD
BRANCH  10  16
ATOM     14  C   UNL     1      -2.697  -0.369  -5.259  0.00  0.00    +0.087 C 
ATOM     15  C   UNL     1      -3.413  -0.784  -4.000  0.00  0.00    +0.114 A 
ATOM     16  C   UNL     1      -2.911  -0.710  -2.734  0.00  0.00    +0.078 A 
ATOM     17  C   UNL     1      -3.970  -1.230  -1.857  0.00  0.00    +0.054 A 
ATOM     18  C   UNL     1      -4.992  -1.553  -2.663  0.00  0.00    +0.196 A 
ATOM     19  O   UNL     1      -4.650  -1.287  -3.934  0.00  0.00    -0.467 OA
ENDBRANCH  10  16
ENDBRANCH   4  12
ENDBRANCH   1   7
BRANCH   2  20
ATOM     20  N   UNL     1       4.743  -0.142   0.022  0.00  0.00    -0.200 N 
ATOM     21  C   UNL     1       5.864  -0.847  -0.228  0.00  0.00    +0.299 C 
ATOM     22  O   UNL     1       6.954  -0.317  -0.119  0.00  0.00    -0.265 OA
ATOM     23  H   UNL     1       3.875  -0.565  -0.064  0.00  0.00    +0.178 HD
BRANCH  21  24
ATOM     24  C   UNL     1       5.770  -2.253  -0.632  0.00  0.00    +0.191 A 
ATOM     25  C   UNL     1       6.821  -3.079  -0.915  0.00  0.00    +0.055 A 
ATOM     26  C   UNL     1       6.274  -4.327  -1.254  0.00  0.00    +0.047 A 
ATOM     27  C   UNL     1       4.931  -4.209  -1.165  0.00  0.00    +0.127 A 
ATOM     28  O   UNL     1       4.631  -2.960  -0.784  0.00  0.00    -0.453 OA
BRANCH  27  29
ATOM     29  C   UNL     1       3.934  -5.305  -1.441  0.00  0.00    +0.217 C 
BRANCH  29  30
ATOM     30  N   UNL     1       3.666  -6.044  -0.204  0.00  0.00    -0.263 N 
ATOM     31  C   UNL     1       2.452  -6.255   0.348  0.00  0.00    +0.124 A 
ATOM     32  C   UNL     1       2.632  -6.977   1.478  0.00  0.00    +0.055 A 
ATOM     33  C   UNL     1       4.003  -7.216   1.621  0.00  0.00    +0.149 A 
ATOM     34  N   UNL     1       4.623  -6.662   0.611  0.00  0.00    -0.178 NA
ATOM     35 BR   UNL     1       1.272  -7.560   2.655  0.00  0.00    -0.047 Br
ENDBRANCH  29  30
ENDBRANCH  27  29
ENDBRANCH  21  24
ENDBRANCH   2  20
TORSDOF 7
