REMARK  Name = ZINC39427027
REMARK  12 active torsions:
REMARK  status: ('A' for Active; 'I' for Inactive)
REMARK    1  A    between atoms: C_1  and  C_2
REMARK    2  A    between atoms: C_2  and  C_4
REMARK    3  A    between atoms: C_2  and  O_23
REMARK    4  A    between atoms: N_6  and  C_7
REMARK    5  A    between atoms: C_8  and  C_21
REMARK    6  A    between atoms: C_13  and  C_17
REMARK    7  A    between atoms: C_17  and  C_18
REMARK    8  A    between atoms: C_17  and  C_19
REMARK    9  A    between atoms: C_17  and  C_20
REMARK   10  A    between atoms: O_23  and  C_24
REMARK   11  A    between atoms: C_24  and  C_26
REMARK   12  A    between atoms: C_30  and  N_32
REMARK                            x       y       z     vdW  Elec       q    Type
REMARK                         _______ _______ _______ _____ _____    ______ ____
ROOT
ATOM      1  C   UNL     1       0.707  -0.490  -1.238  0.00  0.00    +0.258 C 
ATOM      2  O   UNL     1       0.095  -1.115  -2.078  0.00  0.00    -0.271 OA
ATOM      3  N   UNL     1       2.018  -0.231  -1.413  0.00  0.00    -0.276 N 
ATOM      4  H   UNL     1       2.508   0.269  -0.741  0.00  0.00    +0.155 HD
ENDROOT
BRANCH   3   5
ATOM      5  C   UNL     1       2.668  -0.678  -2.555  0.00  0.00    +0.090 A 
ATOM      6  C   UNL     1       4.000  -0.512  -2.897  0.00  0.00    +0.084 A 
ATOM      7  C   UNL     1       4.438  -1.081  -4.159  0.00  0.00    -0.018 A 
ATOM      8  C   UNL     1       3.462  -1.713  -4.848  0.00  0.00    -0.004 A 
ATOM      9  S   UNL     1       2.022  -1.553  -3.834  0.00  0.00    -0.077 S 
ATOM     10  C   UNL     1       3.596  -2.399  -6.173  0.00  0.00    +0.047 C 
ATOM     11  C   UNL     1       5.091  -2.605  -6.460  0.00  0.00    -0.000 C 
ATOM     12  C   UNL     1       5.832  -1.290  -6.199  0.00  0.00    +0.009 C 
ATOM     13  C   UNL     1       5.858  -0.996  -4.698  0.00  0.00    +0.037 C 
BRANCH  11  14
ATOM     14  C   UNL     1       5.279  -3.022  -7.920  0.00  0.00    -0.035 C 
ATOM     15  C   UNL     1       4.731  -1.927  -8.838  0.00  0.00    +0.011 C 
ATOM     16  C   UNL     1       6.769  -3.227  -8.203  0.00  0.00    +0.011 C 
ATOM     17  C   UNL     1       4.527  -4.329  -8.178  0.00  0.00    +0.011 C 
ENDBRANCH  11  14
BRANCH   6  18
ATOM     18  C   UNL     1       4.907   0.193  -2.042  0.00  0.00    +0.102 C 
ATOM     19  N   UNL     1       5.627   0.752  -1.364  0.00  0.00    -0.191 NA
ENDBRANCH   6  18
ENDBRANCH   3   5
BRANCH   1  21
ATOM     20  C   UNL     1      -0.019   1.526   0.010  0.00  0.00    +0.062 C 
ATOM     21  C   UNL     1       0.002  -0.004   0.002  0.00  0.00    +0.259 C 
BRANCH  21  22
ATOM     22  O   UNL     1      -1.339  -0.499   0.012  0.00  0.00    -0.449 OA
BRANCH  22  23
ATOM     23  C   UNL     1      -1.901  -0.717   1.217  0.00  0.00    +0.340 C 
ATOM     24  O   UNL     1      -1.270  -0.493   2.231  0.00  0.00    -0.245 OA
BRANCH  23  25
ATOM     25  C   UNL     1      -3.284  -1.228   1.304  0.00  0.00    +0.061 A 
ATOM     26  C   UNL     1      -4.009  -1.491   0.140  0.00  0.00    +0.015 A 
ATOM     27  C   UNL     1      -5.301  -1.968   0.225  0.00  0.00    +0.003 A 
ATOM     28  C   UNL     1      -5.883  -2.188   1.460  0.00  0.00    +0.023 A 
ATOM     29  C   UNL     1      -5.170  -1.929   2.625  0.00  0.00    +0.025 A 
ATOM     30  C   UNL     1      -3.869  -1.455   2.551  0.00  0.00    +0.037 A 
BRANCH  29  31
ATOM     31  N   UNL     1      -5.762  -2.152   3.870  0.00  0.00    -0.358 N 
ATOM     32  H   UNL     1      -6.671  -2.488   3.922  0.00  0.00    +0.142 HD
ATOM     33  H   UNL     1      -5.265  -1.972   4.683  0.00  0.00    +0.142 HD
ENDBRANCH  29  31
ENDBRANCH  23  25
ENDBRANCH  22  23
ENDBRANCH  21  22
ENDBRANCH   1  21
TORSDOF 8
