REMARK  Name = ZINC13065178
REMARK  15 active torsions:
REMARK  status: ('A' for Active; 'I' for Inactive)
REMARK    1  A    between atoms: C_1  and  C_2
REMARK    2  A    between atoms: C_2  and  C_3
REMARK    3  A    between atoms: C_3  and  C_5
REMARK    4  A    between atoms: C_3  and  N_74
REMARK    5  A    between atoms: N_9  and  C_10
REMARK    6  A    between atoms: C_10  and  C_11
REMARK    7  A    between atoms: C_10  and  C_12
REMARK    8  A    between atoms: C_10  and  C_13
REMARK    9  A    between atoms: C_13  and  C_14
REMARK   10  A    between atoms: C_15  and  C_16
REMARK   11  A    between atoms: C_15  and  N_74
REMARK   12  A    between atoms: C_25  and  C_26
REMARK   13  A    between atoms: C_25  and  N_74
REMARK   14  A    between atoms: C_29  and  C_39
REMARK   15  A    between atoms: C_32  and  C_38
REMARK                            x       y       z     vdW  Elec       q    Type
REMARK                         _______ _______ _______ _____ _____    ______ ____
ROOT
ATOM      1  N   UNL     1      -0.483   1.424   1.545  0.00  0.00    +0.392 N 
ATOM      2  H   UNL     1       0.262   1.019   2.124  0.00  0.00    -0.080 HD
ENDROOT
BRANCH   1   3
ATOM      3  C   UNL     1      -1.776   1.262   2.244  0.00  0.00    +0.003 C 
BRANCH   3   4
ATOM      4  C   UNL     1      -1.543   1.411   3.725  0.00  0.00    +0.139 A 
ATOM      5  N   UNL     1      -0.820   2.330   4.316  0.00  0.00    -0.115 NA
ATOM      6  N   UNL     1      -0.869   2.120   5.586  0.00  0.00    -0.023 NA
ATOM      7  N   UNL     1      -1.604   1.091   5.821  0.00  0.00    -0.043 NA
ATOM      8  N   UNL     1      -2.043   0.628   4.700  0.00  0.00    -0.225 N 
BRANCH   8   9
ATOM      9  C   UNL     1      -2.919  -0.533   4.520  0.00  0.00    +0.061 C 
ATOM     10  C   UNL     1      -4.180  -0.109   3.765  0.00  0.00    +0.036 C 
ATOM     11  C   UNL     1      -2.182  -1.608   3.718  0.00  0.00    +0.036 C 
BRANCH   9  12
ATOM     12  C   UNL     1      -3.308  -1.095   5.889  0.00  0.00    +0.026 C 
ATOM     13  C   UNL     1      -4.222  -2.307   5.701  0.00  0.00    +0.006 C 
ENDBRANCH   9  12
ENDBRANCH   8   9
ENDBRANCH   3   4
BRANCH   3  15
ATOM     14  C   UNL     1      -3.130   2.076   0.308  0.00  0.00    +0.002 C 
ATOM     15  C   UNL     1      -2.773   2.324   1.775  0.00  0.00    -0.011 C 
ENDBRANCH   3  15
ENDBRANCH   1   3
BRANCH   1  16
ATOM     16  C   UNL     1      -0.519   0.719   0.247  0.00  0.00    -0.041 C 
BRANCH  16  17
ATOM     17  C   UNL     1      -0.399  -0.762   0.498  0.00  0.00    -0.060 A 
ATOM     18  C   UNL     1       0.849  -1.337   0.651  0.00  0.00    +0.005 A 
ATOM     19  C   UNL     1       0.963  -2.695   0.887  0.00  0.00    +0.050 A 
ATOM     20  C   UNL     1      -0.173  -3.485   0.959  0.00  0.00    +0.166 A 
ATOM     21  C   UNL     1      -1.430  -2.906   0.799  0.00  0.00    +0.166 A 
ATOM     22  C   UNL     1      -1.537  -1.544   0.569  0.00  0.00    +0.051 A 
ATOM     23  O   UNL     1      -2.377  -3.883   0.911  0.00  0.00    -0.453 OA
ATOM     24  C   UNL     1      -1.671  -5.125   0.734  0.00  0.00    +0.466 C 
ATOM     25  O   UNL     1      -0.333  -4.823   1.171  0.00  0.00    -0.453 OA
ENDBRANCH  16  17
ENDBRANCH   1  16
BRANCH   1  26
ATOM     26  C   UNL     1      -0.200   2.859   1.333  0.00  0.00    -0.036 C 
BRANCH  26  27
ATOM     27  C   UNL     1       1.263   3.021   1.012  0.00  0.00    +0.001 A 
ATOM     28  C   UNL     1       1.669   3.083  -0.280  0.00  0.00    +0.017 A 
ATOM     29  C   UNL     1       3.098   3.245  -0.557  0.00  0.00    +0.002 A 
ATOM     30  C   UNL     1       3.576   3.321  -1.870  0.00  0.00    -0.041 A 
ATOM     31  C   UNL     1       4.915   3.468  -2.095  0.00  0.00    +0.004 A 
ATOM     32  C   UNL     1       5.806   3.543  -1.033  0.00  0.00    +0.005 A 
ATOM     33  C   UNL     1       5.358   3.470   0.268  0.00  0.00    -0.026 A 
ATOM     34  C   UNL     1       3.998   3.321   0.522  0.00  0.00    +0.052 A 
ATOM     35  N   UNL     1       3.522   3.246   1.813  0.00  0.00    -0.322 N 
ATOM     36  H   UNL     1       4.143   3.298   2.556  0.00  0.00    +0.169 HD
ATOM     37  C   UNL     1       2.207   3.102   2.058  0.00  0.00    +0.251 A 
ATOM     38  O   UNL     1       1.822   3.039   3.213  0.00  0.00    -0.268 OA
ATOM     39  C   UNL     1       6.336   3.553   1.411  0.00  0.00    +0.046 C 
ATOM     40  C   UNL     1       2.618   3.241  -3.030  0.00  0.00    +0.044 C 
ENDBRANCH  26  27
ENDBRANCH   1  26
TORSDOF 9
