REMARK  Name = ZINC09490542
REMARK  8 active torsions:
REMARK  status: ('A' for Active; 'I' for Inactive)
REMARK    1  A    between atoms: C_1  and  C_2
REMARK    2  A    between atoms: C_4  and  C_30
REMARK    3  A    between atoms: C_5  and  N_9
REMARK    4  A    between atoms: C_6  and  C_8
REMARK    5  A    between atoms: C_10  and  C_12
REMARK    6  A    between atoms: C_14  and  S_19
REMARK    7  A    between atoms: S_19  and  N_22
REMARK    8  A    between atoms: N_22  and  C_23
REMARK                            x       y       z     vdW  Elec       q    Type
REMARK                         _______ _______ _______ _____ _____    ______ ____
ROOT
ATOM      1  C   UNL     1      -1.105   3.390   0.689  0.00  0.00    +0.074 A 
ATOM      2  C   UNL     1      -0.060   3.790  -0.146  0.00  0.00    +0.044 A 
ATOM      3  C   UNL     1       1.116   3.071  -0.167  0.00  0.00    +0.106 A 
ATOM      4  C   UNL     1       1.264   1.954   0.637  0.00  0.00    +0.031 A 
ATOM      5  C   UNL     1       0.236   1.550   1.467  0.00  0.00    +0.041 A 
ATOM      6  C   UNL     1      -0.952   2.257   1.495  0.00  0.00    +0.136 A 
ATOM      7  F   UNL     1      -1.960   1.859   2.303  0.00  0.00    -0.205 F 
ENDROOT
BRANCH   1   9
ATOM      8  N   UNL     1      -2.513   5.244  -0.065  0.00  0.00    -0.281 N 
ATOM      9  C   UNL     1      -2.368   4.155   0.717  0.00  0.00    +0.251 C 
ATOM     10  O   UNL     1      -3.276   3.804   1.445  0.00  0.00    -0.270 OA
ATOM     11  H   UNL     1      -1.771   5.555  -0.606  0.00  0.00    +0.155 HD
BRANCH   8  16
ATOM     12  C   UNL     1      -7.467   8.004  -0.191  0.00  0.00    +0.044 C 
ATOM     13  C   UNL     1      -6.151   7.271  -0.158  0.00  0.00    -0.050 A 
ATOM     14  C   UNL     1      -4.981   7.965   0.088  0.00  0.00    +0.008 A 
ATOM     15  C   UNL     1      -3.773   7.296   0.120  0.00  0.00    -0.029 A 
ATOM     16  C   UNL     1      -3.735   5.924  -0.096  0.00  0.00    +0.040 A 
ATOM     17  C   UNL     1      -4.912   5.231  -0.347  0.00  0.00    -0.029 A 
ATOM     18  C   UNL     1      -6.117   5.905  -0.372  0.00  0.00    +0.008 A 
ATOM     19  C   UNL     1      -4.874   3.743  -0.587  0.00  0.00    +0.045 C 
ATOM     20  C   UNL     1      -2.498   8.053   0.388  0.00  0.00    +0.045 C 
ENDBRANCH   8  16
ENDBRANCH   1   9
BRANCH   3  21
ATOM     21  S   UNL     1       2.435   3.576  -1.221  0.00  0.00    +0.059 S 
ATOM     22  O   UNL     1       2.251   4.963  -1.466  0.00  0.00    -0.153 OA
ATOM     23  O   UNL     1       3.630   3.055  -0.654  0.00  0.00    -0.153 OA
BRANCH  21  24
ATOM     24  N   UNL     1       2.224   2.807  -2.672  0.00  0.00    -0.187 NA
ATOM     25  H   UNL     1       2.876   2.155  -2.975  0.00  0.00    +0.148 HD
BRANCH  24  26
ATOM     26  C   UNL     1       1.053   3.110  -3.498  0.00  0.00    +0.077 C 
ATOM     27  C   UNL     1      -0.063   2.095  -3.174  0.00  0.00    +0.020 C 
ATOM     28  C   UNL     1      -1.381   2.683  -3.603  0.00  0.00    +0.002 C 
ATOM     29  C   UNL     1      -1.787   2.240  -5.022  0.00  0.00    +0.000 C 
ATOM     30  C   UNL     1      -0.605   2.243  -6.010  0.00  0.00    +0.000 C 
ATOM     31  C   UNL     1       0.282   3.447  -5.843  0.00  0.00    +0.002 C 
ATOM     32  C   UNL     1       1.443   3.073  -4.900  0.00  0.00    +0.020 C 
ENDBRANCH  24  26
ENDBRANCH  21  24
ENDBRANCH   3  21
TORSDOF 5
