REMARK  Name = ZINC04163804
REMARK  6 active torsions:
REMARK  status: ('A' for Active; 'I' for Inactive)
REMARK    1  A    between atoms: C_4  and  C_7
REMARK    2  A    between atoms: C_7  and  C_9
REMARK    3  A    between atoms: C_11  and  C_23
REMARK    4  A    between atoms: C_17  and  C_18
REMARK    5  A    between atoms: C_17  and  O_22
REMARK    6  A    between atoms: C_26  and  C_28
REMARK                            x       y       z     vdW  Elec       q    Type
REMARK                         _______ _______ _______ _____ _____    ______ ____
ROOT
ATOM      1  C   UNL     1      -0.747   1.595  -1.237  0.00  0.00    +0.147 C 
ATOM      2  C   UNL     1      -0.013   1.086   0.008  0.00  0.00    +0.156 C 
ATOM      3  N   UNL     1       1.360   1.594  -0.002  0.00  0.00    -0.289 N 
ATOM      4  C   UNL     1       1.998   1.857  -1.153  0.00  0.00    +0.302 C 
ATOM      5  O   UNL     1       3.141   2.267  -1.105  0.00  0.00    -0.253 OA
ATOM      6  N   UNL     1       1.424   1.686  -2.353  0.00  0.00    -0.264 N 
ATOM      7  C   UNL     1       0.055   1.184  -2.477  0.00  0.00    +0.243 C 
ATOM      8  H   UNL     1       1.818   1.742   0.840  0.00  0.00    +0.151 HD
ATOM      9  H   UNL     1       1.926   1.900  -3.155  0.00  0.00    +0.153 HD
ENDROOT
BRANCH   2  10
ATOM     10  C   UNL     1      -0.721   1.573   1.246  0.00  0.00    +0.127 A 
ATOM     11  C   UNL     1      -1.572   0.850   2.000  0.00  0.00    +0.047 A 
ATOM     12  C   UNL     1      -2.000   1.684   3.053  0.00  0.00    +0.050 A 
ATOM     13  C   UNL     1      -1.380   2.881   2.881  0.00  0.00    +0.135 A 
ATOM     14  O   UNL     1      -0.604   2.798   1.784  0.00  0.00    -0.458 OA
BRANCH  13  15
ATOM     15  C   UNL     1      -1.529   4.067   3.751  0.00  0.00    +0.017 A 
ATOM     16  C   UNL     1      -2.372   4.020   4.862  0.00  0.00    +0.013 A 
ATOM     17  C   UNL     1      -2.502   5.128   5.673  0.00  0.00    +0.021 A 
ATOM     18  C   UNL     1      -1.808   6.290   5.380  0.00  0.00    +0.041 A 
ATOM     19  C   UNL     1      -0.975   6.345   4.275  0.00  0.00    +0.021 A 
ATOM     20  C   UNL     1      -0.832   5.241   3.460  0.00  0.00    +0.013 A 
ATOM     21 CL   UNL     1      -1.982   7.683   6.401  0.00  0.00    -0.084 Cl
ENDBRANCH  13  15
ENDBRANCH   2  10
BRANCH   7  22
ATOM     22  C   UNL     1      -0.596   1.778  -3.728  0.00  0.00    +0.436 C 
ATOM     23  F   UNL     1       0.141   1.407  -4.858  0.00  0.00    -0.166 F 
ATOM     24  F   UNL     1      -1.905   1.297  -3.846  0.00  0.00    -0.166 F 
ATOM     25  F   UNL     1      -0.619   3.173  -3.625  0.00  0.00    -0.166 F 
ENDBRANCH   7  22
BRANCH   1  26
ATOM     26  C   UNL     1      -0.858   3.097  -1.181  0.00  0.00    +0.173 C 
ATOM     27  O   UNL     1      -0.033   3.787  -1.741  0.00  0.00    -0.292 OA
BRANCH  26  31
ATOM     28  C   UNL     1      -4.054   4.909   0.938  0.00  0.00    +0.000 A 
ATOM     29  C   UNL     1      -3.115   5.700   0.300  0.00  0.00    +0.001 A 
ATOM     30  C   UNL     1      -2.073   5.119  -0.390  0.00  0.00    +0.011 A 
ATOM     31  C   UNL     1      -1.966   3.725  -0.445  0.00  0.00    +0.018 A 
ATOM     32  C   UNL     1      -2.923   2.933   0.197  0.00  0.00    +0.011 A 
ATOM     33  C   UNL     1      -3.956   3.529   0.889  0.00  0.00    +0.001 A 
ENDBRANCH  26  31
ENDBRANCH   1  26
BRANCH   7  34
ATOM     34  O   UNL     1       0.076  -0.241  -2.581  0.00  0.00    -0.364 OA
ATOM     35  H   UNL     1       0.572  -0.573  -3.342  0.00  0.00    +0.212 HD
ENDBRANCH   7  34
TORSDOF 6
