REMARK  Name = ZINC40170780
REMARK  9 active torsions:
REMARK  status: ('A' for Active; 'I' for Inactive)
REMARK    1  A    between atoms: C_1  and  C_2
REMARK    2  A    between atoms: C_4  and  C_34
REMARK    3  A    between atoms: C_8  and  C_33
REMARK    4  A    between atoms: C_12  and  S_15
REMARK    5  A    between atoms: S_15  and  C_16
REMARK    6  A    between atoms: C_16  and  C_17
REMARK    7  A    between atoms: C_17  and  C_18
REMARK    8  A    between atoms: N_20  and  C_21
REMARK    9  A    between atoms: C_22  and  C_30
REMARK                            x       y       z     vdW  Elec       q    Type
REMARK                         _______ _______ _______ _____ _____    ______ ____
ROOT
ATOM      1  C   UNL     1       3.341  -6.236  -4.154  0.00  0.00    +0.107 C 
ENDROOT
BRANCH   1   2
ATOM      2  C   UNL     1       3.706  -7.607  -4.663  0.00  0.00    +0.218 C 
ATOM      3  O   UNL     1       3.322  -8.595  -4.073  0.00  0.00    -0.275 OA
ATOM      4  N   UNL     1       4.459  -7.736  -5.773  0.00  0.00    -0.279 N 
ATOM      5  H   UNL     1       4.766  -6.946  -6.245  0.00  0.00    +0.155 HD
BRANCH   4   6
ATOM      6  C   UNL     1       4.795  -8.997  -6.241  0.00  0.00    +0.084 A 
ATOM      7  C   UNL     1       5.558  -9.318  -7.353  0.00  0.00    +0.068 A 
ATOM      8  C   UNL     1       5.765 -10.728  -7.631  0.00  0.00    -0.023 A 
ATOM      9  C   UNL     1       5.171 -11.559  -6.747  0.00  0.00    -0.004 A 
ATOM     10  S   UNL     1       4.375 -10.486  -5.588  0.00  0.00    -0.077 S 
ATOM     11  C   UNL     1       5.197 -13.056  -6.762  0.00  0.00    +0.043 C 
ATOM     12  C   UNL     1       5.685 -13.516  -8.144  0.00  0.00    +0.005 C 
ATOM     13  C   UNL     1       6.942 -12.724  -8.515  0.00  0.00    +0.005 C 
ATOM     14  C   UNL     1       6.574 -11.267  -8.802  0.00  0.00    +0.037 C 
BRANCH   7  15
ATOM     15  C   UNL     1       6.132  -8.277  -8.212  0.00  0.00    +0.244 C 
ATOM     16  O   UNL     1       7.240  -7.835  -7.974  0.00  0.00    -0.270 OA
ATOM     17  N   UNL     1       5.432  -7.811  -9.265  0.00  0.00    -0.325 N 
ATOM     18  H   UNL     1       4.548  -8.164  -9.454  0.00  0.00    +0.145 HD
ATOM     19  H   UNL     1       5.812  -7.123  -9.833  0.00  0.00    +0.145 HD
ENDBRANCH   7  15
ENDBRANCH   4   6
ENDBRANCH   1   2
BRANCH   1  20
ATOM     20  C   UNL     1       2.489  -6.372  -2.891  0.00  0.00    +0.086 C 
BRANCH  20  21
ATOM     21  S   UNL     1       2.050  -4.721  -2.278  0.00  0.00    -0.085 S 
BRANCH  21  33
ATOM     22  C   UNL     1      -0.018   1.502   0.010  0.00  0.00    +0.044 C 
ATOM     23  C   UNL     1       0.002  -0.004   0.002  0.00  0.00    -0.050 A 
ATOM     24  C   UNL     1      -0.039  -0.695  -1.196  0.00  0.00    +0.008 A 
ATOM     25  C   UNL     1       0.027  -2.076  -1.217  0.00  0.00    -0.026 A 
ATOM     26  C   UNL     1       0.210  -2.789  -0.045  0.00  0.00    +0.061 A 
ATOM     27  C   UNL     1       0.069  -2.094   1.181  0.00  0.00    +0.002 A 
ATOM     28  C   UNL     1       0.023  -0.698   1.192  0.00  0.00    +0.013 A 
ATOM     29  C   UNL     1      -0.094  -2.861   2.418  0.00  0.00    -0.038 A 
ATOM     30  C   UNL     1      -0.041  -4.212   2.365  0.00  0.00    +0.052 A 
ATOM     31  C   UNL     1       0.250  -4.863   1.149  0.00  0.00    +0.162 A 
ATOM     32  N   UNL     1       0.502  -4.139  -0.003  0.00  0.00    -0.270 N 
ATOM     33  C   UNL     1       1.082  -5.044  -0.841  0.00  0.00    +0.196 A 
ATOM     34  N   UNL     1       0.836  -6.244  -0.351  0.00  0.00    -0.122 NA
ATOM     35  N   UNL     1       0.309  -6.138   0.812  0.00  0.00    -0.129 NA
ATOM     36  C   UNL     1      -0.321  -2.174   3.740  0.00  0.00    +0.044 C 
ATOM     37  C   UNL     1      -0.188  -2.769  -2.540  0.00  0.00    +0.046 C 
ENDBRANCH  21  33
ENDBRANCH  20  21
ENDBRANCH   1  20
TORSDOF 6
