REMARK  Name = ZINC63229017
REMARK  11 active torsions:
REMARK  status: ('A' for Active; 'I' for Inactive)
REMARK    1  A    between atoms: C_1  and  S_2
REMARK    2  A    between atoms: S_2  and  C_3
REMARK    3  A    between atoms: C_7  and  N_9
REMARK    4  A    between atoms: C_10  and  C_12
REMARK    5  A    between atoms: C_12  and  O_13
REMARK    6  A    between atoms: O_13  and  C_14
REMARK    7  A    between atoms: C_14  and  C_16
REMARK    8  A    between atoms: C_16  and  C_18
REMARK    9  A    between atoms: C_16  and  N_28
REMARK   10  A    between atoms: C_18  and  C_19
REMARK   11  A    between atoms: C_29  and  C_31
REMARK                            x       y       z     vdW  Elec       q    Type
REMARK                         _______ _______ _______ _____ _____    ______ ____
ROOT
ATOM      1  C   UNL     1       5.135  -6.651   7.441  0.00  0.00    +0.186 C 
ENDROOT
BRANCH   1   2
ATOM      2  N   UNL     1       5.418  -8.072   7.657  0.00  0.00    -0.298 N 
ATOM      3  C   UNL     1       5.702  -8.522   8.896  0.00  0.00    +0.245 C 
ATOM      4  O   UNL     1       5.723  -7.748   9.833  0.00  0.00    -0.270 OA
ATOM      5  H   UNL     1       5.401  -8.690   6.909  0.00  0.00    +0.150 HD
BRANCH   3   6
ATOM      6  C   UNL     1       5.987  -9.955   9.114  0.00  0.00    +0.037 A 
ATOM      7  C   UNL     1       5.969 -10.845   8.038  0.00  0.00    +0.016 A 
ATOM      8  C   UNL     1       6.236 -12.181   8.247  0.00  0.00    +0.039 A 
ATOM      9  C   UNL     1       6.522 -12.642   9.523  0.00  0.00    +0.123 A 
ATOM     10  C   UNL     1       6.541 -11.762  10.595  0.00  0.00    +0.039 A 
ATOM     11  C   UNL     1       6.282 -10.423  10.396  0.00  0.00    +0.016 A 
ATOM     12  F   UNL     1       6.782 -13.952   9.723  0.00  0.00    -0.205 F 
ENDBRANCH   3   6
ENDBRANCH   1   2
BRANCH   1  13
ATOM     13  C   UNL     1       4.284  -6.491   6.207  0.00  0.00    +0.328 C 
ATOM     14  O   UNL     1       3.949  -7.464   5.574  0.00  0.00    -0.249 OA
BRANCH  13  15
ATOM     15  O   UNL     1       3.899  -5.267   5.812  0.00  0.00    -0.454 OA
BRANCH  15  16
ATOM     16  C   UNL     1       3.094  -5.189   4.634  0.00  0.00    +0.328 C 
BRANCH  16  18
ATOM     17  N   UNL     1       2.006  -3.430   3.277  0.00  0.00    -0.283 N 
ATOM     18  C   UNL     1       2.761  -3.748   4.347  0.00  0.00    +0.255 C 
ATOM     19  O   UNL     1       3.173  -2.873   5.080  0.00  0.00    -0.272 OA
ATOM     20  H   UNL     1       1.613  -4.133   2.735  0.00  0.00    +0.155 HD
BRANCH  17  25
ATOM     21  C   UNL     1       0.372  -0.365   2.056  0.00  0.00    +0.009 A 
ATOM     22  C   UNL     1       1.368   0.574   2.298  0.00  0.00    +0.015 A 
ATOM     23  C   UNL     1       2.567   0.182   2.861  0.00  0.00    +0.003 A 
ATOM     24  C   UNL     1       2.780  -1.144   3.186  0.00  0.00    +0.023 A 
ATOM     25  C   UNL     1       1.789  -2.088   2.947  0.00  0.00    +0.035 A 
ATOM     26  C   UNL     1       0.581  -1.697   2.387  0.00  0.00    +0.038 A 
BRANCH  21  28
ATOM     27  C   UNL     1      -0.961   1.922   1.089  0.00  0.00    +0.090 C 
ATOM     28  S   UNL     1      -1.157   0.135   1.338  0.00  0.00    -0.129 S 
ENDBRANCH  21  28
ENDBRANCH  17  25
ENDBRANCH  16  18
ENDBRANCH  15  16
ENDBRANCH  13  15
ENDBRANCH   1  13
BRANCH   1  29
ATOM     29  C   UNL     1       6.450  -5.892   7.256  0.00  0.00    +0.067 C 
BRANCH  29  30
ATOM     30  C   UNL     1       7.247  -5.949   8.533  0.00  0.00    -0.039 C 
ATOM     31  C   UNL     1       8.225  -6.831   8.843  0.00  0.00    -0.001 A 
ATOM     32  C   UNL     1       8.815  -7.959   8.111  0.00  0.00    +0.010 A 
ATOM     33  C   UNL     1       9.802  -8.675   8.695  0.00  0.00    +0.001 A 
ATOM     34  C   UNL     1      10.274  -8.369   9.979  0.00  0.00    +0.002 A 
ATOM     35  C   UNL     1       9.782  -7.349  10.713  0.00  0.00    +0.026 A 
ATOM     36  C   UNL     1       8.742  -6.529  10.196  0.00  0.00    +0.043 A 
ATOM     37  N   UNL     1       8.108  -5.499  10.704  0.00  0.00    -0.380 N 
ATOM     38  C   UNL     1       7.121  -5.029   9.726  0.00  0.00    +0.144 C 
ATOM     39  H   UNL     1       8.268  -5.111  11.579  0.00  0.00    +0.160 HD
ENDBRANCH  29  30
ENDBRANCH   1  29
TORSDOF 10
