REMARK  Name = ZINC45632288
REMARK  10 active torsions:
REMARK  status: ('A' for Active; 'I' for Inactive)
REMARK    1  A    between atoms: C_1  and  C_2
REMARK    2  A    between atoms: C_5  and  C_9
REMARK    3  A    between atoms: C_6  and  C_8
REMARK    4  A    between atoms: C_10  and  C_11
REMARK    5  A    between atoms: N_13  and  C_14
REMARK    6  A    between atoms: N_13  and  C_21
REMARK    7  A    between atoms: C_14  and  C_15
REMARK    8  A    between atoms: C_22  and  N_37
REMARK    9  A    between atoms: N_23  and  C_30
REMARK   10  A    between atoms: C_30  and  C_31
REMARK                            x       y       z     vdW  Elec       q    Type
REMARK                         _______ _______ _______ _____ _____    ______ ____
ROOT
ATOM      1  C   UNL     1      -0.223  -6.446  -1.228  0.00  0.00    +0.244 C 
ATOM      2  O   UNL     1      -0.383  -7.067  -0.194  0.00  0.00    -0.270 OA
ATOM      3  N   UNL     1       0.029  -7.104  -2.377  0.00  0.00    -0.256 N 
ENDROOT
BRANCH   3   4
ATOM      4  C   UNL     1       0.203  -8.503  -2.365  0.00  0.00    +0.140 A 
ATOM      5  C   UNL     1       1.252  -9.074  -1.674  0.00  0.00    +0.128 A 
ATOM      6  N   UNL     1       1.395 -10.442  -1.680  0.00  0.00    -0.276 N 
ATOM      7  C   UNL     1       0.522 -11.215  -2.352  0.00  0.00    +0.331 A 
ATOM      8  O   UNL     1       0.665 -12.422  -2.344  0.00  0.00    -0.246 OA
ATOM      9  N   UNL     1      -0.507 -10.676  -3.030  0.00  0.00    -0.273 N 
ATOM     10  H   UNL     1      -1.123 -11.255  -3.506  0.00  0.00    +0.173 HD
ATOM     11  C   UNL     1      -0.695  -9.342  -3.052  0.00  0.00    +0.277 A 
ATOM     12  O   UNL     1      -1.634  -8.865  -3.666  0.00  0.00    -0.266 OA
BRANCH   5  13
ATOM     13  N   UNL     1       2.145  -8.285  -0.989  0.00  0.00    -0.343 N 
ATOM     14  H   UNL     1       2.007  -7.326  -0.942  0.00  0.00    +0.144 HD
ATOM     15  H   UNL     1       2.912  -8.687  -0.552  0.00  0.00    +0.144 HD
ENDBRANCH   5  13
BRANCH   6  16
ATOM     16  C   UNL     1       2.505 -11.061  -0.952  0.00  0.00    +0.163 C 
BRANCH  16  17
ATOM     17  C   UNL     1       2.073 -11.364   0.460  0.00  0.00    -0.028 A 
ATOM     18  C   UNL     1       2.245 -10.418   1.453  0.00  0.00    +0.005 A 
ATOM     19  C   UNL     1       1.849 -10.696   2.748  0.00  0.00    +0.000 A 
ATOM     20  C   UNL     1       1.279 -11.919   3.050  0.00  0.00    +0.000 A 
ATOM     21  C   UNL     1       1.106 -12.864   2.056  0.00  0.00    +0.000 A 
ATOM     22  C   UNL     1       1.498 -12.585   0.760  0.00  0.00    +0.005 A 
ENDBRANCH  16  17
ENDBRANCH   6  16
ENDBRANCH   3   4
BRANCH   1  24
ATOM     23  C   UNL     1      -0.558  -4.326  -0.076  0.00  0.00    +0.013 C 
ATOM     24  C   UNL     1      -0.306  -4.984  -1.225  0.00  0.00    +0.068 C 
BRANCH  23  29
ATOM     25  C   UNL     1      -0.882   1.414  -0.062  0.00  0.00    +0.044 C 
ATOM     26  C   UNL     1      -0.797  -0.090  -0.066  0.00  0.00    -0.050 A 
ATOM     27  C   UNL     1      -0.537  -0.762  -1.248  0.00  0.00    +0.004 A 
ATOM     28  C   UNL     1      -0.458  -2.139  -1.259  0.00  0.00    +0.008 A 
ATOM     29  C   UNL     1      -0.640  -2.856  -0.072  0.00  0.00    -0.022 A 
ATOM     30  C   UNL     1      -0.902  -2.170   1.117  0.00  0.00    -0.043 A 
ATOM     31  C   UNL     1      -0.973  -0.792   1.113  0.00  0.00    +0.007 A 
ATOM     32  C   UNL     1      -1.101  -2.933   2.402  0.00  0.00    +0.044 C 
ENDBRANCH  23  29
ENDBRANCH   1  24
BRANCH   3  33
ATOM     33  C   UNL     1       0.122  -6.365  -3.639  0.00  0.00    +0.149 C 
BRANCH  33  34
ATOM     34  C   UNL     1       1.567  -6.052  -3.932  0.00  0.00    -0.030 A 
ATOM     35  C   UNL     1       2.098  -4.830  -3.562  0.00  0.00    +0.005 A 
ATOM     36  C   UNL     1       3.423  -4.542  -3.831  0.00  0.00    +0.000 A 
ATOM     37  C   UNL     1       4.217  -5.477  -4.468  0.00  0.00    +0.000 A 
ATOM     38  C   UNL     1       3.687  -6.699  -4.837  0.00  0.00    +0.000 A 
ATOM     39  C   UNL     1       2.363  -6.988  -4.564  0.00  0.00    +0.005 A 
ENDBRANCH  33  34
ENDBRANCH   3  33
TORSDOF 8
