REMARK  Name = ZINC64053600
REMARK  7 active torsions:
REMARK  status: ('A' for Active; 'I' for Inactive)
REMARK    1  A    between atoms: C_6  and  C_11
REMARK    2  A    between atoms: C_15  and  N_17
REMARK    3  A    between atoms: C_18  and  C_20
REMARK    4  A    between atoms: N_25  and  C_27
REMARK    5  A    between atoms: C_27  and  C_28
REMARK    6  A    between atoms: C_31  and  C_33
REMARK    7  A    between atoms: C_33  and  O_34
REMARK                            x       y       z     vdW  Elec       q    Type
REMARK                         _______ _______ _______ _____ _____    ______ ____
ROOT
ATOM      1  N   UNL     1       5.067  -6.028   2.120  0.00  0.00    -0.285 N 
ATOM      2  C   UNL     1       5.618  -6.627   3.194  0.00  0.00    +0.218 C 
ATOM      3  O   UNL     1       5.622  -6.062   4.268  0.00  0.00    -0.275 OA
ATOM      4  H   UNL     1       4.995  -6.509   1.280  0.00  0.00    +0.155 HD
ENDROOT
BRANCH   2   5
ATOM      5  C   UNL     1       6.229  -7.997   3.062  0.00  0.00    +0.059 C 
ATOM      6  C   UNL     1       7.370  -7.953   2.042  0.00  0.00    +0.009 C 
ATOM      7  C   UNL     1       8.035  -9.331   1.972  0.00  0.00    -0.018 C 
ATOM      8  C   UNL     1       8.521  -9.727   3.368  0.00  0.00    -0.078 C 
ATOM      9  N   UNL     1       7.381  -9.778   4.291  0.00  0.00    +0.385 N 
ATOM     10  C   UNL     1       6.782  -8.444   4.418  0.00  0.00    -0.066 C 
ATOM     11  H   UNL     1       6.691 -10.422   3.936  0.00  0.00    -0.081 HD
BRANCH   9  12
ATOM     12  C   UNL     1       7.840 -10.234   5.610  0.00  0.00    -0.003 C 
BRANCH  12  13
ATOM     13  C   UNL     1       8.334 -11.654   5.506  0.00  0.00    +0.089 A 
ATOM     14  C   UNL     1       9.596 -12.030   5.234  0.00  0.00    +0.043 A 
ATOM     15  C   UNL     1       9.612 -13.443   5.234  0.00  0.00    +0.047 A 
ATOM     16  C   UNL     1       8.358 -13.847   5.506  0.00  0.00    +0.130 A 
ATOM     17  O   UNL     1       7.589 -12.758   5.676  0.00  0.00    -0.464 OA
BRANCH  16  18
ATOM     18  C   UNL     1       7.895 -15.277   5.609  0.00  0.00    +0.230 C 
BRANCH  18  19
ATOM     19  O   UNL     1       8.033 -15.727   6.958  0.00  0.00    -0.387 OA
ATOM     20  H   UNL     1       7.753 -16.642   7.099  0.00  0.00    +0.210 HD
ENDBRANCH  18  19
ENDBRANCH  16  18
ENDBRANCH  12  13
ENDBRANCH   9  12
ENDBRANCH   2   5
BRANCH   1  25
ATOM     21  C   UNL     1       3.034  -3.014   1.573  0.00  0.00    -0.020 A 
ATOM     22  C   UNL     1       3.674  -2.112   2.402  0.00  0.00    +0.006 A 
ATOM     23  C   UNL     1       4.776  -2.507   3.139  0.00  0.00    +0.002 A 
ATOM     24  C   UNL     1       5.240  -3.804   3.047  0.00  0.00    +0.023 A 
ATOM     25  C   UNL     1       4.599  -4.713   2.215  0.00  0.00    +0.034 A 
ATOM     26  C   UNL     1       3.490  -4.314   1.481  0.00  0.00    +0.029 A 
BRANCH  21  32
ATOM     27  C   UNL     1      -1.058   0.840   2.000  0.00  0.00    +0.001 A 
ATOM     28  C   UNL     1      -0.188   1.537   1.150  0.00  0.00    +0.002 A 
ATOM     29  C   UNL     1       0.855   0.946   0.529  0.00  0.00    +0.026 A 
ATOM     30  C   UNL     1       1.113  -0.440   0.720  0.00  0.00    +0.043 A 
ATOM     31  N   UNL     1       2.043  -1.229   0.239  0.00  0.00    -0.374 N 
ATOM     32  C   UNL     1       1.833  -2.579   0.773  0.00  0.00    +0.133 C 
ATOM     33  C   UNL     1       0.615  -2.487   1.665  0.00  0.00    +0.012 C 
ATOM     34  C   UNL     1       0.209  -1.198   1.613  0.00  0.00    -0.004 A 
ATOM     35  C   UNL     1      -0.902  -0.480   2.250  0.00  0.00    +0.010 A 
ATOM     36  H   UNL     1       2.751  -0.964  -0.369  0.00  0.00    +0.161 HD
ENDBRANCH  21  32
ENDBRANCH   1  25
TORSDOF 7
