REMARK  Name = ZINC44173566
REMARK  6 active torsions:
REMARK  status: ('A' for Active; 'I' for Inactive)
REMARK    1  A    between atoms: C_1  and  C_2
REMARK    2  A    between atoms: C_5  and  N_9
REMARK    3  A    between atoms: C_14  and  C_31
REMARK    4  A    between atoms: C_17  and  C_22
REMARK    5  A    between atoms: C_17  and  C_28
REMARK    6  A    between atoms: C_32  and  C_33
REMARK                            x       y       z     vdW  Elec       q    Type
REMARK                         _______ _______ _______ _____ _____    ______ ____
ROOT
ATOM      1  N   UNL     1       0.418  -4.038   0.680  0.00  0.00    -0.210 N 
ATOM      2  C   UNL     1       0.444  -4.556  -0.592  0.00  0.00    +0.229 C 
ATOM      3  O   UNL     1       0.765  -3.989  -1.614  0.00  0.00    -0.275 OA
ATOM      4  C   UNL     1       0.006  -5.921  -0.442  0.00  0.00    +0.077 C 
ATOM      5  C   UNL     1       0.061  -7.216  -1.142  0.00  0.00    -0.034 C 
ATOM      6  N   UNL     1      -0.465  -8.162  -0.098  0.00  0.00    +0.398 N 
ATOM      7  C   UNL     1      -0.255  -7.529   1.239  0.00  0.00    +0.074 C 
ATOM      8  C   UNL     1       0.627  -6.302   0.960  0.00  0.00    +0.090 C 
ATOM      9  C   UNL     1       0.294  -5.003   1.640  0.00  0.00    +0.229 C 
ATOM     10  O   UNL     1      -0.021  -4.845   2.800  0.00  0.00    -0.275 OA
ATOM     11  H   UNL     1      -1.449  -8.323  -0.248  0.00  0.00    -0.083 HD
ATOM     12  H   UNL     1       0.037  -9.036  -0.144  0.00  0.00    -0.083 HD
ENDROOT
BRANCH   1  17
ATOM     13  C   UNL     1       0.806   1.508   1.825  0.00  0.00    +0.045 C 
ATOM     14  C   UNL     1       0.703   0.036   1.521  0.00  0.00    -0.032 A 
ATOM     15  C   UNL     1       0.732  -0.403   0.210  0.00  0.00    +0.006 A 
ATOM     16  C   UNL     1       0.638  -1.751  -0.072  0.00  0.00    +0.024 A 
ATOM     17  C   UNL     1       0.514  -2.669   0.963  0.00  0.00    +0.045 A 
ATOM     18  C   UNL     1       0.486  -2.227   2.279  0.00  0.00    +0.044 A 
ATOM     19  C   UNL     1       0.585  -0.876   2.555  0.00  0.00    +0.046 A 
ATOM     20 CL   UNL     1       0.556  -0.323   4.200  0.00  0.00    -0.083 Cl
ENDBRANCH   1  17
BRANCH   7  21
ATOM     21  C   UNL     1      -1.577  -7.125   1.839  0.00  0.00    -0.047 A 
ATOM     22  C   UNL     1      -1.691  -6.949   3.205  0.00  0.00    +0.003 A 
ATOM     23  C   UNL     1      -2.904  -6.580   3.755  0.00  0.00    +0.000 A 
ATOM     24  C   UNL     1      -4.003  -6.385   2.939  0.00  0.00    +0.000 A 
ATOM     25  C   UNL     1      -3.888  -6.560   1.572  0.00  0.00    +0.000 A 
ATOM     26  C   UNL     1      -2.674  -6.926   1.022  0.00  0.00    +0.003 A 
ENDBRANCH   7  21
BRANCH   7  27
ATOM     27  C   UNL     1       0.469  -8.479   2.158  0.00  0.00    +0.350 C 
ATOM     28  O   UNL     1       0.766  -9.595   1.770  0.00  0.00    -0.248 OA
ATOM     29  O   UNL     1       0.756  -8.130   3.291  0.00  0.00    -0.248 OA
ENDBRANCH   7  27
BRANCH   5  30
ATOM     30  C   UNL     1      -0.828  -7.209  -2.359  0.00  0.00    -0.041 C 
ATOM     31  C   UNL     1      -0.327  -7.513  -3.548  0.00  0.00    +0.002 C 
BRANCH  31  32
ATOM     32  C   UNL     1      -1.200  -7.506  -4.741  0.00  0.00    -0.025 A 
ATOM     33  C   UNL     1      -2.549  -7.173  -4.620  0.00  0.00    +0.008 A 
ATOM     34  C   UNL     1      -3.358  -7.168  -5.737  0.00  0.00    +0.001 A 
ATOM     35  C   UNL     1      -2.834  -7.493  -6.976  0.00  0.00    +0.000 A 
ATOM     36  C   UNL     1      -1.497  -7.824  -7.103  0.00  0.00    +0.001 A 
ATOM     37  C   UNL     1      -0.676  -7.826  -5.994  0.00  0.00    +0.008 A 
ENDBRANCH  31  32
ENDBRANCH   5  30
TORSDOF 5
