REMARK  Name = ZINC03511433
REMARK  10 active torsions:
REMARK  status: ('A' for Active; 'I' for Inactive)
REMARK    1  A    between atoms: C_1  and  C_2
REMARK    2  A    between atoms: C_5  and  C_11
REMARK    3  A    between atoms: C_7  and  N_8
REMARK    4  A    between atoms: C_11  and  O_13
REMARK    5  A    between atoms: O_13  and  C_14
REMARK    6  A    between atoms: C_14  and  C_16
REMARK    7  A    between atoms: C_14  and  C_17
REMARK    8  A    between atoms: N_19  and  C_20
REMARK    9  A    between atoms: C_25  and  O_26
REMARK   10  A    between atoms: O_26  and  C_27
REMARK                            x       y       z     vdW  Elec       q    Type
REMARK                         _______ _______ _______ _____ _____    ______ ____
ROOT
ATOM      1  C   UNL     1      -5.070   0.390   0.069  0.00  0.00    +0.259 C 
ATOM      2  C   UNL     1      -5.112   1.149  -1.259  0.00  0.00    +0.062 C 
ENDROOT
BRANCH   1   3
ATOM      3  C   UNL     1      -3.707  -0.227   0.252  0.00  0.00    +0.258 C 
ATOM      4  O   UNL     1      -3.585  -1.433   0.273  0.00  0.00    -0.271 OA
ATOM      5  N   UNL     1      -2.624   0.563   0.392  0.00  0.00    -0.279 N 
ATOM      6  H   UNL     1      -2.730   1.525   0.456  0.00  0.00    +0.155 HD
BRANCH   5   7
ATOM      7  C   UNL     1      -1.345  -0.005   0.447  0.00  0.00    +0.077 A 
ATOM      8  C   UNL     1      -1.111  -1.247  -0.126  0.00  0.00    +0.047 A 
ATOM      9  C   UNL     1       0.152  -1.809  -0.066  0.00  0.00    +0.043 A 
ATOM     10  C   UNL     1       1.184  -1.133   0.560  0.00  0.00    +0.024 A 
ATOM     11  C   UNL     1       0.958   0.107   1.128  0.00  0.00    +0.049 A 
ATOM     12  C   UNL     1      -0.304   0.677   1.072  0.00  0.00    +0.141 A 
ATOM     13 CL   UNL     1       0.442  -3.365  -0.777  0.00  0.00    -0.083 Cl
BRANCH  12  14
ATOM     14  O   UNL     1      -0.527   1.896   1.631  0.00  0.00    -0.493 OA
ATOM     15  C   UNL     1       0.586   2.535   2.260  0.00  0.00    +0.277 C 
ENDBRANCH  12  14
ENDBRANCH   5   7
ENDBRANCH   1   3
BRANCH   1  16
ATOM     16  O   UNL     1      -6.077  -0.657   0.060  0.00  0.00    -0.449 OA
BRANCH  16  17
ATOM     17  C   UNL     1      -7.301  -0.332   0.519  0.00  0.00    +0.340 C 
ATOM     18  O   UNL     1      -7.521   0.795   0.917  0.00  0.00    -0.245 OA
BRANCH  17  23
ATOM     19  C   UNL     1     -11.486  -4.280   0.600  0.00  0.00    +0.046 C 
ATOM     20  C   UNL     1     -10.389  -3.246   0.579  0.00  0.00    -0.020 A 
ATOM     21  C   UNL     1      -9.133  -3.583   0.106  0.00  0.00    +0.006 A 
ATOM     22  C   UNL     1      -8.127  -2.640   0.079  0.00  0.00    +0.015 A 
ATOM     23  C   UNL     1      -8.375  -1.346   0.540  0.00  0.00    +0.061 A 
ATOM     24  C   UNL     1      -9.645  -1.012   1.016  0.00  0.00    +0.048 A 
ATOM     25  C   UNL     1     -10.644  -1.964   1.033  0.00  0.00    +0.130 A 
BRANCH  25  26
ATOM     26  N   UNL     1     -11.990  -1.613   1.537  0.00  0.00    +0.057 N 
ATOM     27  O   UNL     1     -12.238  -0.466   1.864  0.00  0.00    -0.126 OA
ATOM     28  O   UNL     1     -12.850  -2.470   1.625  0.00  0.00    -0.126 OA
ENDBRANCH  25  26
ENDBRANCH  17  23
ENDBRANCH  16  17
ENDBRANCH   1  16
TORSDOF 7
