REMARK  Name = ZINC39693447
REMARK  16 active torsions:
REMARK  status: ('A' for Active; 'I' for Inactive)
REMARK    1  A    between atoms: C_1  and  C_2
REMARK    2  A    between atoms: C_2  and  C_3
REMARK    3  A    between atoms: C_2  and  C_4
REMARK    4  A    between atoms: C_2  and  O_5
REMARK    5  A    between atoms: O_5  and  C_6
REMARK    6  A    between atoms: N_8  and  C_9
REMARK    7  A    between atoms: C_9  and  C_10
REMARK    8  A    between atoms: C_10  and  N_11
REMARK    9  A    between atoms: C_12  and  C_14
REMARK   10  A    between atoms: C_25  and  C_27
REMARK   11  A    between atoms: C_29  and  O_37
REMARK   12  A    between atoms: C_30  and  O_35
REMARK   13  A    between atoms: C_31  and  O_33
REMARK   14  A    between atoms: O_33  and  C_34
REMARK   15  A    between atoms: O_35  and  C_36
REMARK   16  A    between atoms: O_37  and  C_38
REMARK                            x       y       z     vdW  Elec       q    Type
REMARK                         _______ _______ _______ _____ _____    ______ ____
ROOT
ATOM      1  C   UNL     1       8.677   0.103  -5.219  0.00  0.00    +0.100 C 
ATOM      2  C   UNL     1       9.265  -0.584  -3.966  0.00  0.00    +0.121 C 
ATOM      3  N   UNL     1       9.782  -1.882  -4.457  0.00  0.00    -0.296 N 
ATOM      4  C   UNL     1      10.381  -1.565  -5.776  0.00  0.00    +0.115 C 
ATOM      5  C   UNL     1       9.415  -0.542  -6.404  0.00  0.00    -0.004 C 
ATOM      6  C   UNL     1      10.196   0.516  -7.178  0.00  0.00    -0.010 C 
ATOM      7  C   UNL     1      10.874  -0.138  -8.386  0.00  0.00    -0.082 C 
ATOM      8  N   UNL     1       9.857  -0.752  -9.248  0.00  0.00    +0.379 N 
ATOM      9  C   UNL     1       9.173  -1.831  -8.524  0.00  0.00    -0.082 C 
ATOM     10  C   UNL     1       8.424  -1.249  -7.323  0.00  0.00    -0.010 C 
ATOM     11  C   UNL     1       9.721  -3.081  -3.844  0.00  0.00    +0.247 C 
ATOM     12  O   UNL     1       9.083  -3.207  -2.817  0.00  0.00    -0.270 OA
ATOM     13  H   UNL     1       9.183  -0.052  -9.521  0.00  0.00    -0.086 HD
ATOM     14  H   UNL     1      10.299  -1.129 -10.072  0.00  0.00    -0.086 HD
ENDROOT
BRANCH  11  15
ATOM     15  C   UNL     1      10.428  -4.241  -4.421  0.00  0.00    +0.044 A 
ATOM     16  C   UNL     1      11.490  -4.044  -5.307  0.00  0.00    +0.062 A 
ATOM     17  C   UNL     1      12.151  -5.132  -5.845  0.00  0.00    +0.166 A 
ATOM     18  C   UNL     1      11.760  -6.424  -5.504  0.00  0.00    +0.204 A 
ATOM     19  C   UNL     1      10.702  -6.624  -4.622  0.00  0.00    +0.166 A 
ATOM     20  C   UNL     1      10.041  -5.539  -4.076  0.00  0.00    +0.062 A 
BRANCH  19  21
ATOM     21  O   UNL     1      10.321  -7.887  -4.291  0.00  0.00    -0.491 OA
ATOM     22  C   UNL     1       9.228  -8.018  -3.380  0.00  0.00    +0.277 C 
ENDBRANCH  19  21
BRANCH  18  23
ATOM     23  O   UNL     1      12.411  -7.492  -6.035  0.00  0.00    -0.488 OA
ATOM     24  C   UNL     1      13.537  -7.991  -5.309  0.00  0.00    +0.277 C 
ENDBRANCH  18  23
BRANCH  17  25
ATOM     25  O   UNL     1      13.185  -4.941  -6.707  0.00  0.00    -0.491 OA
ATOM     26  C   UNL     1      13.533  -3.589  -7.013  0.00  0.00    +0.277 C 
ENDBRANCH  17  25
ENDBRANCH  11  15
BRANCH   1  28
ATOM     27  N   UNL     1       6.405   0.683  -6.006  0.00  0.00    -0.314 N 
ATOM     28  C   UNL     1       7.197  -0.162  -5.317  0.00  0.00    +0.218 C 
ATOM     29  O   UNL     1       6.717  -1.135  -4.774  0.00  0.00    -0.275 OA
ATOM     30  H   UNL     1       6.789   1.462  -6.440  0.00  0.00    +0.149 HD
BRANCH  27  31
ATOM     31  C   UNL     1       4.966   0.426  -6.101  0.00  0.00    +0.123 C 
BRANCH  31  32
ATOM     32  C   UNL     1       4.305   1.528  -6.933  0.00  0.00    +0.126 C 
BRANCH  32  35
ATOM     33  C   UNL     1       2.075   2.116  -7.718  0.00  0.00    +0.401 C 
ATOM     34  O   UNL     1       2.555   3.091  -8.261  0.00  0.00    -0.226 OA
ATOM     35  N   UNL     1       2.866   1.271  -7.028  0.00  0.00    -0.280 N 
ATOM     36  H   UNL     1       2.483   0.492  -6.594  0.00  0.00    +0.152 HD
BRANCH  33  37
ATOM     37  O   UNL     1       0.752   1.880  -7.805  0.00  0.00    -0.445 OA
BRANCH  37  39
ATOM     38  C   UNL     1       0.479   2.864  -9.995  0.00  0.00    +0.055 C 
ATOM     39  C   UNL     1      -0.027   2.817  -8.552  0.00  0.00    +0.107 C 
ATOM     40  C   UNL     1       0.103   4.205  -7.921  0.00  0.00    +0.055 C 
ATOM     41  C   UNL     1      -1.494   2.385  -8.539  0.00  0.00    +0.055 C 
ENDBRANCH  37  39
ENDBRANCH  33  37
ENDBRANCH  32  35
ENDBRANCH  31  32
ENDBRANCH  27  31
ENDBRANCH   1  28
TORSDOF 10
