REMARK  Name = ZINC04699530
REMARK  6 active torsions:
REMARK  status: ('A' for Active; 'I' for Inactive)
REMARK    1  A    between atoms: C_1  and  C_2
REMARK    2  A    between atoms: C_5  and  C_28
REMARK    3  A    between atoms: C_7  and  C_8
REMARK    4  A    between atoms: C_11  and  C_13
REMARK    5  A    between atoms: C_14  and  C_15
REMARK    6  A    between atoms: C_16  and  N_25
REMARK                            x       y       z     vdW  Elec       q    Type
REMARK                         _______ _______ _______ _____ _____    ______ ____
ROOT
ATOM      1  C   UNL     1       6.624   4.758   0.142  0.00  0.00    +0.136 A 
ATOM      2  C   UNL     1       7.212   3.476   0.268  0.00  0.00    +0.050 A 
ATOM      3  C   UNL     1       6.204   2.565   0.294  0.00  0.00    +0.050 A 
ATOM      4  C   UNL     1       4.955   3.327   0.180  0.00  0.00    +0.129 A 
ATOM      5  O   UNL     1       5.287   4.633   0.087  0.00  0.00    -0.455 OA
ENDROOT
BRANCH   1  12
ATOM      6  C   UNL     1       6.006   6.600  -1.978  0.00  0.00    +0.044 C 
ATOM      7  C   UNL     1       7.059   6.910  -0.946  0.00  0.00    -0.040 A 
ATOM      8  C   UNL     1       7.748   8.101  -1.002  0.00  0.00    +0.005 A 
ATOM      9  C   UNL     1       8.722   8.392  -0.062  0.00  0.00    +0.015 A 
ATOM     10  C   UNL     1       9.014   7.481   0.961  0.00  0.00    +0.064 A 
ATOM     11  C   UNL     1       8.323   6.277   1.035  0.00  0.00    +0.027 A 
ATOM     12  C   UNL     1       7.335   5.983   0.079  0.00  0.00    +0.021 A 
BRANCH  10  13
ATOM     13  C   UNL     1      10.054   7.800   1.960  0.00  0.00    +0.387 C 
ATOM     14  O   UNL     1      10.306   7.009   2.848  0.00  0.00    -0.241 OA
ATOM     15  O   UNL     1      10.723   8.967   1.888  0.00  0.00    -0.241 OA
ENDBRANCH  10  13
ENDBRANCH   1  12
BRANCH   4  16
ATOM     16  C   UNL     1       3.666   2.801   0.163  0.00  0.00    +0.048 C 
ATOM     17  C   UNL     1       2.569   3.650   0.049  0.00  0.00    +0.032 C 
BRANCH  17  18
ATOM     18  C   UNL     1       1.258   3.114   0.032  0.00  0.00    +0.079 A 
ATOM     19  C   UNL     1       0.155   3.953   0.036  0.00  0.00    +0.213 A 
ATOM     20  C   UNL     1      -1.184   3.337   0.018  0.00  0.00    +0.285 A 
ATOM     21  O   UNL     1      -2.184   4.029   0.020  0.00  0.00    -0.265 OA
ATOM     22  N   UNL     1      -1.280   1.992  -0.007  0.00  0.00    -0.273 N 
ATOM     23  H   UNL     1      -2.182   1.561  -0.028  0.00  0.00    +0.173 HD
ATOM     24  C   UNL     1      -0.178   1.224  -0.005  0.00  0.00    +0.327 A 
ATOM     25  O   UNL     1      -0.305   0.015  -0.023  0.00  0.00    -0.247 OA
ATOM     26  N   UNL     1       1.059   1.746   0.012  0.00  0.00    -0.306 N 
ATOM     27  H   UNL     1       1.850   1.135   0.009  0.00  0.00    +0.170 HD
BRANCH  19  28
ATOM     28  N   UNL     1       0.318   5.426   0.057  0.00  0.00    +0.064 N 
ATOM     29  O   UNL     1       1.518   5.958  -0.044  0.00  0.00    -0.126 OA
ATOM     30  O   UNL     1      -0.739   6.203   0.177  0.00  0.00    -0.126 OA
ENDBRANCH  19  28
ENDBRANCH  17  18
ENDBRANCH   4  16
TORSDOF 5
