REMARK  Name = ZINC36015062
REMARK  6 active torsions:
REMARK  status: ('A' for Active; 'I' for Inactive)
REMARK    1  A    between atoms: C_1  and  O_2
REMARK    2  A    between atoms: O_2  and  C_3
REMARK    3  A    between atoms: CA_10  and  C_32
REMARK    4  A    between atoms: C_18  and  S_21
REMARK    5  A    between atoms: S_21  and  C_22
REMARK    6  A    between atoms: C_27  and  N_28
REMARK                            x       y       z     vdW  Elec       q    Type
REMARK                         _______ _______ _______ _____ _____    ______ ____
ROOT
ATOM      1  C   UNL     1       0.626  -0.619   1.042  0.00  0.00    +0.141 A 
ATOM      2  C   UNL     1       1.202   0.137   2.050  0.00  0.00    +0.047 A 
ATOM      3  C   UNL     1       1.834  -0.495   3.105  0.00  0.00    +0.004 A 
ATOM      4  C   UNL     1       1.892  -1.873   3.156  0.00  0.00    +0.006 A 
ATOM      5  C   UNL     1       1.320  -2.642   2.151  0.00  0.00    -0.018 A 
ATOM      6  C   UNL     1       0.683  -2.011   1.098  0.00  0.00    +0.074 A 
ATOM      7  N   UNL     1       0.090  -2.759   0.071  0.00  0.00    -0.328 N 
ATOM      8  CA  UNL     1       0.491  -4.161  -0.088  0.00  0.00    +0.188 C 
ATOM      9  C   UNL     1       0.458  -4.841   1.274  0.00  0.00    +0.030 C 
ATOM     10  C   UNL     1       1.414  -4.140   2.259  0.00  0.00    +0.045 C 
ATOM     11  C   UNL     1       0.822  -4.552   3.634  0.00  0.00    +0.101 C 
ATOM     12  C   UNL     1      -0.704  -4.538   3.408  0.00  0.00    +0.070 C 
ATOM     13  C   UNL     1      -0.938  -4.723   1.909  0.00  0.00    +0.022 C 
ATOM     14 CL   UNL     1       1.381  -6.204   4.092  0.00  0.00    -0.120 Cl
ATOM     15  H   UNL     1      -0.569  -2.359  -0.519  0.00  0.00    +0.147 HD
ENDROOT
BRANCH   8  16
ATOM     16  C   UNL     1      -0.463  -4.857  -1.024  0.00  0.00    +0.376 C 
ATOM     17  O   UNL     1      -1.393  -4.240  -1.516  0.00  0.00    -0.244 OA
ATOM     18  OXT UNL     1      -0.304  -6.036  -1.291  0.00  0.00    -0.244 OA
ENDBRANCH   8  16
BRANCH   1  20
ATOM     19  C   UNL     1      -0.017   1.425   0.010  0.00  0.00    +0.277 C 
ATOM     20  O   UNL     1       0.002  -0.004   0.002  0.00  0.00    -0.493 OA
ENDBRANCH   1  20
BRANCH  12  21
ATOM     21  S   UNL     1      -1.481  -5.895   4.329  0.00  0.00    -0.118 S 
BRANCH  21  22
ATOM     22  C   UNL     1      -1.226  -5.464   6.018  0.00  0.00    +0.038 A 
ATOM     23  C   UNL     1      -0.556  -4.291   6.345  0.00  0.00    +0.017 A 
ATOM     24  C   UNL     1      -0.358  -3.957   7.670  0.00  0.00    +0.001 A 
ATOM     25  C   UNL     1      -0.825  -4.788   8.672  0.00  0.00    +0.002 A 
ATOM     26  C   UNL     1      -1.491  -5.956   8.351  0.00  0.00    +0.034 A 
ATOM     27  C   UNL     1      -1.699  -6.294   7.028  0.00  0.00    +0.140 A 
BRANCH  27  28
ATOM     28  N   UNL     1      -2.418  -7.541   6.685  0.00  0.00    +0.058 N 
ATOM     29  O   UNL     1      -2.829  -8.262   7.564  0.00  0.00    -0.126 OA
ATOM     30  O   UNL     1      -2.594  -7.838   5.527  0.00  0.00    -0.126 OA
ENDBRANCH  27  28
ENDBRANCH  21  22
ENDBRANCH  12  21
TORSDOF 5
