REMARK  Name = ZINC15999138
REMARK  1 active torsions:
REMARK  status: ('A' for Active; 'I' for Inactive)
REMARK    1  A    between atoms: C_6  and  N_7
REMARK                            x       y       z     vdW  Elec       q    Type
REMARK                         _______ _______ _______ _____ _____    ______ ____
ROOT
ATOM      1  N   UNL     1       6.256  -0.871   2.201  0.00  0.00    -0.210 N 
ATOM      2  C   UNL     1       6.420  -2.039   1.568  0.00  0.00    +0.228 C 
ATOM      3  O   UNL     1       7.411  -2.735   1.628  0.00  0.00    -0.275 OA
ATOM      4  C   UNL     1       5.176  -2.355   0.768  0.00  0.00    +0.074 C 
ATOM      5  C   UNL     1       5.500  -2.274  -0.735  0.00  0.00    -0.054 C 
ATOM      6  C   UNL     1       5.347  -3.671  -1.365  0.00  0.00    -0.016 C 
ATOM      7  C   UNL     1       3.888  -3.745  -1.854  0.00  0.00    -0.020 C 
ATOM      8  C   UNL     1       3.260  -2.395  -1.454  0.00  0.00    -0.076 C 
ATOM      9  N   UNL     1       4.400  -1.456  -1.329  0.00  0.00    +0.395 N 
ATOM     10  C   UNL     1       4.102  -0.441  -0.305  0.00  0.00    +0.053 C 
ATOM     11  C   UNL     1       4.250  -1.141   1.051  0.00  0.00    +0.089 C 
ATOM     12  C   UNL     1       5.075  -0.282   1.982  0.00  0.00    +0.229 C 
ATOM     13  O   UNL     1       4.722   0.776   2.457  0.00  0.00    -0.275 OA
ATOM     14  C   UNL     1       2.723   0.129  -0.481  0.00  0.00    -0.026 A 
ATOM     15  C   UNL     1       1.462  -0.425  -0.482  0.00  0.00    +0.024 A 
ATOM     16  C   UNL     1       0.352   0.379  -0.677  0.00  0.00    +0.041 A 
ATOM     17  C   UNL     1       0.514   1.740  -0.870  0.00  0.00    +0.022 A 
ATOM     18  C   UNL     1       1.776   2.299  -0.868  0.00  0.00    +0.025 A 
ATOM     19  C   UNL     1       2.897   1.496  -0.673  0.00  0.00    +0.036 A 
ATOM     20  N   UNL     1       4.255   1.821  -0.629  0.00  0.00    -0.286 N 
ATOM     21  C   UNL     1       5.029   0.739  -0.416  0.00  0.00    +0.212 C 
ATOM     22  O   UNL     1       6.239   0.720  -0.331  0.00  0.00    -0.277 OA
ATOM     23 CL   UNL     1      -1.238  -0.317  -0.679  0.00  0.00    -0.084 Cl
ATOM     24  H   UNL     1       4.576   2.864  -0.763  0.00  0.00    +0.155 HD
ATOM     25  H   UNL     1       4.619  -0.977  -2.295  0.00  0.00    -0.079 HD
ENDROOT
BRANCH   1  31
ATOM     26  C   UNL     1       8.439   0.131   2.478  0.00  0.00    +0.027 A 
ATOM     27  C   UNL     1       9.407   0.689   3.291  0.00  0.00    +0.041 A 
ATOM     28  C   UNL     1       9.190   0.796   4.654  0.00  0.00    +0.142 A 
ATOM     29  C   UNL     1       7.998   0.350   5.204  0.00  0.00    +0.078 A 
ATOM     30  C   UNL     1       7.026  -0.203   4.393  0.00  0.00    +0.046 A 
ATOM     31  C   UNL     1       7.243  -0.311   3.026  0.00  0.00    +0.045 A 
ATOM     32 CL   UNL     1       7.728   0.486   6.914  0.00  0.00    -0.081 Cl
ATOM     33  F   UNL     1      10.140   1.335   5.448  0.00  0.00    -0.204 F 
ENDBRANCH   1  31
TORSDOF 1
