REMARK  Name = ZINC00649194
REMARK  11 active torsions:
REMARK  status: ('A' for Active; 'I' for Inactive)
REMARK    1  A    between atoms: C_1  and  C_2
REMARK    2  A    between atoms: C_2  and  O_3
REMARK    3  A    between atoms: O_3  and  C_4
REMARK    4  A    between atoms: C_4  and  C_6
REMARK    5  A    between atoms: C_7  and  C_30
REMARK    6  A    between atoms: C_9  and  N_29
REMARK    7  A    between atoms: C_10  and  C_27
REMARK    8  A    between atoms: C_11  and  C_13
REMARK    9  A    between atoms: C_16  and  C_18
REMARK   10  A    between atoms: C_18  and  O_19
REMARK   11  A    between atoms: O_19  and  C_20
REMARK                            x       y       z     vdW  Elec       q    Type
REMARK                         _______ _______ _______ _____ _____    ______ ____
ROOT
ATOM      1  C   UNL     1      -0.635   1.768   3.605  0.00  0.00    +0.090 C 
ATOM      2  C   UNL     1      -0.291   1.159   4.747  0.00  0.00    +0.115 C 
ATOM      3  O   UNL     1      -0.957   1.359   5.894  0.00  0.00    -0.445 OA
ATOM      4  C   UNL     1      -1.737   2.446   6.023  0.00  0.00    +0.198 C 
ATOM      5  C   UNL     1      -2.176   3.142   4.946  0.00  0.00    +0.101 C 
ATOM      6  C   UNL     1      -1.796   2.723   3.553  0.00  0.00    +0.140 C 
ATOM      7  C   UNL     1       0.886   0.217   4.743  0.00  0.00    +0.087 C 
ENDROOT
BRANCH   6   8
ATOM      8  C   UNL     1      -2.973   2.047   2.899  0.00  0.00    +0.118 A 
ATOM      9  C   UNL     1      -3.596   2.458   1.780  0.00  0.00    +0.046 A 
ATOM     10  C   UNL     1      -4.636   1.534   1.526  0.00  0.00    +0.048 A 
ATOM     11  C   UNL     1      -4.591   0.618   2.510  0.00  0.00    +0.142 A 
ATOM     12  O   UNL     1      -3.583   0.933   3.339  0.00  0.00    -0.460 OA
BRANCH  11  13
ATOM     13  C   UNL     1      -5.517  -0.562   2.658  0.00  0.00    +0.303 C 
BRANCH  13  14
ATOM     14  O   UNL     1      -4.970  -1.686   1.967  0.00  0.00    -0.484 OA
BRANCH  14  15
ATOM     15  C   UNL     1      -5.686  -2.841   2.001  0.00  0.00    +0.121 A 
ATOM     16  C   UNL     1      -6.889  -2.891   2.691  0.00  0.00    +0.047 A 
ATOM     17  C   UNL     1      -7.619  -4.064   2.720  0.00  0.00    +0.019 A 
ATOM     18  C   UNL     1      -7.145  -5.190   2.071  0.00  0.00    +0.018 A 
ATOM     19  C   UNL     1      -5.943  -5.144   1.387  0.00  0.00    +0.019 A 
ATOM     20  C   UNL     1      -5.213  -3.971   1.351  0.00  0.00    +0.047 A 
ATOM     21 BR   UNL     1      -8.142  -6.797   2.120  0.00  0.00    -0.050 Br
ENDBRANCH  14  15
ENDBRANCH  13  14
ENDBRANCH  11  13
ENDBRANCH   6   8
BRANCH   4  22
ATOM     22  N   UNL     1      -2.100   2.862   7.279  0.00  0.00    -0.328 N 
ATOM     23  H   UNL     1      -1.793   2.373   8.059  0.00  0.00    +0.145 HD
ATOM     24  H   UNL     1      -2.662   3.644   7.388  0.00  0.00    +0.145 HD
ENDBRANCH   4  22
BRANCH   1  25
ATOM     25  C   UNL     1       0.109   1.512   2.427  0.00  0.00    +0.339 C 
ATOM     26  O   UNL     1       0.964   2.298   2.065  0.00  0.00    -0.245 OA
BRANCH  25  27
ATOM     27  O   UNL     1      -0.129   0.396   1.708  0.00  0.00    -0.462 OA
BRANCH  27  29
ATOM     28  C   UNL     1       0.249  -1.107  -0.147  0.00  0.00    +0.048 C 
ATOM     29  C   UNL     1       0.659   0.202   0.531  0.00  0.00    +0.229 C 
ENDBRANCH  27  29
ENDBRANCH  25  27
ENDBRANCH   1  25
BRANCH   5  30
ATOM     30  C   UNL     1      -3.007   4.292   5.137  0.00  0.00    +0.101 C 
ATOM     31  N   UNL     1      -3.667   5.204   5.289  0.00  0.00    -0.191 NA
ENDBRANCH   5  30
TORSDOF 9
