REMARK  Name = ZINC64417659
REMARK  11 active torsions:
REMARK  status: ('A' for Active; 'I' for Inactive)
REMARK    1  A    between atoms: C_1  and  C_2
REMARK    2  A    between atoms: C_5  and  C_8
REMARK    3  A    between atoms: N_10  and  C_11
REMARK    4  A    between atoms: C_13  and  C_27
REMARK    5  A    between atoms: C_15  and  C_26
REMARK    6  A    between atoms: C_17  and  C_25
REMARK    7  A    between atoms: N_19  and  C_20
REMARK    8  A    between atoms: C_20  and  C_21
REMARK    9  A    between atoms: C_21  and  C_22
REMARK   10  A    between atoms: C_22  and  O_23
REMARK   11  A    between atoms: O_23  and  C_24
REMARK                            x       y       z     vdW  Elec       q    Type
REMARK                         _______ _______ _______ _____ _____    ______ ____
ROOT
ATOM      1  C   UNL     1       0.086  -6.584   0.933  0.00  0.00    +0.151 C 
ATOM      2  C   UNL     1       1.145  -7.049   1.964  0.00  0.00    +0.071 C 
ATOM      3  C   UNL     1       0.477  -6.721   3.319  0.00  0.00    +0.013 C 
ATOM      4  C   UNL     1      -1.031  -6.649   3.017  0.00  0.00    +0.059 C 
ATOM      5  N   UNL     1      -1.203  -6.952   1.575  0.00  0.00    -0.281 NA
ATOM      6  C   UNL     1      -1.782  -7.680   3.863  0.00  0.00    +0.024 C 
ATOM      7  C   UNL     1       0.765  -7.827   4.335  0.00  0.00    +0.009 C 
ENDROOT
BRANCH   2   8
ATOM      8  C   UNL     1       2.447  -6.264   1.793  0.00  0.00    +0.180 C 
ATOM      9  N   UNL     1       3.043  -6.554   0.483  0.00  0.00    -0.363 N 
ATOM     10  C   UNL     1       4.215  -7.080   0.695  0.00  0.00    +0.060 A 
ATOM     11  C   UNL     1       5.267  -7.571  -0.206  0.00  0.00    +0.027 A 
ATOM     12  C   UNL     1       6.404  -8.076   0.312  0.00  0.00    +0.002 A 
ATOM     13  C   UNL     1       6.635  -8.159   1.697  0.00  0.00    +0.002 A 
ATOM     14  C   UNL     1       5.736  -7.738   2.610  0.00  0.00    +0.027 A 
ATOM     15  C   UNL     1       4.459  -7.167   2.160  0.00  0.00    +0.060 A 
ATOM     16  N   UNL     1       3.429  -6.691   2.798  0.00  0.00    -0.363 N 
ATOM     17  H   UNL     1       2.637  -6.385  -0.382  0.00  0.00    +0.162 HD
ATOM     18  H   UNL     1       3.328  -6.630   3.761  0.00  0.00    +0.162 HD
ENDBRANCH   2   8
BRANCH   1  21
ATOM     19  C   UNL     1       0.078  -4.626  -0.517  0.00  0.00    +0.245 C 
ATOM     20  O   UNL     1      -0.067  -5.368  -1.469  0.00  0.00    -0.270 OA
ATOM     21  N   UNL     1       0.165  -5.136   0.728  0.00  0.00    -0.295 N 
ATOM     22  H   UNL     1       0.281  -4.544   1.487  0.00  0.00    +0.151 HD
BRANCH  19  27
ATOM     23  C   UNL     1       0.389   1.063  -1.325  0.00  0.00    +0.044 C 
ATOM     24  C   UNL     1       0.308  -0.427  -1.113  0.00  0.00    -0.050 A 
ATOM     25  C   UNL     1       0.143  -1.269  -2.199  0.00  0.00    +0.004 A 
ATOM     26  C   UNL     1       0.068  -2.634  -2.012  0.00  0.00    +0.013 A 
ATOM     27  C   UNL     1       0.158  -3.165  -0.725  0.00  0.00    +0.037 A 
ATOM     28  C   UNL     1       0.324  -2.310   0.366  0.00  0.00    +0.013 A 
ATOM     29  C   UNL     1       0.404  -0.947   0.165  0.00  0.00    +0.004 A 
ENDBRANCH  19  27
ENDBRANCH   1  21
BRANCH   5  30
ATOM     30  C   UNL     1      -2.316  -6.186   1.000  0.00  0.00    +0.089 C 
BRANCH  30  31
ATOM     31  C   UNL     1      -3.641  -6.851   1.375  0.00  0.00    +0.043 C 
BRANCH  31  32
ATOM     32  C   UNL     1      -4.791  -6.133   0.666  0.00  0.00    +0.160 C 
BRANCH  32  33
ATOM     33  O   UNL     1      -6.029  -6.754   1.017  0.00  0.00    -0.383 OA
ATOM     34  C   UNL     1      -7.174  -6.156   0.404  0.00  0.00    +0.193 C 
ENDBRANCH  32  33
ENDBRANCH  31  32
ENDBRANCH  30  31
ENDBRANCH   5  30
TORSDOF 7
