REMARK  Name = ZINC12788078
REMARK  9 active torsions:
REMARK  status: ('A' for Active; 'I' for Inactive)
REMARK    1  A    between atoms: C_1  and  O_2
REMARK    2  A    between atoms: O_2  and  C_3
REMARK    3  A    between atoms: C_3  and  C_4
REMARK    4  A    between atoms: C_4  and  N_5
REMARK    5  A    between atoms: N_5  and  C_6
REMARK    6  A    between atoms: C_7  and  N_22
REMARK    7  A    between atoms: N_8  and  C_15
REMARK    8  A    between atoms: C_15  and  C_16
REMARK    9  A    between atoms: C_23  and  C_25
REMARK                            x       y       z     vdW  Elec       q    Type
REMARK                         _______ _______ _______ _____ _____    ______ ____
ROOT
ATOM      1  C   UNL     1      -1.232   3.155   0.449  0.00  0.00    +0.140 A 
ATOM      2  C   UNL     1      -0.902   2.050  -0.309  0.00  0.00    +0.128 A 
ATOM      3  N   UNL     1       0.297   1.414  -0.082  0.00  0.00    -0.276 N 
ATOM      4  C   UNL     1       1.136   1.864   0.868  0.00  0.00    +0.331 A 
ATOM      5  O   UNL     1       2.191   1.288   1.053  0.00  0.00    -0.246 OA
ATOM      6  N   UNL     1       0.831   2.939   1.616  0.00  0.00    -0.273 N 
ATOM      7  H   UNL     1       1.475   3.255   2.313  0.00  0.00    +0.173 HD
ATOM      8  C   UNL     1      -0.332   3.595   1.437  0.00  0.00    +0.277 A 
ATOM      9  O   UNL     1      -0.601   4.565   2.124  0.00  0.00    -0.266 OA
ENDROOT
BRANCH   1  10
ATOM     10  N   UNL     1      -2.454   3.829   0.240  0.00  0.00    -0.259 N 
ATOM     11  C   UNL     1      -2.456   5.086  -0.250  0.00  0.00    +0.261 C 
ATOM     12  O   UNL     1      -1.407   5.668  -0.430  0.00  0.00    -0.271 OA
BRANCH  11  13
ATOM     13  C   UNL     1      -3.761   5.768  -0.572  0.00  0.00    +0.267 C 
ATOM     14  C   UNL     1      -4.406   5.088  -1.781  0.00  0.00    +0.090 C 
ATOM     15  C   UNL     1      -5.576   5.899  -2.273  0.00  0.00    -0.029 A 
ATOM     16  C   UNL     1      -6.554   5.300  -3.042  0.00  0.00    +0.004 A 
ATOM     17  C   UNL     1      -7.626   6.042  -3.504  0.00  0.00    +0.000 A 
ATOM     18  C   UNL     1      -7.731   7.388  -3.201  0.00  0.00    +0.001 A 
ATOM     19  C   UNL     1      -6.762   8.000  -2.432  0.00  0.00    +0.015 A 
ATOM     20  C   UNL     1      -5.680   7.256  -1.964  0.00  0.00    +0.062 A 
ATOM     21  C   UNL     1      -4.633   7.895  -1.134  0.00  0.00    +0.340 C 
ATOM     22  O   UNL     1      -4.770   9.021  -0.697  0.00  0.00    -0.245 OA
ATOM     23  O   UNL     1      -3.514   7.170  -0.882  0.00  0.00    -0.448 OA
ENDBRANCH  11  13
BRANCH  10  24
ATOM     24  C   UNL     1      -3.721   3.163   0.554  0.00  0.00    +0.142 C 
BRANCH  24  25
ATOM     25  C   UNL     1      -4.027   3.326   2.044  0.00  0.00    +0.178 C 
BRANCH  25  27
ATOM     26  C   UNL     1      -4.537   4.971   3.711  0.00  0.00    +0.194 C 
ATOM     27  O   UNL     1      -4.242   4.708   2.338  0.00  0.00    -0.381 OA
ENDBRANCH  25  27
ENDBRANCH  24  25
ENDBRANCH  10  24
ENDBRANCH   1  10
BRANCH   2  28
ATOM     28  N   UNL     1      -1.759   1.591  -1.280  0.00  0.00    -0.343 N 
ATOM     29  H   UNL     1      -1.491   0.860  -1.858  0.00  0.00    +0.144 HD
ATOM     30  H   UNL     1      -2.633   1.999  -1.388  0.00  0.00    +0.144 HD
ENDBRANCH   2  28
BRANCH   3  31
ATOM     31  C   UNL     1       0.660   0.240  -0.879  0.00  0.00    +0.163 C 
BRANCH  31  32
ATOM     32  C   UNL     1       0.156  -1.006  -0.198  0.00  0.00    -0.028 A 
ATOM     33  C   UNL     1       0.958  -1.669   0.712  0.00  0.00    +0.005 A 
ATOM     34  C   UNL     1       0.494  -2.809   1.341  0.00  0.00    +0.000 A 
ATOM     35  C   UNL     1      -0.769  -3.292   1.052  0.00  0.00    +0.000 A 
ATOM     36  C   UNL     1      -1.569  -2.631   0.138  0.00  0.00    +0.000 A 
ATOM     37  C   UNL     1      -1.107  -1.488  -0.487  0.00  0.00    +0.005 A 
ENDBRANCH  31  32
ENDBRANCH   3  31
TORSDOF 8
