REMARK  Name = ZINC43176810
REMARK  12 active torsions:
REMARK  status: ('A' for Active; 'I' for Inactive)
REMARK    1  A    between atoms: C_1  and  C_2
REMARK    2  A    between atoms: N_8  and  C_9
REMARK    3  A    between atoms: C_9  and  C_10
REMARK    4  A    between atoms: C_12  and  C_15
REMARK    5  A    between atoms: C_18  and  C_21
REMARK    6  A    between atoms: C_21  and  CA_22
REMARK    7  A    between atoms: CA_22  and  C_24
REMARK    8  A    between atoms: CA_22  and  N_27
REMARK    9  A    between atoms: C_28  and  C_30
REMARK   10  A    between atoms: C_31  and  C_38
REMARK   11  A    between atoms: C_33  and  C_37
REMARK   12  A    between atoms: C_35  and  C_36
REMARK                            x       y       z     vdW  Elec       q    Type
REMARK                         _______ _______ _______ _____ _____    ______ ____
ROOT
ATOM      1  C   UNL     1      -2.162  -5.229   6.977  0.00  0.00    -0.011 A 
ATOM      2  C   UNL     1      -3.487  -4.949   6.637  0.00  0.00    +0.009 A 
ATOM      3  C   UNL     1      -4.516  -5.575   7.309  0.00  0.00    +0.004 A 
ATOM      4  C   UNL     1      -4.237  -6.479   8.319  0.00  0.00    -0.045 A 
ATOM      5  C   UNL     1      -2.926  -6.761   8.661  0.00  0.00    +0.004 A 
ATOM      6  C   UNL     1      -1.888  -6.146   7.993  0.00  0.00    +0.009 A 
ENDROOT
BRANCH   1   9
ATOM      7  C   UNL     1       0.067  -3.155   4.728  0.00  0.00    -0.023 A 
ATOM      8  C   UNL     1      -1.112  -3.643   5.246  0.00  0.00    +0.021 A 
ATOM      9  C   UNL     1      -1.055  -4.562   6.260  0.00  0.00    +0.020 A 
ATOM     10  S   UNL     1       0.706  -4.744   6.492  0.00  0.00    -0.096 S 
ATOM     11  C   UNL     1       1.246  -3.600   5.232  0.00  0.00    +0.051 A 
BRANCH   7  12
ATOM     12  C   UNL     1       0.048  -2.142   3.611  0.00  0.00    +0.138 C 
BRANCH  12  20
ATOM     13  C   UNL     1      -0.018   1.503   0.010  0.00  0.00    +0.044 C 
ATOM     14  C   UNL     1       0.002  -0.004   0.002  0.00  0.00    -0.046 A 
ATOM     15  C   UNL     1       0.006  -0.708  -1.196  0.00  0.00    +0.021 A 
ATOM     16  C   UNL     1       0.025  -2.087  -1.169  0.00  0.00    +0.084 A 
ATOM     17  N   UNL     1       0.040  -2.742  -0.023  0.00  0.00    -0.350 N 
ATOM     18  C   UNL     1       0.036  -2.108   1.139  0.00  0.00    +0.097 A 
ATOM     19  C   UNL     1       0.023  -0.717   1.187  0.00  0.00    +0.045 A 
ATOM     20  N   UNL     1       0.052  -2.838   2.322  0.00  0.00    -0.326 N 
ATOM     21  H   UNL     1       0.065  -3.807   2.294  0.00  0.00    +0.148 HD
ATOM     22  H   UNL     1       0.054  -3.712  -0.033  0.00  0.00    +0.166 HD
ENDBRANCH  12  20
ENDBRANCH   7  12
ENDBRANCH   1   9
BRANCH   4  23
ATOM     23  C   UNL     1      -5.366  -7.158   9.050  0.00  0.00    +0.069 C 
BRANCH  23  24
ATOM     24  CA  UNL     1      -5.728  -8.460   8.333  0.00  0.00    +0.191 C 
BRANCH  24  25
ATOM     25  N   UNL     1      -6.257  -8.153   7.001  0.00  0.00    -0.298 N 
ATOM     26  C   UNL     1      -6.175  -9.069   6.016  0.00  0.00    +0.245 C 
ATOM     27  O   UNL     1      -5.661 -10.150   6.232  0.00  0.00    -0.270 OA
ATOM     28  H   UNL     1      -6.667  -7.291   6.829  0.00  0.00    +0.150 HD
BRANCH  26  29
ATOM     29  C   UNL     1      -6.708  -8.760   4.673  0.00  0.00    +0.043 A 
ATOM     30  C   UNL     1      -5.886  -8.173   3.710  0.00  0.00    -0.038 A 
ATOM     31  C   UNL     1      -6.391  -7.887   2.458  0.00  0.00    +0.007 A 
ATOM     32  C   UNL     1      -7.709  -8.180   2.156  0.00  0.00    -0.050 A 
ATOM     33  C   UNL     1      -8.529  -8.762   3.106  0.00  0.00    +0.007 A 
ATOM     34  C   UNL     1      -8.036  -9.059   4.360  0.00  0.00    -0.038 A 
ATOM     35  C   UNL     1      -8.929  -9.698   5.391  0.00  0.00    +0.044 C 
ATOM     36  C   UNL     1      -8.253  -7.865   0.787  0.00  0.00    +0.044 C 
ATOM     37  C   UNL     1      -4.451  -7.851   4.037  0.00  0.00    +0.044 C 
ENDBRANCH  26  29
ENDBRANCH  24  25
BRANCH  24  38
ATOM     38  C   UNL     1      -6.771  -9.200   9.130  0.00  0.00    +0.376 C 
ATOM     39  O   UNL     1      -7.911  -9.289   8.707  0.00  0.00    -0.244 OA
ATOM     40  OXT UNL     1      -6.475  -9.709  10.197  0.00  0.00    -0.244 OA
ENDBRANCH  24  38
ENDBRANCH  23  24
ENDBRANCH   4  23
TORSDOF 8
