REMARK  Name = ZINC03550838
REMARK  7 active torsions:
REMARK  status: ('A' for Active; 'I' for Inactive)
REMARK    1  A    between atoms: C_1  and  C_2
REMARK    2  A    between atoms: C_2  and  C_3
REMARK    3  A    between atoms: C_2  and  N_4
REMARK    4  A    between atoms: C_8  and  C_10
REMARK    5  A    between atoms: C_10  and  N_11
REMARK    6  A    between atoms: C_14  and  C_18
REMARK    7  A    between atoms: C_14  and  C_19
REMARK                            x       y       z     vdW  Elec       q    Type
REMARK                         _______ _______ _______ _____ _____    ______ ____
ROOT
ATOM      1  N   UNL     1      -1.154   1.212   1.379  0.00  0.00    -0.215 N 
ATOM      2  C   UNL     1      -0.670   2.422   1.723  0.00  0.00    +0.251 C 
ATOM      3  O   UNL     1       0.150   3.081   1.121  0.00  0.00    -0.272 OA
ATOM      4  C   UNL     1      -1.366   2.788   3.019  0.00  0.00    +0.136 C 
ATOM      5  N   UNL     1      -2.238   1.631   3.283  0.00  0.00    -0.281 N 
ATOM      6  C   UNL     1      -2.044   0.765   2.272  0.00  0.00    +0.310 C 
ATOM      7  O   UNL     1      -2.615  -0.305   2.180  0.00  0.00    -0.252 OA
ATOM      8  C   UNL     1      -2.198   4.061   2.851  0.00  0.00    +0.047 C 
ATOM      9  H   UNL     1      -2.835   1.515   4.039  0.00  0.00    +0.152 HD
ENDROOT
BRANCH   4  10
ATOM     10  C   UNL     1      -0.359   2.957   4.127  0.00  0.00    -0.008 A 
ATOM     11  C   UNL     1      -0.387   2.132   5.210  0.00  0.00    +0.007 A 
ATOM     12  C   UNL     1       0.539   2.270   6.241  0.00  0.00    +0.001 A 
ATOM     13  C   UNL     1       1.493   3.240   6.202  0.00  0.00    +0.008 A 
ATOM     14  C   UNL     1       1.550   4.114   5.103  0.00  0.00    -0.018 A 
ATOM     15  C   UNL     1       0.611   3.971   4.051  0.00  0.00    -0.012 A 
ATOM     16  C   UNL     1       0.669   4.846   2.953  0.00  0.00    +0.009 A 
ATOM     17  C   UNL     1       1.622   5.816   2.914  0.00  0.00    +0.001 A 
ATOM     18  C   UNL     1       2.546   5.957   3.948  0.00  0.00    +0.001 A 
ATOM     19  C   UNL     1       2.521   5.128   5.028  0.00  0.00    +0.008 A 
ENDBRANCH   4  10
BRANCH   1  20
ATOM     20  C   UNL     1      -0.751   0.475   0.179  0.00  0.00    +0.214 C 
BRANCH  20  25
ATOM     21  N   UNL     1      -2.106   0.056  -4.415  0.00  0.00    -0.297 N 
ATOM     22  C   UNL     1      -2.289   0.614  -3.202  0.00  0.00    +0.306 C 
ATOM     23  O   UNL     1      -3.187   1.415  -3.031  0.00  0.00    -0.252 OA
ATOM     24  N   UNL     1      -1.477   0.285  -2.179  0.00  0.00    -0.239 N 
ATOM     25  C   UNL     1      -1.660   0.844  -0.966  0.00  0.00    +0.238 C 
ATOM     26  O   UNL     1      -2.555   1.643  -0.796  0.00  0.00    -0.274 OA
ATOM     27  H   UNL     1      -1.389  -0.584  -4.551  0.00  0.00    +0.151 HD
ATOM     28  H   UNL     1      -0.760  -0.354  -2.315  0.00  0.00    +0.159 HD
BRANCH  21  30
ATOM     29  C   UNL     1      -2.473   1.688  -6.199  0.00  0.00    +0.027 C 
ATOM     30  C   UNL     1      -2.989   0.414  -5.527  0.00  0.00    +0.068 C 
ATOM     31  C   UNL     1      -3.013  -0.727  -6.547  0.00  0.00    +0.027 C 
ENDBRANCH  21  30
ENDBRANCH  20  25
ENDBRANCH   1  20
TORSDOF 4
