REMARK  Name = ZINC22705045
REMARK  5 active torsions:
REMARK  status: ('A' for Active; 'I' for Inactive)
REMARK    1  A    between atoms: C_3  and  N_16
REMARK    2  A    between atoms: C_6  and  C_7
REMARK    3  A    between atoms: C_7  and  C_8
REMARK    4  A    between atoms: N_16  and  S_17
REMARK    5  A    between atoms: S_17  and  C_20
REMARK                            x       y       z     vdW  Elec       q    Type
REMARK                         _______ _______ _______ _____ _____    ______ ____
ROOT
ATOM      1  C   UNL     1       1.262  -2.245   2.267  0.00  0.00    +0.006 A 
ATOM      2  C   UNL     1       0.461  -1.656   1.308  0.00  0.00    +0.025 A 
ATOM      3  C   UNL     1       0.844  -0.452   0.730  0.00  0.00    +0.048 A 
ATOM      4  C   UNL     1       2.034   0.152   1.114  0.00  0.00    +0.025 A 
ATOM      5  C   UNL     1       2.828  -0.440   2.077  0.00  0.00    +0.006 A 
ATOM      6  C   UNL     1       2.444  -1.638   2.651  0.00  0.00    -0.038 A 
ENDROOT
BRANCH   3   7
ATOM      7  N   UNL     1       0.037   0.146  -0.240  0.00  0.00    -0.216 N 
ATOM      8  H   UNL     1       0.328   0.105  -1.300  0.00  0.00    +0.174 HD
BRANCH   7   9
ATOM      9  S   UNL     1      -1.359   0.918   0.205  0.00  0.00    +0.072 S 
ATOM     10  O   UNL     1      -1.919   1.463  -0.982  0.00  0.00    -0.150 OA
ATOM     11  O   UNL     1      -2.073   0.017   1.040  0.00  0.00    -0.150 OA
BRANCH   9  12
ATOM     12  C   UNL     1      -0.898   2.285   1.218  0.00  0.00    +0.110 A 
ATOM     13  C   UNL     1      -0.903   2.158   2.594  0.00  0.00    +0.030 A 
ATOM     14  C   UNL     1      -0.536   3.227   3.389  0.00  0.00    +0.023 A 
ATOM     15  C   UNL     1      -0.174   4.429   2.808  0.00  0.00    +0.059 A 
ATOM     16  C   UNL     1      -0.175   4.558   1.429  0.00  0.00    +0.061 A 
ATOM     17  C   UNL     1      -0.537   3.485   0.635  0.00  0.00    +0.050 A 
ATOM     18 CL   UNL     1       0.279   6.066   0.698  0.00  0.00    -0.082 Cl
ATOM     19 CL   UNL     1       0.280   5.775   3.806  0.00  0.00    -0.082 Cl
ENDBRANCH   9  12
ENDBRANCH   7   9
ENDBRANCH   3   7
BRANCH   6  20
ATOM     20  C   UNL     1       3.315  -2.284   3.697  0.00  0.00    +0.131 C 
BRANCH  20  21
ATOM     21  C   UNL     1       4.300  -3.209   3.030  0.00  0.00    +0.223 C 
ATOM     22  O   UNL     1       4.295  -3.332   1.824  0.00  0.00    -0.275 OA
ATOM     23  N   UNL     1       5.186  -3.899   3.774  0.00  0.00    -0.263 N 
ATOM     24  C   UNL     1       6.096  -4.753   3.159  0.00  0.00    +0.187 A 
ATOM     25  N   UNL     1       6.257  -5.028   1.875  0.00  0.00    -0.126 NA
ATOM     26  N   UNL     1       7.139  -5.836   1.473  0.00  0.00    -0.148 NA
ATOM     27  C   UNL     1       7.939  -6.440   2.329  0.00  0.00    +0.183 A 
ATOM     28  S   UNL     1       7.337  -5.746   3.864  0.00  0.00    -0.039 S 
ATOM     29  H   UNL     1       5.191  -3.788   4.869  0.00  0.00    +0.157 HD
ENDBRANCH  20  21
ENDBRANCH   6  20
TORSDOF 5
