REMARK  Name = ZINC39436388
REMARK  12 active torsions:
REMARK  status: ('A' for Active; 'I' for Inactive)
REMARK    1  A    between atoms: C_1  and  C_2
REMARK    2  A    between atoms: C_2  and  C_3
REMARK    3  A    between atoms: C_3  and  C_5
REMARK    4  A    between atoms: C_3  and  S_18
REMARK    5  A    between atoms: N_7  and  C_8
REMARK    6  A    between atoms: S_18  and  C_19
REMARK    7  A    between atoms: C_20  and  C_31
REMARK    8  A    between atoms: C_21  and  C_28
REMARK    9  A    between atoms: C_22  and  C_26
REMARK   10  A    between atoms: C_23  and  N_25
REMARK   11  A    between atoms: C_28  and  C_29
REMARK   12  A    between atoms: C_28  and  C_30
REMARK                            x       y       z     vdW  Elec       q    Type
REMARK                         _______ _______ _______ _____ _____    ______ ____
ROOT
ATOM      1  C   UNL     1      -1.435  -0.275   0.212  0.00  0.00    +0.139 C 
ENDROOT
BRANCH   1   2
ATOM      2  C   UNL     1      -1.416  -1.769   0.410  0.00  0.00    +0.231 C 
ATOM      3  O   UNL     1      -1.598  -2.508  -0.533  0.00  0.00    -0.274 OA
ATOM      4  N   UNL     1      -1.196  -2.283   1.637  0.00  0.00    -0.285 N 
ATOM      5  H   UNL     1      -0.981  -1.695   2.378  0.00  0.00    +0.155 HD
BRANCH   4   6
ATOM      6  C   UNL     1      -1.277  -3.664   1.841  0.00  0.00    +0.034 A 
ATOM      7  C   UNL     1      -0.847  -4.540   0.836  0.00  0.00    +0.024 A 
ATOM      8  C   UNL     1      -0.914  -5.886   1.007  0.00  0.00    +0.010 A 
ATOM      9  C   UNL     1      -1.421  -6.416   2.206  0.00  0.00    -0.018 A 
ATOM     10  C   UNL     1      -1.502  -7.804   2.411  0.00  0.00    +0.008 A 
ATOM     11  C   UNL     1      -1.998  -8.285   3.584  0.00  0.00    +0.001 A 
ATOM     12  C   UNL     1      -2.429  -7.421   4.589  0.00  0.00    +0.001 A 
ATOM     13  C   UNL     1      -2.366  -6.071   4.427  0.00  0.00    +0.008 A 
ATOM     14  C   UNL     1      -1.859  -5.537   3.229  0.00  0.00    -0.016 A 
ATOM     15  C   UNL     1      -1.774  -4.150   3.029  0.00  0.00    +0.031 A 
ENDBRANCH   4   6
ENDBRANCH   1   2
BRANCH   1  17
ATOM     16  C   UNL     1      -0.009   1.759  -0.055  0.00  0.00    +0.005 C 
ATOM     17  C   UNL     1      -0.005   0.231   0.007  0.00  0.00    +0.020 C 
ENDBRANCH   1  17
BRANCH   1  18
ATOM     18  S   UNL     1      -2.434   0.129  -1.247  0.00  0.00    -0.092 S 
BRANCH  18  19
ATOM     19  C   UNL     1      -4.081  -0.259  -0.756  0.00  0.00    +0.117 A 
ATOM     20  C   UNL     1      -5.128  -0.169  -1.696  0.00  0.00    +0.088 A 
ATOM     21  C   UNL     1      -6.429  -0.478  -1.296  0.00  0.00    -0.004 A 
ATOM     22  C   UNL     1      -6.640  -0.867   0.029  0.00  0.00    +0.096 A 
ATOM     23  C   UNL     1      -5.541  -0.932   0.908  0.00  0.00    +0.135 A 
ATOM     24  N   UNL     1      -4.321  -0.636   0.490  0.00  0.00    -0.224 NA
BRANCH  23  25
ATOM     25  N   UNL     1      -5.739  -1.315   2.220  0.00  0.00    -0.342 N 
ATOM     26  H   UNL     1      -6.630  -1.536   2.531  0.00  0.00    +0.144 HD
ATOM     27  H   UNL     1      -4.986  -1.362   2.830  0.00  0.00    +0.144 HD
ENDBRANCH  23  25
BRANCH  21  28
ATOM     28  C   UNL     1      -7.577  -0.395  -2.269  0.00  0.00    +0.016 C 
ATOM     29  C   UNL     1      -8.235  -1.769  -2.400  0.00  0.00    +0.012 C 
ATOM     30  C   UNL     1      -8.605   0.617  -1.758  0.00  0.00    +0.012 C 
ENDBRANCH  21  28
BRANCH  22  31
ATOM     31  C   UNL     1      -7.957  -1.194   0.488  0.00  0.00    +0.103 C 
ATOM     32  N   UNL     1      -9.001  -1.453   0.853  0.00  0.00    -0.191 NA
ENDBRANCH  22  31
BRANCH  20  33
ATOM     33  C   UNL     1      -4.859   0.235  -3.044  0.00  0.00    +0.102 C 
ATOM     34  N   UNL     1      -4.647   0.556  -4.113  0.00  0.00    -0.191 NA
ENDBRANCH  20  33
ENDBRANCH  18  19
ENDBRANCH   1  18
TORSDOF 9
