REMARK  Name = ZINC19523852
REMARK  9 active torsions:
REMARK  status: ('A' for Active; 'I' for Inactive)
REMARK    1  A    between atoms: C_1  and  C_2
REMARK    2  A    between atoms: C_2  and  N_3
REMARK    3  A    between atoms: C_4  and  C_32
REMARK    4  A    between atoms: C_5  and  N_9
REMARK    5  A    between atoms: C_6  and  C_8
REMARK    6  A    between atoms: C_10  and  C_12
REMARK    7  A    between atoms: C_12  and  N_13
REMARK    8  A    between atoms: C_16  and  C_19
REMARK    9  A    between atoms: C_19  and  C_21
REMARK                            x       y       z     vdW  Elec       q    Type
REMARK                         _______ _______ _______ _____ _____    ______ ____
ROOT
ATOM      1  N   UNL     1       8.334   2.242  -6.218  0.00  0.00    +0.385 N 
ATOM      2  C   UNL     1       8.751   1.388  -5.098  0.00  0.00    -0.077 C 
ATOM      3  C   UNL     1       7.842   1.644  -3.894  0.00  0.00    -0.007 C 
ATOM      4  C   UNL     1       7.933   3.119  -3.496  0.00  0.00    +0.057 C 
ATOM      5  C   UNL     1       7.542   3.989  -4.694  0.00  0.00    -0.007 C 
ATOM      6  C   UNL     1       8.459   3.664  -5.875  0.00  0.00    -0.077 C 
ATOM      7  H   UNL     1       7.272   2.037  -6.419  0.00  0.00    -0.081 HD
ENDROOT
BRANCH   4   8
ATOM      8  C   UNL     1       6.995   3.391  -2.349  0.00  0.00    +0.166 C 
ATOM      9  O   UNL     1       6.024   2.683  -2.179  0.00  0.00    -0.292 OA
BRANCH   8  10
ATOM     10  C   UNL     1       7.255   4.511  -1.436  0.00  0.00    +0.020 A 
ATOM     11  C   UNL     1       8.375   5.329  -1.631  0.00  0.00    +0.015 A 
ATOM     12  C   UNL     1       8.620   6.380  -0.775  0.00  0.00    +0.048 A 
ATOM     13  C   UNL     1       7.757   6.633   0.282  0.00  0.00    +0.142 A 
ATOM     14  C   UNL     1       6.637   5.821   0.483  0.00  0.00    +0.076 A 
ATOM     15  C   UNL     1       6.384   4.765  -0.369  0.00  0.00    +0.038 A 
ATOM     16  N   UNL     1       5.777   6.093   1.558  0.00  0.00    -0.280 N 
ATOM     17  C   UNL     1       5.860   7.292   2.174  0.00  0.00    +0.255 C 
ATOM     18  O   UNL     1       5.148   7.538   3.124  0.00  0.00    -0.272 OA
ATOM     19  C   UNL     1       6.841   8.322   1.676  0.00  0.00    +0.325 C 
ATOM     20  O   UNL     1       7.989   7.668   1.129  0.00  0.00    -0.481 OA
ATOM     21  H   UNL     1       5.051   5.335   1.886  0.00  0.00    +0.155 HD
ENDBRANCH   8  10
ENDBRANCH   4   8
BRANCH   1  22
ATOM     22  C   UNL     1       9.095   1.925  -7.434  0.00  0.00    +0.019 C 
BRANCH  22  24
ATOM     23  N   UNL     1       9.017   2.494  -9.840  0.00  0.00    -0.284 N 
ATOM     24  C   UNL     1       8.482   2.637  -8.611  0.00  0.00    +0.201 C 
ATOM     25  O   UNL     1       7.506   3.341  -8.453  0.00  0.00    -0.278 OA
ATOM     26  H   UNL     1       9.948   1.923  -9.971  0.00  0.00    +0.155 HD
BRANCH  23  29
ATOM     27  N   UNL     1       7.997   4.281 -12.742  0.00  0.00    -0.267 N 
ATOM     28  C   UNL     1       8.934   3.976 -11.807  0.00  0.00    +0.058 A 
ATOM     29  C   UNL     1       8.384   3.074 -10.955  0.00  0.00    +0.077 A 
ATOM     30  C   UNL     1       7.074   2.817 -11.388  0.00  0.00    +0.081 A 
ATOM     31  N   UNL     1       6.843   3.543 -12.451  0.00  0.00    -0.174 NA
ATOM     32  C   UNL     1       6.099   1.871 -10.736  0.00  0.00    +0.069 C 
ATOM     33  C   UNL     1      10.331   4.537 -11.730  0.00  0.00    +0.067 C 
BRANCH  27  35
ATOM     34  C   UNL     1       8.702   4.464 -15.077  0.00  0.00    +0.029 C 
ATOM     35  C   UNL     1       8.165   5.216 -13.858  0.00  0.00    +0.140 C 
ENDBRANCH  27  35
ENDBRANCH  23  29
ENDBRANCH  22  24
ENDBRANCH   1  22
TORSDOF 6
