REMARK  Name = ZINC59152255
REMARK  7 active torsions:
REMARK  status: ('A' for Active; 'I' for Inactive)
REMARK    1  A    between atoms: C_1  and  C_2
REMARK    2  A    between atoms: N_12  and  N_13
REMARK    3  A    between atoms: C_14  and  C_16
REMARK    4  A    between atoms: C_16  and  C_18
REMARK    5  A    between atoms: C_16  and  S_19
REMARK    6  A    between atoms: S_19  and  C_20
REMARK    7  A    between atoms: C_20  and  C_21
REMARK                            x       y       z     vdW  Elec       q    Type
REMARK                         _______ _______ _______ _____ _____    ______ ____
ROOT
ATOM      1  C   UNL     1      -0.018   1.503   0.010  0.00  0.00    +0.045 C 
ATOM      2  C   UNL     1       0.002  -0.004   0.002  0.00  0.00    -0.029 A 
ATOM      3  C   UNL     1       0.006  -0.686  -1.198  0.00  0.00    +0.006 A 
ATOM      4  C   UNL     1       0.024  -2.070  -1.223  0.00  0.00    +0.021 A 
ATOM      5  C   UNL     1       0.039  -2.783  -0.039  0.00  0.00    +0.052 A 
ATOM      6  C   UNL     1       0.036  -2.104   1.175  0.00  0.00    +0.047 A 
ATOM      7  C   UNL     1       0.023  -0.704   1.203  0.00  0.00    +0.047 A 
ATOM      8  N   UNL     1       0.030  -0.271   2.525  0.00  0.00    -0.279 N 
ATOM      9  C   UNL     1       0.052  -1.306   3.381  0.00  0.00    +0.269 C 
ATOM     10  O   UNL     1       0.062  -1.231   4.596  0.00  0.00    -0.268 OA
ATOM     11  C   UNL     1       0.048  -2.552   2.587  0.00  0.00    +0.154 C 
ATOM     12  N   UNL     1       0.066  -3.784   3.034  0.00  0.00    -0.174 NA
ATOM     13 CL   UNL     1       0.060  -4.519  -0.068  0.00  0.00    -0.083 Cl
ATOM     14  H   UNL     1       0.020   0.661   2.794  0.00  0.00    +0.155 HD
ENDROOT
BRANCH  12  15
ATOM     15  N   UNL     1       0.076  -4.028   4.414  0.00  0.00    -0.205 N 
ATOM     16  C   UNL     1       0.094  -5.295   4.873  0.00  0.00    +0.245 C 
ATOM     17  O   UNL     1       0.102  -6.223   4.093  0.00  0.00    -0.273 OA
ATOM     18  H   UNL     1       0.069  -3.285   5.038  0.00  0.00    +0.177 HD
BRANCH  16  19
ATOM     19  C   UNL     1       0.104  -5.558   6.357  0.00  0.00    +0.131 C 
ATOM     20  C   UNL     1      -1.331  -5.541   6.888  0.00  0.00    +0.029 C 
BRANCH  19  21
ATOM     21  S   UNL     1       0.849  -7.180   6.679  0.00  0.00    -0.144 S 
BRANCH  21  22
ATOM     22  C   UNL     1       0.926  -7.277   8.489  0.00  0.00    +0.105 C 
BRANCH  22  23
ATOM     23  C   UNL     1       1.534  -8.595   8.896  0.00  0.00    -0.038 A 
ATOM     24  C   UNL     1       0.723  -9.697   9.097  0.00  0.00    +0.004 A 
ATOM     25  C   UNL     1       1.281 -10.905   9.470  0.00  0.00    +0.000 A 
ATOM     26  C   UNL     1       2.648 -11.012   9.642  0.00  0.00    +0.000 A 
ATOM     27  C   UNL     1       3.458  -9.910   9.440  0.00  0.00    +0.000 A 
ATOM     28  C   UNL     1       2.901  -8.703   9.063  0.00  0.00    +0.004 A 
ENDBRANCH  22  23
ENDBRANCH  21  22
ENDBRANCH  19  21
ENDBRANCH  16  19
ENDBRANCH  12  15
TORSDOF 5
