REMARK  Name = ZINC24772389
REMARK  10 active torsions:
REMARK  status: ('A' for Active; 'I' for Inactive)
REMARK    1  A    between atoms: C_1  and  C_2
REMARK    2  A    between atoms: C_2  and  C_23
REMARK    3  A    between atoms: N_5  and  N_9
REMARK    4  A    between atoms: C_10  and  C_12
REMARK    5  A    between atoms: C_12  and  N_13
REMARK    6  A    between atoms: N_13  and  C_14
REMARK    7  A    between atoms: N_13  and  C_15
REMARK    8  A    between atoms: C_15  and  C_16
REMARK    9  A    between atoms: C_26  and  O_29
REMARK   10  A    between atoms: O_29  and  C_30
REMARK                            x       y       z     vdW  Elec       q    Type
REMARK                         _______ _______ _______ _____ _____    ______ ____
ROOT
ATOM      1  C   UNL     1      -0.951   2.630  -6.827  0.00  0.00    +0.047 C 
ATOM      2  C   UNL     1      -1.571   2.892  -5.453  0.00  0.00    +0.137 C 
ATOM      3  C   UNL     1      -0.530   2.742  -4.362  0.00  0.00    +0.267 C 
ATOM      4  O   UNL     1       0.484   3.393  -4.222  0.00  0.00    -0.271 OA
ATOM      5  N   UNL     1      -0.966   1.736  -3.578  0.00  0.00    -0.137 N 
ATOM      6  C   UNL     1      -2.123   1.232  -4.021  0.00  0.00    +0.327 C 
ATOM      7  O   UNL     1      -2.711   0.314  -3.483  0.00  0.00    -0.251 OA
ATOM      8  N   UNL     1      -2.566   1.856  -5.128  0.00  0.00    -0.280 N 
ATOM      9  H   UNL     1      -3.457   1.731  -5.761  0.00  0.00    +0.152 HD
ENDROOT
BRANCH   2  10
ATOM     10  C   UNL     1      -2.196   4.262  -5.405  0.00  0.00    -0.015 A 
ATOM     11  C   UNL     1      -1.465   5.339  -4.940  0.00  0.00    +0.010 A 
ATOM     12  C   UNL     1      -2.034   6.597  -4.899  0.00  0.00    +0.046 A 
ATOM     13  C   UNL     1      -3.345   6.777  -5.315  0.00  0.00    +0.120 A 
ATOM     14  C   UNL     1      -4.079   5.694  -5.776  0.00  0.00    +0.046 A 
ATOM     15  C   UNL     1      -3.503   4.439  -5.820  0.00  0.00    +0.010 A 
BRANCH  13  16
ATOM     16  O   UNL     1      -3.910   8.013  -5.271  0.00  0.00    -0.495 OA
ATOM     17  C   UNL     1      -3.095   9.081  -4.785  0.00  0.00    +0.277 C 
ENDBRANCH  13  16
ENDBRANCH   2  10
BRANCH   5  18
ATOM     18  N   UNL     1      -0.288   1.272  -2.443  0.00  0.00    -0.225 N 
ATOM     19  C   UNL     1      -0.742   1.585  -1.213  0.00  0.00    +0.213 C 
ATOM     20  O   UNL     1      -1.736   2.268  -1.088  0.00  0.00    -0.276 OA
ATOM     21  H   UNL     1       0.614   0.653  -2.556  0.00  0.00    +0.173 HD
BRANCH  19  22
ATOM     22  C   UNL     1      -0.013   1.086   0.008  0.00  0.00    +0.020 C 
BRANCH  22  23
ATOM     23  N   UNL     1      -0.700   1.560   1.217  0.00  0.00    +0.386 N 
ATOM     24  C   UNL     1      -2.034   0.955   1.335  0.00  0.00    -0.095 C 
ATOM     25  H   UNL     1      -0.829   2.648   1.127  0.00  0.00    -0.081 HD
BRANCH  23  26
ATOM     26  C   UNL     1       0.104   1.297   2.417  0.00  0.00    -0.043 C 
BRANCH  26  27
ATOM     27  C   UNL     1      -0.508   2.007   3.597  0.00  0.00    -0.064 A 
ATOM     28  C   UNL     1      -0.117   3.297   3.906  0.00  0.00    +0.004 A 
ATOM     29  C   UNL     1      -0.681   3.950   4.985  0.00  0.00    +0.038 A 
ATOM     30  C   UNL     1      -1.630   3.309   5.763  0.00  0.00    +0.123 A 
ATOM     31  C   UNL     1      -2.016   2.015   5.456  0.00  0.00    +0.038 A 
ATOM     32  C   UNL     1      -1.455   1.366   4.374  0.00  0.00    +0.004 A 
ATOM     33  F   UNL     1      -2.179   3.945   6.821  0.00  0.00    -0.205 F 
ENDBRANCH  26  27
ENDBRANCH  23  26
ENDBRANCH  22  23
ENDBRANCH  19  22
ENDBRANCH   5  18
TORSDOF 7
