REMARK  Name = ZINC23151242
REMARK  7 active torsions:
REMARK  status: ('A' for Active; 'I' for Inactive)
REMARK    1  A    between atoms: C_1  and  N_2
REMARK    2  A    between atoms: N_2  and  C_3
REMARK    3  A    between atoms: C_14  and  C_16
REMARK    4  A    between atoms: C_16  and  S_17
REMARK    5  A    between atoms: S_17  and  C_18
REMARK    6  A    between atoms: C_21  and  C_27
REMARK    7  A    between atoms: C_23  and  N_24
REMARK                            x       y       z     vdW  Elec       q    Type
REMARK                         _______ _______ _______ _____ _____    ______ ____
ROOT
ATOM      1  C   UNL     1      -4.006   2.659   0.053  0.00  0.00    +0.170 C 
ENDROOT
BRANCH   1   4
ATOM      2  C   UNL     1      -6.305   1.001   0.066  0.00  0.00    +0.132 C 
ATOM      3  N   UNL     1      -6.472   2.457   0.074  0.00  0.00    -0.297 N 
ATOM      4  C   UNL     1      -5.389   3.259   0.068  0.00  0.00    +0.226 C 
ATOM      5  O   UNL     1      -5.527   4.464   0.075  0.00  0.00    -0.275 OA
BRANCH   3   6
ATOM      6  C   UNL     1      -7.816   3.040   0.090  0.00  0.00    +0.106 C 
ATOM      7  C   UNL     1      -8.553   2.573   1.343  0.00  0.00    +0.027 C 
ATOM      8  C   UNL     1     -10.018   3.013   1.234  0.00  0.00    +0.007 C 
ATOM      9  C   UNL     1     -10.689   2.185   0.140  0.00  0.00    +0.035 C 
ATOM     10  C   UNL     1      -9.877   2.224  -1.128  0.00  0.00    -0.042 A 
ATOM     11  C   UNL     1      -8.556   2.613  -1.151  0.00  0.00    -0.024 A 
ATOM     12  C   UNL     1      -7.862   2.620  -2.353  0.00  0.00    +0.006 A 
ATOM     13  C   UNL     1      -8.485   2.244  -3.525  0.00  0.00    +0.000 A 
ATOM     14  C   UNL     1      -9.812   1.857  -3.503  0.00  0.00    +0.000 A 
ATOM     15  C   UNL     1     -10.504   1.849  -2.309  0.00  0.00    +0.004 A 
ENDBRANCH   3   6
ENDBRANCH   1   4
BRANCH   1  16
ATOM     16  S   UNL     1      -2.771   3.987   0.048  0.00  0.00    -0.114 S 
BRANCH  16  17
ATOM     17  C   UNL     1      -1.229   3.135   0.030  0.00  0.00    +0.039 A 
ATOM     18  C   UNL     1      -1.205   1.742   0.017  0.00  0.00    +0.018 A 
ATOM     19  C   UNL     1      -0.013   1.076   0.008  0.00  0.00    +0.014 A 
ATOM     20  C   UNL     1       1.189   1.791   0.000  0.00  0.00    +0.039 A 
ATOM     21  C   UNL     1       1.168   3.189   0.008  0.00  0.00    +0.047 A 
ATOM     22  C   UNL     1      -0.036   3.855   0.022  0.00  0.00    +0.140 A 
BRANCH  20  23
ATOM     23  C   UNL     1       2.477   1.072  -0.015  0.00  0.00    +0.242 C 
ATOM     24  O   UNL     1       3.521   1.694  -0.021  0.00  0.00    -0.270 OA
ATOM     25  N   UNL     1       2.496  -0.276  -0.021  0.00  0.00    -0.325 N 
ATOM     26  H   UNL     1       3.456  -0.812  -0.033  0.00  0.00    +0.145 HD
ATOM     27  H   UNL     1       1.551  -0.840  -0.015  0.00  0.00    +0.145 HD
ENDBRANCH  20  23
BRANCH  22  28
ATOM     28  N   UNL     1      -0.065   5.335   0.030  0.00  0.00    +0.058 N 
ATOM     29  O   UNL     1       0.978   5.964   0.024  0.00  0.00    -0.126 OA
ATOM     30  O   UNL     1      -1.131   5.923   0.043  0.00  0.00    -0.126 OA
ENDBRANCH  22  28
ENDBRANCH  16  17
ENDBRANCH   1  16
TORSDOF 6
