REMARK  Name = ZINC36250540
REMARK  7 active torsions:
REMARK  status: ('A' for Active; 'I' for Inactive)
REMARK    1  A    between atoms: C_2  and  N_15
REMARK    2  A    between atoms: N_8  and  C_9
REMARK    3  A    between atoms: N_8  and  C_12
REMARK    4  A    between atoms: C_9  and  C_10
REMARK    5  A    between atoms: C_10  and  O_11
REMARK    6  A    between atoms: C_12  and  C_13
REMARK    7  A    between atoms: C_13  and  O_14
REMARK                            x       y       z     vdW  Elec       q    Type
REMARK                         _______ _______ _______ _____ _____    ______ ____
ROOT
ATOM      1  C   UNL     1       1.203   1.412  -1.203  0.00  0.00    +0.043 A 
ATOM      2  C   UNL     1       1.166   2.059   0.031  0.00  0.00    +0.044 A 
ATOM      3  C   UNL     1       1.161   1.301   1.192  0.00  0.00    +0.135 A 
ATOM      4  N   UNL     1       1.191  -0.018   1.138  0.00  0.00    -0.237 NA
ATOM      5  C   UNL     1       1.226  -0.665  -0.015  0.00  0.00    +0.136 A 
ATOM      6  C   UNL     1       1.234   0.029  -1.221  0.00  0.00    +0.059 A 
ATOM      7 BR   UNL     1       1.284  -0.906  -2.864  0.00  0.00    -0.047 Br
ATOM      8  N   UNL     1       1.257  -2.059  -0.022  0.00  0.00    -0.310 N 
ENDROOT
BRANCH   2   9
ATOM      9  N   UNL     1       1.135   3.457   0.098  0.00  0.00    -0.357 N 
ATOM     10  H   UNL     1       1.140   3.982  -0.718  0.00  0.00    +0.142 HD
ATOM     11  H   UNL     1       1.110   3.901   0.960  0.00  0.00    +0.142 HD
ENDBRANCH   2   9
BRANCH   8  12
ATOM     12  C   UNL     1       2.535  -2.763  -0.147  0.00  0.00    +0.134 C 
BRANCH  12  13
ATOM     13  C   UNL     1       3.119  -3.012   1.245  0.00  0.00    +0.174 C 
BRANCH  13  14
ATOM     14  O   UNL     1       2.267  -3.903   1.966  0.00  0.00    -0.393 OA
ATOM     15  H   UNL     1       2.576  -4.106   2.860  0.00  0.00    +0.209 HD
ENDBRANCH  13  14
ENDBRANCH  12  13
ENDBRANCH   8  12
BRANCH   8  16
ATOM     16  C   UNL     1       0.010  -2.819   0.097  0.00  0.00    +0.134 C 
BRANCH  16  17
ATOM     17  C   UNL     1      -0.498  -3.186  -1.299  0.00  0.00    +0.174 C 
BRANCH  17  18
ATOM     18  O   UNL     1       0.430  -4.075  -1.925  0.00  0.00    -0.393 OA
ATOM     19  H   UNL     1       0.171  -4.350  -2.816  0.00  0.00    +0.209 HD
ENDBRANCH  17  18
ENDBRANCH  16  17
ENDBRANCH   8  16
TORSDOF 7
