REMARK  Name = ZINC03162613
REMARK  10 active torsions:
REMARK  status: ('A' for Active; 'I' for Inactive)
REMARK    1  A    between atoms: C_1  and  C_2
REMARK    2  A    between atoms: C_2  and  C_3
REMARK    3  A    between atoms: C_3  and  C_5
REMARK    4  A    between atoms: C_3  and  C_6
REMARK    5  A    between atoms: C_6  and  C_8
REMARK    6  A    between atoms: C_6  and  N_22
REMARK    7  A    between atoms: N_10  and  N_11
REMARK    8  A    between atoms: C_12  and  C_13
REMARK    9  A    between atoms: C_15  and  N_19
REMARK   10  A    between atoms: C_23  and  C_25
REMARK                            x       y       z     vdW  Elec       q    Type
REMARK                         _______ _______ _______ _____ _____    ______ ____
ROOT
ATOM      1  C   UNL     1      -5.261  -0.073   0.521  0.00  0.00    +0.253 C 
ATOM      2  O   UNL     1      -5.147   1.103   0.250  0.00  0.00    -0.272 OA
ATOM      3  N   UNL     1      -4.282  -0.706   1.199  0.00  0.00    -0.205 N 
ATOM      4  H   UNL     1      -4.403  -1.627   1.478  0.00  0.00    +0.177 HD
ENDROOT
BRANCH   3   5
ATOM      5  N   UNL     1      -3.091  -0.034   1.500  0.00  0.00    -0.188 NA
ATOM      6  C   UNL     1      -2.148  -0.644   2.152  0.00  0.00    +0.142 C 
BRANCH   6   7
ATOM      7  C   UNL     1      -0.895   0.064   2.469  0.00  0.00    +0.043 A 
ATOM      8  C   UNL     1       0.122  -0.589   3.170  0.00  0.00    +0.046 A 
ATOM      9  C   UNL     1       1.292   0.079   3.463  0.00  0.00    +0.127 A 
ATOM     10  C   UNL     1       1.465   1.393   3.065  0.00  0.00    +0.036 A 
ATOM     11  C   UNL     1       0.466   2.050   2.370  0.00  0.00    +0.054 A 
ATOM     12  C   UNL     1      -0.716   1.395   2.068  0.00  0.00    +0.188 A 
ATOM     13  O   UNL     1      -1.695   2.037   1.381  0.00  0.00    -0.287 OA
BRANCH   9  14
ATOM     14  N   UNL     1       2.369  -0.614   4.206  0.00  0.00    +0.056 N 
ATOM     15  O   UNL     1       2.220  -1.770   4.557  0.00  0.00    -0.126 OA
ATOM     16  O   UNL     1       3.404  -0.027   4.466  0.00  0.00    -0.126 OA
ENDBRANCH   9  14
ENDBRANCH   6   7
ENDBRANCH   3   5
BRANCH   1  17
ATOM     17  C   UNL     1      -6.496  -0.828   0.101  0.00  0.00    +0.164 C 
BRANCH  17  18
ATOM     18  N   UNL     1      -7.574   0.122  -0.186  0.00  0.00    -0.300 N 
ATOM     19  C   UNL     1      -8.860  -0.268  -0.087  0.00  0.00    +0.245 C 
ATOM     20  O   UNL     1      -9.125  -1.408   0.241  0.00  0.00    -0.270 OA
ATOM     21  H   UNL     1      -7.362   1.032  -0.447  0.00  0.00    +0.150 HD
BRANCH  19  22
ATOM     22  C   UNL     1      -9.948   0.690  -0.377  0.00  0.00    +0.037 A 
ATOM     23  C   UNL     1      -9.646   2.002  -0.748  0.00  0.00    +0.013 A 
ATOM     24  C   UNL     1     -10.666   2.889  -1.022  0.00  0.00    +0.001 A 
ATOM     25  C   UNL     1     -11.985   2.485  -0.919  0.00  0.00    +0.000 A 
ATOM     26  C   UNL     1     -12.291   1.188  -0.546  0.00  0.00    +0.001 A 
ATOM     27  C   UNL     1     -11.281   0.289  -0.275  0.00  0.00    +0.013 A 
ENDBRANCH  19  22
ENDBRANCH  17  18
BRANCH  17  28
ATOM     28  C   UNL     1      -6.190  -1.647  -1.154  0.00  0.00    +0.015 C 
ATOM     29  C   UNL     1      -5.904  -0.703  -2.323  0.00  0.00    +0.010 C 
BRANCH  28  31
ATOM     30  C   UNL     1      -7.575  -3.587  -0.403  0.00  0.00    +0.004 C 
ATOM     31  C   UNL     1      -7.394  -2.528  -1.493  0.00  0.00    +0.002 C 
ENDBRANCH  28  31
ENDBRANCH  17  28
ENDBRANCH   1  17
TORSDOF 8
