REMARK  Name = ZINC08414971
REMARK  7 active torsions:
REMARK  status: ('A' for Active; 'I' for Inactive)
REMARK    1  A    between atoms: C_1  and  C_2
REMARK    2  A    between atoms: C_3  and  C_29
REMARK    3  A    between atoms: C_4  and  C_21
REMARK    4  A    between atoms: C_10  and  C_15
REMARK    5  A    between atoms: C_26  and  O_27
REMARK    6  A    between atoms: O_27  and  C_28
REMARK    7  A    between atoms: N_31  and  C_32
REMARK                            x       y       z     vdW  Elec       q    Type
REMARK                         _______ _______ _______ _____ _____    ______ ____
ROOT
ATOM      1  C   UNL     1      -4.788   0.123   0.196  0.00  0.00    +0.061 C 
ATOM      2  C   UNL     1      -4.724   1.628   0.162  0.00  0.00    +0.014 C 
ATOM      3  C   UNL     1      -3.532   2.244   0.101  0.00  0.00    +0.043 C 
ATOM      4  C   UNL     1      -3.429   3.740   0.069  0.00  0.00    +0.094 C 
ATOM      5  C   UNL     1      -4.748   4.366  -0.311  0.00  0.00    +0.024 C 
ATOM      6  C   UNL     1      -5.895   3.659  -0.229  0.00  0.00    +0.016 C 
ATOM      7  N   UNL     1      -5.880   2.358   0.199  0.00  0.00    -0.321 N 
ATOM      8  C   UNL     1      -7.218   4.276  -0.609  0.00  0.00    +0.059 C 
ATOM      9  C   UNL     1      -7.183   5.780  -0.327  0.00  0.00    +0.032 C 
ATOM     10  C   UNL     1      -6.029   6.397  -1.123  0.00  0.00    +0.088 C 
ATOM     11  C   UNL     1      -4.749   5.702  -0.747  0.00  0.00    +0.162 C 
ATOM     12  O   UNL     1      -3.697   6.306  -0.824  0.00  0.00    -0.292 OA
ATOM     13  H   UNL     1      -6.808   1.901   0.574  0.00  0.00    +0.152 HD
ENDROOT
BRANCH   9  14
ATOM     14  C   UNL     1      -8.486   6.405  -0.755  0.00  0.00    -0.044 A 
ATOM     15  C   UNL     1      -8.897   6.312  -2.071  0.00  0.00    +0.004 A 
ATOM     16  C   UNL     1     -10.094   6.883  -2.463  0.00  0.00    +0.000 A 
ATOM     17  C   UNL     1     -10.874   7.554  -1.541  0.00  0.00    +0.000 A 
ATOM     18  C   UNL     1     -10.460   7.651  -0.226  0.00  0.00    +0.000 A 
ATOM     19  C   UNL     1      -9.266   7.077   0.167  0.00  0.00    +0.004 A 
ENDBRANCH   9  14
BRANCH   4  20
ATOM     20  C   UNL     1      -3.019   4.237   1.431  0.00  0.00    +0.006 A 
ATOM     21  C   UNL     1      -3.814   3.977   2.530  0.00  0.00    +0.008 A 
ATOM     22  C   UNL     1      -3.439   4.433   3.780  0.00  0.00    +0.001 A 
ATOM     23  C   UNL     1      -2.267   5.150   3.934  0.00  0.00    +0.004 A 
ATOM     24  C   UNL     1      -1.467   5.412   2.838  0.00  0.00    +0.046 A 
ATOM     25  C   UNL     1      -1.840   4.952   1.583  0.00  0.00    +0.124 A 
BRANCH  25  26
ATOM     26  O   UNL     1      -1.053   5.204   0.504  0.00  0.00    -0.495 OA
ATOM     27  C   UNL     1       0.147   5.946   0.736  0.00  0.00    +0.277 C 
ENDBRANCH  25  26
ENDBRANCH   4  20
BRANCH   3  28
ATOM     28  C   UNL     1      -2.349   1.465   0.060  0.00  0.00    +0.247 C 
ATOM     29  O   UNL     1      -1.702   1.394  -0.969  0.00  0.00    -0.270 OA
ATOM     30  N   UNL     1      -1.940   0.802   1.161  0.00  0.00    -0.279 N 
ATOM     31  H   UNL     1      -2.558   0.815   2.071  0.00  0.00    +0.155 HD
BRANCH  30  32
ATOM     32  C   UNL     1      -0.730   0.098   1.145  0.00  0.00    +0.069 A 
ATOM     33  C   UNL     1      -0.306  -0.529  -0.018  0.00  0.00    +0.029 A 
ATOM     34  C   UNL     1       0.892  -1.218  -0.034  0.00  0.00    +0.040 A 
ATOM     35  C   UNL     1       1.669  -1.284   1.110  0.00  0.00    +0.126 A 
ATOM     36  C   UNL     1       1.250  -0.660   2.272  0.00  0.00    +0.078 A 
ATOM     37  C   UNL     1       0.052   0.032   2.293  0.00  0.00    +0.147 A 
ATOM     38  F   UNL     1      -0.357   0.642   3.426  0.00  0.00    -0.203 F 
ATOM     39  F   UNL     1       2.840  -1.959   1.092  0.00  0.00    -0.205 F 
ENDBRANCH  30  32
ENDBRANCH   3  28
TORSDOF 5
