REMARK  Name = ZINC13628658
REMARK  10 active torsions:
REMARK  status: ('A' for Active; 'I' for Inactive)
REMARK    1  A    between atoms: C_1  and  C_2
REMARK    2  A    between atoms: C_2  and  C_3
REMARK    3  A    between atoms: C_2  and  C_4
REMARK    4  A    between atoms: C_2  and  C_5
REMARK    5  A    between atoms: C_8  and  C_11
REMARK    6  A    between atoms: N_13  and  C_14
REMARK    7  A    between atoms: C_18  and  N_20
REMARK    8  A    between atoms: N_20  and  C_21
REMARK    9  A    between atoms: C_21  and  N_23
REMARK   10  A    between atoms: C_24  and  C_26
REMARK                            x       y       z     vdW  Elec       q    Type
REMARK                         _______ _______ _______ _____ _____    ______ ____
ROOT
ATOM      1  C   UNL     1       1.156   3.582   0.395  0.00  0.00    +0.035 A 
ATOM      2  C   UNL     1      -0.024   4.298   0.237  0.00  0.00    +0.023 A 
ATOM      3  C   UNL     1       0.016   5.668   0.059  0.00  0.00    +0.004 A 
ATOM      4  C   UNL     1       1.228   6.329   0.037  0.00  0.00    +0.023 A 
ATOM      5  C   UNL     1       2.412   5.619   0.193  0.00  0.00    +0.034 A 
ATOM      6  C   UNL     1       2.375   4.244   0.379  0.00  0.00    +0.046 A 
ENDROOT
BRANCH   1   9
ATOM      7  C   UNL     1       2.099   1.421   0.078  0.00  0.00    +0.248 C 
ATOM      8  O   UNL     1       2.970   1.915  -0.611  0.00  0.00    -0.270 OA
ATOM      9  N   UNL     1       1.115   2.196   0.576  0.00  0.00    -0.281 N 
ATOM     10  H   UNL     1       0.377   1.792   1.060  0.00  0.00    +0.155 HD
BRANCH   7  14
ATOM     11  C   UNL     1       2.167  -2.739   0.931  0.00  0.00    -0.042 A 
ATOM     12  C   UNL     1       3.157  -2.181   0.142  0.00  0.00    +0.005 A 
ATOM     13  C   UNL     1       3.140  -0.831  -0.140  0.00  0.00    +0.013 A 
ATOM     14  C   UNL     1       2.122  -0.026   0.375  0.00  0.00    +0.037 A 
ATOM     15  C   UNL     1       1.129  -0.594   1.175  0.00  0.00    +0.013 A 
ATOM     16  C   UNL     1       1.154  -1.947   1.444  0.00  0.00    +0.005 A 
BRANCH  11  18
ATOM     17  C   UNL     1       3.489  -4.564   1.964  0.00  0.00    +0.015 C 
ATOM     18  C   UNL     1       2.191  -4.215   1.234  0.00  0.00    -0.013 C 
ATOM     19  C   UNL     1       0.996  -4.573   2.120  0.00  0.00    +0.015 C 
ATOM     20  C   UNL     1       2.112  -5.005  -0.073  0.00  0.00    +0.015 C 
ENDBRANCH  11  18
ENDBRANCH   7  14
ENDBRANCH   1   9
BRANCH   5  21
ATOM     21  N   UNL     1       3.639   6.289   0.170  0.00  0.00    -0.297 N 
ATOM     22  H   UNL     1       4.335   6.049   0.802  0.00  0.00    +0.154 HD
BRANCH  21  23
ATOM     23  C   UNL     1       3.855   7.269  -0.729  0.00  0.00    +0.141 C 
ATOM     24  S   UNL     1       2.685   7.598  -1.935  0.00  0.00    -0.018 S 
BRANCH  23  25
ATOM     25  N   UNL     1       4.993   7.990  -0.680  0.00  0.00    -0.264 N 
ATOM     26  C   UNL     1       5.208   8.970  -1.580  0.00  0.00    +0.250 C 
ATOM     27  O   UNL     1       4.378   9.204  -2.436  0.00  0.00    -0.270 OA
ATOM     28  H   UNL     1       5.656   7.804   0.002  0.00  0.00    +0.157 HD
BRANCH  26  29
ATOM     29  C   UNL     1       6.455   9.761  -1.527  0.00  0.00    +0.037 A 
ATOM     30  C   UNL     1       7.409   9.499  -0.541  0.00  0.00    +0.014 A 
ATOM     31  C   UNL     1       8.574  10.236  -0.500  0.00  0.00    +0.021 A 
ATOM     32  C   UNL     1       8.793  11.243  -1.426  0.00  0.00    +0.041 A 
ATOM     33  C   UNL     1       7.847  11.511  -2.402  0.00  0.00    +0.021 A 
ATOM     34  C   UNL     1       6.682  10.777  -2.458  0.00  0.00    +0.014 A 
ATOM     35 CL   UNL     1      10.258  12.171  -1.364  0.00  0.00    -0.084 Cl
ENDBRANCH  26  29
ENDBRANCH  23  25
ENDBRANCH  21  23
ENDBRANCH   5  21
TORSDOF 7
