REMARK  Name = ZINC24760621
REMARK  8 active torsions:
REMARK  status: ('A' for Active; 'I' for Inactive)
REMARK    1  A    between atoms: C_1  and  C_2
REMARK    2  A    between atoms: C_2  and  C_4
REMARK    3  A    between atoms: C_2  and  N_17
REMARK    4  A    between atoms: N_6  and  C_7
REMARK    5  A    between atoms: N_17  and  C_18
REMARK    6  A    between atoms: C_23  and  C_24
REMARK    7  A    between atoms: N_26  and  C_27
REMARK    8  A    between atoms: C_27  and  C_28
REMARK                            x       y       z     vdW  Elec       q    Type
REMARK                         _______ _______ _______ _____ _____    ______ ____
ROOT
ATOM      1  N   UNL     1      -5.065   7.895  -0.218  0.00  0.00    -0.333 N 
ATOM      2  H   UNL     1      -5.849   7.226  -0.604  0.00  0.00    +0.147 HD
ENDROOT
BRANCH   1   3
ATOM      3  C   UNL     1      -5.388   9.184   0.185  0.00  0.00    +0.040 A 
ATOM      4  C   UNL     1      -4.387  10.066   0.572  0.00  0.00    +0.024 A 
ATOM      5  C   UNL     1      -4.710  11.346   0.972  0.00  0.00    +0.002 A 
ATOM      6  C   UNL     1      -6.032  11.763   0.990  0.00  0.00    +0.001 A 
ATOM      7  C   UNL     1      -7.038  10.903   0.610  0.00  0.00    +0.015 A 
ATOM      8  C   UNL     1      -6.727   9.604   0.197  0.00  0.00    +0.057 A 
BRANCH   8   9
ATOM      9  C   UNL     1      -7.799   8.680  -0.217  0.00  0.00    +0.246 C 
ATOM     10  O   UNL     1      -7.518   7.585  -0.664  0.00  0.00    -0.270 OA
ATOM     11  N   UNL     1      -9.089   9.049  -0.099  0.00  0.00    -0.304 N 
ATOM     12  H   UNL     1      -9.344  10.040   0.306  0.00  0.00    +0.149 HD
BRANCH  11  13
ATOM     13  C   UNL     1     -10.154   8.131  -0.510  0.00  0.00    +0.179 C 
BRANCH  13  14
ATOM     14  C   UNL     1     -11.495   8.780  -0.278  0.00  0.00    +0.122 A 
ATOM     15  C   UNL     1     -12.166   9.537  -1.164  0.00  0.00    +0.046 A 
ATOM     16  C   UNL     1     -13.367   9.937  -0.534  0.00  0.00    +0.041 A 
ATOM     17  C   UNL     1     -13.358   9.399   0.700  0.00  0.00    +0.195 A 
ATOM     18  O   UNL     1     -12.224   8.695   0.847  0.00  0.00    -0.466 OA
ENDBRANCH  13  14
ENDBRANCH  11  13
ENDBRANCH   8   9
ENDBRANCH   1   3
BRANCH   1  20
ATOM     19  C   UNL     1      -2.915   7.851  -1.384  0.00  0.00    +0.038 C 
ATOM     20  C   UNL     1      -3.680   7.425  -0.129  0.00  0.00    +0.154 C 
BRANCH  20  21
ATOM     21  C   UNL     1      -3.666   5.922  -0.018  0.00  0.00    +0.237 C 
ATOM     22  O   UNL     1      -4.710   5.304  -0.014  0.00  0.00    -0.273 OA
ATOM     23  N   UNL     1      -2.493   5.264   0.076  0.00  0.00    -0.283 N 
ATOM     24  H   UNL     1      -1.552   5.827   0.165  0.00  0.00    +0.155 HD
BRANCH  23  25
ATOM     25  C   UNL     1      -2.473   3.868   0.061  0.00  0.00    +0.041 A 
ATOM     26  C   UNL     1      -3.494   3.164  -0.539  0.00  0.00    +0.024 A 
ATOM     27  C   UNL     1      -3.483   1.773  -0.560  0.00  0.00    +0.002 A 
ATOM     28  C   UNL     1      -2.466   1.069   0.010  0.00  0.00    +0.008 A 
ATOM     29  C   UNL     1      -1.402   1.749   0.626  0.00  0.00    -0.016 A 
ATOM     30  C   UNL     1      -1.405   3.166   0.659  0.00  0.00    +0.003 A 
ATOM     31  C   UNL     1      -0.345   3.843   1.281  0.00  0.00    +0.010 A 
ATOM     32  C   UNL     1       0.669   3.133   1.848  0.00  0.00    +0.001 A 
ATOM     33  C   UNL     1       0.670   1.740   1.821  0.00  0.00    +0.001 A 
ATOM     34  C   UNL     1      -0.341   1.049   1.227  0.00  0.00    +0.008 A 
ENDBRANCH  23  25
ENDBRANCH  20  21
ENDBRANCH   1  20
TORSDOF 7
