REMARK  Name = ZINC08510656
REMARK  9 active torsions:
REMARK  status: ('A' for Active; 'I' for Inactive)
REMARK    1  A    between atoms: C_1  and  C_2
REMARK    2  A    between atoms: C_6  and  C_28
REMARK    3  A    between atoms: C_7  and  O_8
REMARK    4  A    between atoms: O_8  and  C_9
REMARK    5  A    between atoms: C_9  and  C_10
REMARK    6  A    between atoms: C_10  and  N_11
REMARK    7  A    between atoms: C_14  and  C_18
REMARK    8  A    between atoms: C_14  and  C_19
REMARK    9  A    between atoms: C_22  and  N_25
REMARK                            x       y       z     vdW  Elec       q    Type
REMARK                         _______ _______ _______ _____ _____    ______ ____
ROOT
ATOM      1  N   UNL     1       0.355   2.760  -1.860  0.00  0.00    -0.221 N 
ATOM      2  C   UNL     1      -0.619   2.035  -1.276  0.00  0.00    +0.251 C 
ATOM      3  O   UNL     1      -1.742   1.847  -1.692  0.00  0.00    -0.272 OA
ATOM      4  C   UNL     1      -0.018   1.503   0.010  0.00  0.00    +0.135 C 
ATOM      5  N   UNL     1       1.353   2.040   0.000  0.00  0.00    -0.281 N 
ATOM      6  C   UNL     1       1.476   2.759  -1.130  0.00  0.00    +0.310 C 
ATOM      7  O   UNL     1       2.492   3.344  -1.451  0.00  0.00    -0.252 OA
ATOM      8  C   UNL     1      -0.791   2.022   1.224  0.00  0.00    +0.047 C 
ATOM      9  H   UNL     1       2.035   1.901   0.676  0.00  0.00    +0.152 HD
ENDROOT
BRANCH   4  10
ATOM     10  C   UNL     1       0.002  -0.004   0.002  0.00  0.00    -0.015 A 
ATOM     11  C   UNL     1      -1.018  -0.706  -0.612  0.00  0.00    +0.008 A 
ATOM     12  C   UNL     1      -0.998  -2.088  -0.623  0.00  0.00    +0.033 A 
ATOM     13  C   UNL     1       0.039  -2.768  -0.013  0.00  0.00    +0.126 A 
ATOM     14  C   UNL     1       1.057  -2.067   0.606  0.00  0.00    +0.033 A 
ATOM     15  C   UNL     1       1.038  -0.685   0.613  0.00  0.00    +0.008 A 
BRANCH  13  16
ATOM     16  N   UNL     1       0.059  -4.248  -0.021  0.00  0.00    +0.056 N 
ATOM     17  O   UNL     1       0.973  -4.848   0.517  0.00  0.00    -0.126 OA
ATOM     18  O   UNL     1      -0.838  -4.867  -0.565  0.00  0.00    -0.126 OA
ENDBRANCH  13  16
ENDBRANCH   4  10
BRANCH   1  19
ATOM     19  C   UNL     1       0.206   3.461  -3.138  0.00  0.00    +0.159 C 
BRANCH  19  20
ATOM     20  C   UNL     1       0.609   2.528  -4.282  0.00  0.00    +0.248 C 
BRANCH  20  21
ATOM     21  O   UNL     1      -0.302   1.429  -4.344  0.00  0.00    -0.490 OA
BRANCH  21  28
ATOM     22  C   UNL     1      -1.560   1.832  -6.841  0.00  0.00    +0.047 C 
ATOM     23  C   UNL     1      -0.675   0.646  -6.559  0.00  0.00    -0.009 A 
ATOM     24  C   UNL     1      -0.447  -0.297  -7.544  0.00  0.00    +0.007 A 
ATOM     25  C   UNL     1       0.360  -1.388  -7.284  0.00  0.00    +0.001 A 
ATOM     26  C   UNL     1       0.946  -1.538  -6.040  0.00  0.00    +0.007 A 
ATOM     27  C   UNL     1       0.726  -0.596  -5.054  0.00  0.00    -0.009 A 
ATOM     28  C   UNL     1      -0.084   0.501  -5.313  0.00  0.00    +0.126 A 
ATOM     29  C   UNL     1       1.364  -0.759  -3.699  0.00  0.00    +0.047 C 
ENDBRANCH  21  28
ENDBRANCH  20  21
ENDBRANCH  19  20
ENDBRANCH   1  19
TORSDOF 6
