REMARK  Name = ZINC00873657
REMARK  10 active torsions:
REMARK  status: ('A' for Active; 'I' for Inactive)
REMARK    1  A    between atoms: C_1  and  C_2
REMARK    2  A    between atoms: C_5  and  C_8
REMARK    3  A    between atoms: C_10  and  C_31
REMARK    4  A    between atoms: C_11  and  C_29
REMARK    5  A    between atoms: C_12  and  S_14
REMARK    6  A    between atoms: S_14  and  C_15
REMARK    7  A    between atoms: C_15  and  C_16
REMARK    8  A    between atoms: N_18  and  N_19
REMARK    9  A    between atoms: C_20  and  C_22
REMARK   10  A    between atoms: C_25  and  C_28
REMARK                            x       y       z     vdW  Elec       q    Type
REMARK                         _______ _______ _______ _____ _____    ______ ____
ROOT
ATOM      1  C   UNL     1       8.370  -0.912  -0.083  0.00  0.00    +0.073 A 
ATOM      2  C   UNL     1       9.695  -0.483  -0.093  0.00  0.00    +0.038 A 
ATOM      3  C   UNL     1       9.969   0.883  -0.088  0.00  0.00    +0.004 A 
ATOM      4  C   UNL     1       8.881   1.782  -0.079  0.00  0.00    +0.091 A 
ATOM      5  C   UNL     1       7.574   1.264  -0.064  0.00  0.00    +0.116 A 
ATOM      6  N   UNL     1       7.367  -0.042  -0.069  0.00  0.00    -0.239 NA
ENDROOT
BRANCH   1  11
ATOM      7  C   UNL     1       7.222  -6.554  -0.101  0.00  0.00    +0.044 C 
ATOM      8  C   UNL     1       7.522  -5.078  -0.096  0.00  0.00    -0.050 A 
ATOM      9  C   UNL     1       6.484  -4.163  -0.081  0.00  0.00    +0.004 A 
ATOM     10  C   UNL     1       6.754  -2.810  -0.077  0.00  0.00    +0.010 A 
ATOM     11  C   UNL     1       8.075  -2.365  -0.087  0.00  0.00    +0.000 A 
ATOM     12  C   UNL     1       9.117  -3.291  -0.108  0.00  0.00    +0.010 A 
ATOM     13  C   UNL     1       8.835  -4.642  -0.107  0.00  0.00    +0.004 A 
ENDBRANCH   1  11
BRANCH   3  14
ATOM     14  C   UNL     1      11.366   1.378  -0.099  0.00  0.00    -0.017 A 
ATOM     15  C   UNL     1      11.759   2.343  -1.025  0.00  0.00    +0.008 A 
ATOM     16  C   UNL     1      13.059   2.805  -1.026  0.00  0.00    +0.001 A 
ATOM     17  C   UNL     1      13.975   2.303  -0.119  0.00  0.00    +0.000 A 
ATOM     18  C   UNL     1      13.592   1.342   0.799  0.00  0.00    +0.001 A 
ATOM     19  C   UNL     1      12.293   0.876   0.813  0.00  0.00    +0.008 A 
ENDBRANCH   3  14
BRANCH   4  20
ATOM     20  C   UNL     1       9.105   3.196  -0.079  0.00  0.00    +0.102 C 
ATOM     21  N   UNL     1       9.283   4.319  -0.080  0.00  0.00    -0.191 NA
ENDBRANCH   4  20
BRANCH   5  22
ATOM     22  S   UNL     1       6.199   2.366  -0.044  0.00  0.00    -0.095 S 
BRANCH  22  23
ATOM     23  C   UNL     1       4.839   1.171  -0.038  0.00  0.00    +0.173 C 
BRANCH  23  24
ATOM     24  C   UNL     1       3.524   1.907  -0.021  0.00  0.00    +0.239 C 
ATOM     25  O   UNL     1       3.508   3.119  -0.015  0.00  0.00    -0.273 OA
ATOM     26  N   UNL     1       2.366   1.217  -0.014  0.00  0.00    -0.233 N 
ATOM     27  H   UNL     1       2.379   0.247  -0.019  0.00  0.00    +0.173 HD
BRANCH  26  28
ATOM     28  N   UNL     1       1.143   1.901   0.001  0.00  0.00    -0.230 N 
ATOM     29  C   UNL     1      -0.014   1.211   0.009  0.00  0.00    +0.260 C 
ATOM     30  O   UNL     1       0.002  -0.004   0.002  0.00  0.00    -0.269 OA
ATOM     31  H   UNL     1       1.130   2.871   0.007  0.00  0.00    +0.173 HD
BRANCH  29  32
ATOM     32  C   UNL     1      -1.305   1.933   0.019  0.00  0.00    +0.038 A 
ATOM     33  C   UNL     1      -1.327   3.329   0.032  0.00  0.00    +0.013 A 
ATOM     34  C   UNL     1      -2.534   3.996   0.035  0.00  0.00    +0.004 A 
ATOM     35  C   UNL     1      -3.721   3.285   0.037  0.00  0.00    -0.050 A 
ATOM     36  C   UNL     1      -3.706   1.901   0.030  0.00  0.00    +0.004 A 
ATOM     37  C   UNL     1      -2.506   1.222   0.021  0.00  0.00    +0.013 A 
ATOM     38  C   UNL     1      -5.037   4.021   0.048  0.00  0.00    +0.044 C 
ENDBRANCH  29  32
ENDBRANCH  26  28
ENDBRANCH  23  24
ENDBRANCH  22  23
ENDBRANCH   5  22
TORSDOF 8
