REMARK  Name = ZINC32609442
REMARK  6 active torsions:
REMARK  status: ('A' for Active; 'I' for Inactive)
REMARK    1  A    between atoms: C_7  and  O_12
REMARK    2  A    between atoms: O_12  and  C_13
REMARK    3  A    between atoms: C_13  and  C_14
REMARK    4  A    between atoms: N_16  and  N_17
REMARK    5  A    between atoms: C_18  and  C_19
REMARK    6  A    between atoms: C_23  and  N_25
REMARK                            x       y       z     vdW  Elec       q    Type
REMARK                         _______ _______ _______ _____ _____    ______ ____
ROOT
ATOM      1  C   UNL     1       1.319  -2.276   0.281  0.00  0.00    +0.270 C 
ATOM      2  O   UNL     1       2.375  -2.849   0.451  0.00  0.00    -0.270 OA
ATOM      3  N   UNL     1       1.301  -0.943   0.085  0.00  0.00    -0.204 N 
ATOM      4  H   UNL     1       0.343  -0.423  -0.070  0.00  0.00    +0.177 HD
ENDROOT
BRANCH   3   5
ATOM      5  N   UNL     1       2.500  -0.219   0.077  0.00  0.00    -0.188 NA
ATOM      6  C   UNL     1       2.475   1.078   0.015  0.00  0.00    +0.138 C 
BRANCH   6   7
ATOM      7  C   UNL     1       1.299   1.817   0.510  0.00  0.00    -0.003 A 
ATOM      8  C   UNL     1       0.356   1.174   1.317  0.00  0.00    +0.013 A 
ATOM      9  C   UNL     1      -0.744   1.868   1.772  0.00  0.00    +0.054 A 
ATOM     10  C   UNL     1      -0.910   3.206   1.440  0.00  0.00    +0.209 A 
ATOM     11  C   UNL     1       0.024   3.848   0.638  0.00  0.00    +0.173 A 
ATOM     12  C   UNL     1       1.125   3.161   0.173  0.00  0.00    +0.046 A 
ATOM     13  O   UNL     1      -1.994   3.887   1.896  0.00  0.00    -0.285 OA
BRANCH  11  14
ATOM     14  N   UNL     1      -0.162   5.273   0.283  0.00  0.00    +0.060 N 
ATOM     15  O   UNL     1       0.657   5.838  -0.420  0.00  0.00    -0.126 OA
ATOM     16  O   UNL     1      -1.135   5.881   0.693  0.00  0.00    -0.126 OA
ENDBRANCH  11  14
ENDBRANCH   6   7
ENDBRANCH   3   5
BRANCH   1  17
ATOM     17  C   UNL     1       0.029  -3.055   0.289  0.00  0.00    +0.326 C 
BRANCH  17  18
ATOM     18  O   UNL     1       0.309  -4.438   0.514  0.00  0.00    -0.482 OA
BRANCH  18  25
ATOM     19  C   UNL     1       0.886  -8.530   1.160  0.00  0.00    +0.001 A 
ATOM     20  C   UNL     1      -0.216  -9.382   1.194  0.00  0.00    +0.001 A 
ATOM     21  C   UNL     1      -1.478  -8.902   1.021  0.00  0.00    +0.010 A 
ATOM     22  C   UNL     1      -1.675  -7.528   0.803  0.00  0.00    +0.004 A 
ATOM     23  C   UNL     1      -0.554  -6.662   0.768  0.00  0.00    +0.025 A 
ATOM     24  C   UNL     1       0.733  -7.194   0.952  0.00  0.00    +0.012 A 
ATOM     25  C   UNL     1      -0.752  -5.284   0.551  0.00  0.00    +0.129 A 
ATOM     26  C   UNL     1      -2.021  -4.804   0.383  0.00  0.00    +0.048 A 
ATOM     27  C   UNL     1      -3.119  -5.658   0.412  0.00  0.00    +0.024 A 
ATOM     28  C   UNL     1      -2.964  -6.996   0.620  0.00  0.00    +0.049 A 
ATOM     29 CL   UNL     1      -4.351  -8.039   0.660  0.00  0.00    -0.083 Cl
ENDBRANCH  18  25
ENDBRANCH  17  18
ENDBRANCH   1  17
TORSDOF 6
