REMARK  Name = ZINC29967536
REMARK  5 active torsions:
REMARK  status: ('A' for Active; 'I' for Inactive)
REMARK    1  A    between atoms: C_1  and  C_2
REMARK    2  A    between atoms: C_7  and  C_12
REMARK    3  A    between atoms: N_14  and  C_15
REMARK    4  A    between atoms: C_19  and  S_21
REMARK    5  A    between atoms: S_21  and  N_24
REMARK                            x       y       z     vdW  Elec       q    Type
REMARK                         _______ _______ _______ _____ _____    ______ ____
ROOT
ATOM      1  C   UNL     1       0.206  -6.791   4.347  0.00  0.00    +0.036 A 
ATOM      2  C   UNL     1       0.320  -7.960   3.606  0.00  0.00    +0.023 A 
ATOM      3  C   UNL     1       0.428  -9.177   4.250  0.00  0.00    +0.004 A 
ATOM      4  C   UNL     1       0.424  -9.232   5.632  0.00  0.00    +0.029 A 
ATOM      5  C   UNL     1       0.311  -8.070   6.373  0.00  0.00    +0.114 A 
ATOM      6  C   UNL     1       0.207  -6.849   5.735  0.00  0.00    +0.052 A 
ENDROOT
BRANCH   1   9
ATOM      7  C   UNL     1       0.669  -4.461   4.233  0.00  0.00    +0.265 C 
ATOM      8  O   UNL     1       1.209  -4.526   5.321  0.00  0.00    -0.268 OA
ATOM      9  N   UNL     1       0.096  -5.557   3.698  0.00  0.00    -0.280 N 
ATOM     10  H   UNL     1      -0.393  -5.491   2.863  0.00  0.00    +0.155 HD
BRANCH   7  17
ATOM     11  C   UNL     1      -0.223   1.197  -0.513  0.00  0.00    +0.044 C 
ATOM     12  C   UNL     1       0.183   0.402   0.701  0.00  0.00    -0.048 A 
ATOM     13  C   UNL     1       0.880   1.025   1.729  0.00  0.00    +0.004 A 
ATOM     14  C   UNL     1       1.258   0.324   2.837  0.00  0.00    +0.010 A 
ATOM     15  C   UNL     1       0.941  -1.036   2.942  0.00  0.00    +0.000 A 
ATOM     16  C   UNL     1       1.182  -2.017   3.934  0.00  0.00    +0.040 A 
ATOM     17  C   UNL     1       0.641  -3.186   3.501  0.00  0.00    +0.103 A 
ATOM     18  N   UNL     1       0.061  -2.985   2.264  0.00  0.00    -0.351 N 
ATOM     19  H   UNL     1      -0.394  -3.661   1.737  0.00  0.00    +0.166 HD
ATOM     20  C   UNL     1       0.234  -1.670   1.902  0.00  0.00    +0.047 A 
ATOM     21  C   UNL     1      -0.145  -0.932   0.783  0.00  0.00    +0.029 A 
ENDBRANCH   7  17
ENDBRANCH   1   9
BRANCH   5  22
ATOM     22  S   UNL     1       0.305  -8.146   8.133  0.00  0.00    +0.100 S 
ATOM     23  O   UNL     1      -0.360  -6.976   8.588  0.00  0.00    -0.146 OA
ATOM     24  O   UNL     1      -0.129  -9.453   8.482  0.00  0.00    -0.146 OA
BRANCH  22  25
ATOM     25  N   UNL     1       1.879  -8.021   8.633  0.00  0.00    -0.118 NA
ATOM     26  C   UNL     1       2.161  -8.049   9.896  0.00  0.00    +0.117 C 
ATOM     27  N   UNL     1       1.246  -8.183  10.906  0.00  0.00    -0.331 N 
ATOM     28  C   UNL     1       1.932  -8.656  12.120  0.00  0.00    +0.103 C 
ATOM     29  C   UNL     1       3.359  -8.076  12.008  0.00  0.00    +0.026 C 
ATOM     30  C   UNL     1       3.551  -7.944  10.482  0.00  0.00    +0.074 C 
ATOM     31  H   UNL     1       0.297  -7.996  10.834  0.00  0.00    +0.147 HD
ENDBRANCH  22  25
ENDBRANCH   5  22
TORSDOF 4
