REMARK  Name = ZINC20979098
REMARK  8 active torsions:
REMARK  status: ('A' for Active; 'I' for Inactive)
REMARK    1  A    between atoms: C_1  and  C_2
REMARK    2  A    between atoms: C_2  and  C_3
REMARK    3  A    between atoms: C_2  and  C_4
REMARK    4  A    between atoms: C_4  and  C_5
REMARK    5  A    between atoms: N_10  and  C_13
REMARK    6  A    between atoms: C_18  and  N_19
REMARK    7  A    between atoms: C_20  and  C_22
REMARK    8  A    between atoms: C_24  and  N_29
REMARK                            x       y       z     vdW  Elec       q    Type
REMARK                         _______ _______ _______ _____ _____    ______ ____
ROOT
ATOM      1  C   UNL     1      -6.229  -2.247   0.208  0.00  0.00    +0.051 A 
ATOM      2  C   UNL     1      -7.448  -2.901   0.307  0.00  0.00    +0.026 A 
ATOM      3  C   UNL     1      -8.624  -2.176   0.309  0.00  0.00    +0.022 A 
ATOM      4  C   UNL     1      -8.590  -0.795   0.217  0.00  0.00    +0.043 A 
ATOM      5  C   UNL     1      -7.379  -0.134   0.123  0.00  0.00    +0.045 A 
ATOM      6  C   UNL     1      -6.194  -0.855   0.121  0.00  0.00    +0.056 A 
ATOM      7 CL   UNL     1     -10.072   0.109   0.219  0.00  0.00    -0.083 Cl
ENDROOT
BRANCH   1  13
ATOM      8  C   UNL     1      -2.902  -6.450   0.251  0.00  0.00    +0.216 C 
ATOM      9  O   UNL     1      -2.695  -6.997   1.313  0.00  0.00    -0.276 OA
ATOM     10  N   UNL     1      -3.307  -5.165   0.223  0.00  0.00    -0.298 N 
ATOM     11  C   UNL     1      -3.504  -4.408   1.469  0.00  0.00    +0.126 C 
ATOM     12  C   UNL     1      -4.895  -3.766   1.434  0.00  0.00    +0.124 C 
ATOM     13  N   UNL     1      -5.037  -2.980   0.201  0.00  0.00    -0.325 N 
ATOM     14  C   UNL     1      -4.953  -3.837  -0.990  0.00  0.00    +0.124 C 
ATOM     15  C   UNL     1      -3.565  -4.482  -1.054  0.00  0.00    +0.126 C 
BRANCH   8  16
ATOM     16  C   UNL     1      -2.707  -7.207  -1.038  0.00  0.00    +0.099 C 
BRANCH  16  18
ATOM     17  C   UNL     1      -2.170  -9.438  -2.026  0.00  0.00    +0.008 C 
ATOM     18  C   UNL     1      -2.248  -8.633  -0.727  0.00  0.00    -0.008 C 
ATOM     19  C   UNL     1      -0.868  -8.592  -0.068  0.00  0.00    +0.008 C 
ENDBRANCH  16  18
ENDBRANCH   8  16
ENDBRANCH   1  13
BRANCH   6  20
ATOM     20  N   UNL     1      -4.966  -0.188   0.025  0.00  0.00    -0.280 N 
ATOM     21  C   UNL     1      -4.904   1.030  -0.548  0.00  0.00    +0.250 C 
ATOM     22  O   UNL     1      -5.892   1.506  -1.073  0.00  0.00    -0.270 OA
ATOM     23  H   UNL     1      -4.053  -0.658   0.419  0.00  0.00    +0.155 HD
BRANCH  21  24
ATOM     24  C   UNL     1      -3.635   1.786  -0.540  0.00  0.00    +0.057 A 
ATOM     25  C   UNL     1      -2.498   1.243   0.061  0.00  0.00    +0.047 A 
ATOM     26  C   UNL     1      -1.317   1.954   0.066  0.00  0.00    +0.127 A 
ATOM     27  C   UNL     1      -1.257   3.207  -0.519  0.00  0.00    +0.034 A 
ATOM     28  C   UNL     1      -2.377   3.751  -1.122  0.00  0.00    +0.023 A 
ATOM     29  C   UNL     1      -3.567   3.049  -1.134  0.00  0.00    +0.053 A 
ATOM     30 CL   UNL     1      -4.973   3.735  -1.885  0.00  0.00    -0.083 Cl
BRANCH  26  31
ATOM     31  N   UNL     1      -0.111   1.379   0.704  0.00  0.00    +0.056 N 
ATOM     32  O   UNL     1      -0.164   0.279   1.223  0.00  0.00    -0.126 OA
ATOM     33  O   UNL     1       0.934   2.004   0.704  0.00  0.00    -0.126 OA
ENDBRANCH  26  31
ENDBRANCH  21  24
ENDBRANCH   6  20
TORSDOF 6
