REMARK  Name = ZINC59795143
REMARK  9 active torsions:
REMARK  status: ('A' for Active; 'I' for Inactive)
REMARK    1  A    between atoms: C_1  and  C_2
REMARK    2  A    between atoms: C_5  and  N_9
REMARK    3  A    between atoms: C_6  and  C_8
REMARK    4  A    between atoms: C_10  and  C_12
REMARK    5  A    between atoms: C_12  and  C_13
REMARK    6  A    between atoms: C_13  and  S_14
REMARK    7  A    between atoms: S_14  and  C_15
REMARK    8  A    between atoms: C_18  and  C_21
REMARK    9  A    between atoms: N_19  and  N_20
REMARK                            x       y       z     vdW  Elec       q    Type
REMARK                         _______ _______ _______ _____ _____    ______ ____
ROOT
ATOM      1  S   UNL     1      -0.349  -8.658  -2.628  0.00  0.00    -0.084 S 
ENDROOT
BRANCH   1   2
ATOM      2  C   UNL     1      -0.459  -9.078  -4.336  0.00  0.00    +0.209 A 
ATOM      3  N   UNL     1      -0.451  -8.238  -5.347  0.00  0.00    -0.121 NA
ATOM      4  N   UNL     1      -0.547  -8.882  -6.455  0.00  0.00    -0.127 NA
ATOM      5  C   UNL     1      -0.622 -10.171  -6.220  0.00  0.00    +0.182 A 
ATOM      6  N   UNL     1      -0.563 -10.336  -4.856  0.00  0.00    -0.224 N 
BRANCH   5   7
ATOM      7  C   UNL     1      -0.742 -11.243  -7.231  0.00  0.00    +0.021 A 
ATOM      8  C   UNL     1      -1.129 -12.528  -6.847  0.00  0.00    +0.013 A 
ATOM      9  C   UNL     1      -1.239 -13.524  -7.794  0.00  0.00    +0.021 A 
ATOM     10  C   UNL     1      -0.966 -13.252  -9.124  0.00  0.00    +0.041 A 
ATOM     11  C   UNL     1      -0.581 -11.979  -9.511  0.00  0.00    +0.021 A 
ATOM     12  C   UNL     1      -0.473 -10.973  -8.574  0.00  0.00    +0.013 A 
ATOM     13 CL   UNL     1      -1.107 -14.511 -10.311  0.00  0.00    -0.084 Cl
ENDBRANCH   5   7
BRANCH   6  14
ATOM     14  N   UNL     1      -0.603 -11.514  -4.164  0.00  0.00    -0.295 N 
ATOM     15  H   UNL     1      -1.552 -11.767  -3.936  0.00  0.00    +0.163 HD
ATOM     16  H   UNL     1      -0.146 -12.251  -4.680  0.00  0.00    +0.163 HD
ENDBRANCH   6  14
ENDBRANCH   1   2
BRANCH   1  17
ATOM     17  C   UNL     1      -0.236  -6.847  -2.628  0.00  0.00    +0.086 C 
BRANCH  17  18
ATOM     18  C   UNL     1      -0.134  -6.343  -1.187  0.00  0.00    +0.107 C 
BRANCH  18  20
ATOM     19  N   UNL     1       0.059  -4.170  -0.021  0.00  0.00    -0.285 N 
ATOM     20  C   UNL     1      -0.040  -4.839  -1.187  0.00  0.00    +0.218 C 
ATOM     21  O   UNL     1      -0.054  -4.230  -2.236  0.00  0.00    -0.275 OA
ATOM     22  H   UNL     1       0.135  -4.658   0.814  0.00  0.00    +0.155 HD
BRANCH  19  27
ATOM     23  C   UNL     1       0.025   1.503   0.005  0.00  0.00    +0.044 C 
ATOM     24  C   UNL     1       0.034  -0.004  -0.002  0.00  0.00    -0.050 A 
ATOM     25  C   UNL     1       0.632  -0.685  -1.046  0.00  0.00    +0.005 A 
ATOM     26  C   UNL     1       0.641  -2.066  -1.055  0.00  0.00    +0.024 A 
ATOM     27  C   UNL     1       0.051  -2.771  -0.014  0.00  0.00    +0.036 A 
ATOM     28  C   UNL     1      -0.548  -2.083   1.033  0.00  0.00    -0.029 A 
ATOM     29  C   UNL     1      -0.550  -0.702   1.039  0.00  0.00    +0.008 A 
ATOM     30  C   UNL     1      -1.190  -2.843   2.165  0.00  0.00    +0.045 C 
ENDBRANCH  19  27
ENDBRANCH  18  20
ENDBRANCH  17  18
ENDBRANCH   1  17
TORSDOF 7
