REMARK  Name = ZINC21234182
REMARK  7 active torsions:
REMARK  status: ('A' for Active; 'I' for Inactive)
REMARK    1  A    between atoms: C_1  and  C_2
REMARK    2  A    between atoms: C_2  and  C_3
REMARK    3  A    between atoms: C_3  and  O_4
REMARK    4  A    between atoms: O_4  and  C_5
REMARK    5  A    between atoms: C_8  and  C_11
REMARK    6  A    between atoms: C_16  and  C_26
REMARK    7  A    between atoms: C_29  and  N_32
REMARK                            x       y       z     vdW  Elec       q    Type
REMARK                         _______ _______ _______ _____ _____    ______ ____
ROOT
ATOM      1  C   UNL     1       5.450  -1.521   3.812  0.00  0.00    +0.032 C 
ATOM      2  C   UNL     1       5.761  -0.131   3.260  0.00  0.00    +0.059 C 
ATOM      3  C   UNL     1       5.336  -0.046   1.804  0.00  0.00    +0.017 C 
ATOM      4  C   UNL     1       4.265  -0.728   1.368  0.00  0.00    +0.036 C 
ATOM      5  C   UNL     1       3.710  -0.706  -0.037  0.00  0.00    +0.136 C 
ATOM      6  N   UNL     1       4.577  -0.080  -1.012  0.00  0.00    -0.331 N 
ATOM      7  C   UNL     1       4.888   1.277  -0.934  0.00  0.00    +0.049 A 
ATOM      8  C   UNL     1       4.477   2.172  -1.909  0.00  0.00    +0.025 A 
ATOM      9  C   UNL     1       4.771   3.516  -1.765  0.00  0.00    +0.002 A 
ATOM     10  C   UNL     1       5.465   3.967  -0.657  0.00  0.00    +0.002 A 
ATOM     11  C   UNL     1       5.891   3.073   0.311  0.00  0.00    +0.025 A 
ATOM     12  C   UNL     1       5.617   1.725   0.157  0.00  0.00    +0.052 A 
ATOM     13  N   UNL     1       6.107   0.764   1.035  0.00  0.00    -0.316 N 
ATOM     14  C   UNL     1       3.544  -1.565   2.253  0.00  0.00    +0.163 C 
ATOM     15  O   UNL     1       2.571  -2.161   1.834  0.00  0.00    -0.292 OA
ATOM     16  C   UNL     1       3.938  -1.745   3.688  0.00  0.00    +0.088 C 
ATOM     17  H   UNL     1       5.002  -0.675  -1.834  0.00  0.00    +0.147 HD
ATOM     18  H   UNL     1       7.203   0.685   1.080  0.00  0.00    +0.152 HD
ENDROOT
BRANCH   1  22
ATOM     19  C   UNL     1       6.618  -1.746   7.917  0.00  0.00    +0.121 A 
ATOM     20  C   UNL     1       7.184  -2.604   6.985  0.00  0.00    +0.046 A 
ATOM     21  C   UNL     1       6.805  -2.530   5.659  0.00  0.00    +0.007 A 
ATOM     22  C   UNL     1       5.862  -1.601   5.260  0.00  0.00    -0.043 A 
ATOM     23  C   UNL     1       5.301  -0.740   6.185  0.00  0.00    +0.007 A 
ATOM     24  C   UNL     1       5.672  -0.815   7.513  0.00  0.00    +0.046 A 
BRANCH  19  25
ATOM     25  O   UNL     1       6.989  -1.817   9.222  0.00  0.00    -0.492 OA
BRANCH  25  26
ATOM     26  C   UNL     1       6.365  -0.903  10.125  0.00  0.00    +0.229 C 
BRANCH  26  28
ATOM     27  C   UNL     1       6.237  -0.152  12.505  0.00  0.00    +0.007 C 
ATOM     28  C   UNL     1       6.906  -1.132  11.538  0.00  0.00    +0.038 C 
ENDBRANCH  26  28
ENDBRANCH  25  26
ENDBRANCH  19  25
ENDBRANCH   1  22
BRANCH   5  29
ATOM     29  C   UNL     1       2.396   0.031  -0.021  0.00  0.00    -0.023 A 
ATOM     30  C   UNL     1       1.223  -0.643  -0.308  0.00  0.00    +0.007 A 
ATOM     31  C   UNL     1       0.017   0.029  -0.293  0.00  0.00    +0.023 A 
ATOM     32  C   UNL     1      -0.017   1.385   0.010  0.00  0.00    +0.030 A 
ATOM     33  C   UNL     1       1.163   2.059   0.297  0.00  0.00    +0.023 A 
ATOM     34  C   UNL     1       2.366   1.380   0.281  0.00  0.00    +0.007 A 
BRANCH  32  35
ATOM     35  N   UNL     1      -1.234   2.069   0.019  0.00  0.00    -0.326 N 
ATOM     36  C   UNL     1      -1.923   1.937  -1.273  0.00  0.00    +0.133 C 
ATOM     37  C   UNL     1      -3.276   2.650  -1.199  0.00  0.00    +0.178 C 
ATOM     38  O   UNL     1      -3.070   4.017  -0.833  0.00  0.00    -0.377 OA
ATOM     39  C   UNL     1      -2.401   4.183   0.421  0.00  0.00    +0.178 C 
ATOM     40  C   UNL     1      -1.040   3.485   0.363  0.00  0.00    +0.133 C 
ENDBRANCH  32  35
ENDBRANCH   5  29
TORSDOF 6
