REMARK  Name = ZINC05879367
REMARK  7 active torsions:
REMARK  status: ('A' for Active; 'I' for Inactive)
REMARK    1  A    between atoms: C_1  and  N_49
REMARK    2  A    between atoms: C_8  and  O_25
REMARK    3  A    between atoms: C_10  and  C_12
REMARK    4  A    between atoms: C_13  and  O_24
REMARK    5  A    between atoms: N_18  and  C_21
REMARK    6  A    between atoms: C_21  and  C_22
REMARK    7  A    between atoms: O_25  and  C_26
REMARK                            x       y       z     vdW  Elec       q    Type
REMARK                         _______ _______ _______ _____ _____    ______ ____
ROOT
ATOM      1  C   UNL     1      -0.013   1.086   0.008  0.00  0.00    -0.095 C 
ATOM      2  C   UNL     1      -0.071   1.014   2.430  0.00  0.00    -0.073 C 
ATOM      3  C   UNL     1      -0.572   1.809   3.636  0.00  0.00    +0.017 C 
ATOM      4  C   UNL     1      -2.078   1.885   3.612  0.00  0.00    -0.040 A 
ATOM      5  C   UNL     1      -2.738   2.240   4.779  0.00  0.00    +0.053 A 
ATOM      6  C   UNL     1      -4.120   2.327   4.806  0.00  0.00    +0.170 A 
ATOM      7  C   UNL     1      -4.850   2.056   3.653  0.00  0.00    +0.208 A 
ATOM      8  C   UNL     1      -4.186   1.700   2.488  0.00  0.00    +0.167 A 
ATOM      9  C   UNL     1      -2.797   1.612   2.469  0.00  0.00    -0.008 A 
ATOM     10  C   UNL     1      -2.124   1.210   1.182  0.00  0.00    +0.007 C 
ATOM     11  O   UNL     1      -6.178   2.210   3.931  0.00  0.00    -0.449 OA
ATOM     12  C   UNL     1      -6.276   2.178   5.368  0.00  0.00    +0.467 C 
ATOM     13  O   UNL     1      -4.989   2.650   5.808  0.00  0.00    -0.452 OA
ATOM     14  N   UNL     1      -0.700   1.583   1.221  0.00  0.00    +0.386 N 
ATOM     15  H   UNL     1      -0.622   2.607   1.253  0.00  0.00    -0.081 HD
ENDROOT
BRANCH  10  16
ATOM     16  C   UNL     1      -2.784   1.925   0.031  0.00  0.00    +0.067 A 
ATOM     17  C   UNL     1      -3.475   1.225  -0.913  0.00  0.00    +0.199 A 
ATOM     18  N   UNL     1      -4.072   1.897  -1.949  0.00  0.00    -0.306 N 
ATOM     19  H   UNL     1      -4.586   1.388  -2.639  0.00  0.00    +0.171 HD
ATOM     20  C   UNL     1      -3.970   3.235  -2.043  0.00  0.00    +0.163 A 
ATOM     21  S   UNL     1      -4.719   4.048  -3.350  0.00  0.00    -0.013 S 
ATOM     22  N   UNL     1      -3.287   3.944  -1.125  0.00  0.00    -0.284 N 
ATOM     23  C   UNL     1      -2.690   3.324  -0.088  0.00  0.00    +0.260 A 
ATOM     24  O   UNL     1      -2.073   3.970   0.741  0.00  0.00    -0.267 OA
BRANCH  17  25
ATOM     25  O   UNL     1      -3.575  -0.118  -0.825  0.00  0.00    -0.493 OA
ATOM     26  H   UNL     1      -4.085  -0.522  -1.541  0.00  0.00    +0.294 HD
ENDBRANCH  17  25
BRANCH  22  27
ATOM     27  C   UNL     1      -3.193   5.400  -1.253  0.00  0.00    +0.154 C 
BRANCH  27  28
ATOM     28  C   UNL     1      -1.975   5.754  -2.067  0.00  0.00    -0.013 C 
ATOM     29  C   UNL     1      -2.095   6.504  -3.134  0.00  0.00    +0.005 C 
ENDBRANCH  27  28
ENDBRANCH  22  27
ENDBRANCH  10  16
BRANCH   8  30
ATOM     30  O   UNL     1      -4.897   1.435   1.359  0.00  0.00    -0.491 OA
ATOM     31  C   UNL     1      -5.308   0.082   1.154  0.00  0.00    +0.277 C 
ENDBRANCH   8  30
TORSDOF 5
