REMARK  Name = ZINC06523231
REMARK  4 active torsions:
REMARK  status: ('A' for Active; 'I' for Inactive)
REMARK    1  A    between atoms: C_1  and  C_2
REMARK    2  A    between atoms: C_8  and  C_11
REMARK    3  A    between atoms: N_13  and  C_14
REMARK    4  A    between atoms: C_14  and  C_15
REMARK                            x       y       z     vdW  Elec       q    Type
REMARK                         _______ _______ _______ _____ _____    ______ ____
ROOT
ATOM      1  C   UNL     1       0.290   0.333   5.695  0.00  0.00    +0.266 C 
ATOM      2  O   UNL     1       0.874  -0.464   4.988  0.00  0.00    -0.268 OA
ATOM      3  N   UNL     1       0.300   0.180   7.034  0.00  0.00    -0.309 N 
ATOM      4  H   UNL     1      -0.166   0.816   7.598  0.00  0.00    +0.149 HD
ENDROOT
BRANCH   1  11
ATOM      5  C   UNL     1      -0.013   1.086   0.008  0.00  0.00    +0.008 C 
ATOM      6  C   UNL     1      -0.729   1.579   1.267  0.00  0.00    -0.009 C 
ATOM      7  C   UNL     1      -0.750   3.110   1.275  0.00  0.00    +0.011 C 
ATOM      8  C   UNL     1      -1.672   3.610   2.395  0.00  0.00    +0.078 C 
ATOM      9  C   UNL     1      -1.293   2.903   3.670  0.00  0.00    +0.141 A 
ATOM     10  C   UNL     1      -0.542   1.778   3.712  0.00  0.00    +0.027 A 
ATOM     11  C   UNL     1      -0.434   1.474   5.084  0.00  0.00    +0.171 A 
ATOM     12  N   UNL     1      -1.108   2.414   5.710  0.00  0.00    -0.073 NA
ATOM     13  O   UNL     1      -1.589   3.211   4.931  0.00  0.00    -0.359 OA
ATOM     14  C   UNL     1       0.014   1.071   2.511  0.00  0.00    +0.044 C 
ENDBRANCH   1  11
BRANCH   3  15
ATOM     15  C   UNL     1       1.015  -0.948   7.637  0.00  0.00    +0.111 C 
BRANCH  15  16
ATOM     16  C   UNL     1       0.869  -0.888   9.159  0.00  0.00    -0.013 C 
ATOM     17  C   UNL     1       1.459   0.425   9.677  0.00  0.00    +0.012 C 
ATOM     18  C   UNL     1       1.314   0.485  11.199  0.00  0.00    -0.010 C 
ATOM     19  C   UNL     1       2.060  -0.693  11.829  0.00  0.00    +0.007 C 
ATOM     20  C   UNL     1       1.471  -2.006  11.311  0.00  0.00    -0.010 C 
ATOM     21  C   UNL     1       1.616  -2.066   9.789  0.00  0.00    +0.012 C 
ATOM     22  C   UNL     1      -0.011  -2.083  11.685  0.00  0.00    +0.007 C 
ATOM     23  C   UNL     1      -0.758  -0.905  11.055  0.00  0.00    -0.010 C 
ATOM     24  C   UNL     1      -0.168   0.408  11.573  0.00  0.00    +0.007 C 
ATOM     25  C   UNL     1      -0.612  -0.965   9.533  0.00  0.00    +0.012 C 
ENDBRANCH  15  16
ENDBRANCH   3  15
TORSDOF 3
