REMARK  Name = ZINC12893758
REMARK  8 active torsions:
REMARK  status: ('A' for Active; 'I' for Inactive)
REMARK    1  A    between atoms: C_1  and  C_2
REMARK    2  A    between atoms: C_2  and  C_3
REMARK    3  A    between atoms: C_3  and  N_4
REMARK    4  A    between atoms: N_4  and  C_5
REMARK    5  A    between atoms: C_6  and  N_21
REMARK    6  A    between atoms: N_7  and  C_14
REMARK    7  A    between atoms: C_14  and  C_15
REMARK    8  A    between atoms: C_22  and  C_24
REMARK                            x       y       z     vdW  Elec       q    Type
REMARK                         _______ _______ _______ _____ _____    ______ ____
ROOT
ATOM      1  C   UNL     1      -1.198   3.117   0.442  0.00  0.00    +0.140 A 
ATOM      2  C   UNL     1      -0.785   2.103  -0.398  0.00  0.00    +0.128 A 
ATOM      3  N   UNL     1       0.426   1.493  -0.169  0.00  0.00    -0.276 N 
ATOM      4  C   UNL     1       1.198   1.879   0.863  0.00  0.00    +0.331 A 
ATOM      5  O   UNL     1       2.265   1.327   1.049  0.00  0.00    -0.246 OA
ATOM      6  N   UNL     1       0.812   2.865   1.692  0.00  0.00    -0.273 N 
ATOM      7  H   UNL     1       1.407   3.136   2.449  0.00  0.00    +0.173 HD
ATOM      8  C   UNL     1      -0.367   3.493   1.514  0.00  0.00    +0.277 A 
ATOM      9  O   UNL     1      -0.710   4.383   2.274  0.00  0.00    -0.266 OA
ENDROOT
BRANCH   1  10
ATOM     10  N   UNL     1      -2.435   3.764   0.232  0.00  0.00    -0.261 N 
ATOM     11  C   UNL     1      -2.465   5.017  -0.266  0.00  0.00    +0.261 C 
ATOM     12  O   UNL     1      -1.429   5.620  -0.454  0.00  0.00    -0.271 OA
BRANCH  11  13
ATOM     13  C   UNL     1      -3.785   5.667  -0.590  0.00  0.00    +0.267 C 
ATOM     14  C   UNL     1      -4.418   4.967  -1.793  0.00  0.00    +0.090 C 
ATOM     15  C   UNL     1      -5.606   5.749  -2.288  0.00  0.00    -0.029 A 
ATOM     16  C   UNL     1      -6.572   5.124  -3.052  0.00  0.00    +0.004 A 
ATOM     17  C   UNL     1      -7.662   5.839  -3.515  0.00  0.00    +0.000 A 
ATOM     18  C   UNL     1      -7.795   7.184  -3.220  0.00  0.00    +0.001 A 
ATOM     19  C   UNL     1      -6.839   7.822  -2.456  0.00  0.00    +0.015 A 
ATOM     20  C   UNL     1      -5.740   7.105  -1.986  0.00  0.00    +0.062 A 
ATOM     21  C   UNL     1      -4.706   7.772  -1.162  0.00  0.00    +0.340 C 
ATOM     22  O   UNL     1      -4.867   8.896  -0.731  0.00  0.00    -0.245 OA
ATOM     23  O   UNL     1      -3.570   7.073  -0.909  0.00  0.00    -0.448 OA
ENDBRANCH  11  13
BRANCH  10  24
ATOM     24  C   UNL     1      -3.686   3.074   0.556  0.00  0.00    +0.114 C 
BRANCH  24  26
ATOM     25  C   UNL     1      -5.299   2.524   2.383  0.00  0.00    +0.005 C 
ATOM     26  C   UNL     1      -3.992   3.245   2.045  0.00  0.00    +0.016 C 
ENDBRANCH  24  26
ENDBRANCH  10  24
ENDBRANCH   1  10
BRANCH   2  27
ATOM     27  N   UNL     1      -1.574   1.709  -1.452  0.00  0.00    -0.343 N 
ATOM     28  H   UNL     1      -1.246   1.048  -2.082  0.00  0.00    +0.144 HD
ATOM     29  H   UNL     1      -2.458   2.091  -1.566  0.00  0.00    +0.144 HD
ENDBRANCH   2  27
BRANCH   3  30
ATOM     30  C   UNL     1       0.877   0.414  -1.052  0.00  0.00    +0.163 C 
BRANCH  30  31
ATOM     31  C   UNL     1       0.391  -0.908  -0.518  0.00  0.00    -0.028 A 
ATOM     32  C   UNL     1       1.174  -1.626   0.366  0.00  0.00    +0.005 A 
ATOM     33  C   UNL     1       0.726  -2.837   0.860  0.00  0.00    +0.000 A 
ATOM     34  C   UNL     1      -0.499  -3.336   0.460  0.00  0.00    +0.000 A 
ATOM     35  C   UNL     1      -1.280  -2.621  -0.429  0.00  0.00    +0.000 A 
ATOM     36  C   UNL     1      -0.835  -1.407  -0.918  0.00  0.00    +0.005 A 
ENDBRANCH  30  31
ENDBRANCH   3  30
TORSDOF 7
