REMARK  Name = ZINC52636705
REMARK  4 active torsions:
REMARK  status: ('A' for Active; 'I' for Inactive)
REMARK    1  A    between atoms: C_1  and  C_2
REMARK    2  A    between atoms: N_8  and  S_9
REMARK    3  A    between atoms: S_9  and  C_12
REMARK    4  A    between atoms: C_21  and  C_23
REMARK                            x       y       z     vdW  Elec       q    Type
REMARK                         _______ _______ _______ _____ _____    ______ ____
ROOT
ATOM      1  C   UNL     1      -0.412   1.974  -0.339  0.00  0.00    +0.027 C 
ATOM      2  C   UNL     1      -0.033   0.507  -0.127  0.00  0.00    +0.094 C 
ATOM      3  C   UNL     1      -1.304  -0.331   0.064  0.00  0.00    +0.128 C 
ATOM      4  N   UNL     1      -1.894   0.002   1.368  0.00  0.00    -0.293 N 
ATOM      5  C   UNL     1      -1.064  -0.124   2.574  0.00  0.00    +0.125 C 
ATOM      6  C   UNL     1       0.207   0.713   2.384  0.00  0.00    +0.129 C 
ATOM      7  N   UNL     1       0.801   0.381   1.077  0.00  0.00    -0.171 NA
ATOM      8  C   UNL     1      -3.174   0.415   1.457  0.00  0.00    +0.266 C 
ATOM      9  O   UNL     1      -3.809   0.650   0.446  0.00  0.00    -0.268 OA
ENDROOT
BRANCH   8  10
ATOM     10  C   UNL     1      -3.804   0.582   2.777  0.00  0.00    +0.135 A 
ATOM     11  C   UNL     1      -5.032   1.183   2.891  0.00  0.00    +0.081 A 
ATOM     12  S   UNL     1      -5.277   1.108   4.660  0.00  0.00    -0.060 S 
ATOM     13  C   UNL     1      -3.739   0.294   5.069  0.00  0.00    +0.156 A 
ATOM     14  N   UNL     1      -3.190   0.147   3.880  0.00  0.00    -0.221 NA
ATOM     15  N   UNL     1      -3.254  -0.086   6.309  0.00  0.00    -0.338 N 
ATOM     16  H   UNL     1      -3.776   0.086   7.107  0.00  0.00    +0.144 HD
ATOM     17  H   UNL     1      -2.391  -0.524   6.378  0.00  0.00    +0.144 HD
ENDBRANCH   8  10
BRANCH   7  18
ATOM     18  S   UNL     1       2.373  -0.127   0.964  0.00  0.00    +0.060 S 
ATOM     19  O   UNL     1       2.716  -0.672   2.231  0.00  0.00    -0.153 OA
ATOM     20  O   UNL     1       2.471  -0.877  -0.239  0.00  0.00    -0.153 OA
BRANCH  18  21
ATOM     21  C   UNL     1       3.370   1.308   0.746  0.00  0.00    +0.112 C 
ATOM     22  C   UNL     1       4.237   1.840   1.637  0.00  0.00    +0.041 A 
ATOM     23  C   UNL     1       4.633   1.454   2.997  0.00  0.00    +0.014 A 
ATOM     24  C   UNL     1       5.554   2.229   3.630  0.00  0.00    +0.020 A 
ATOM     25  C   UNL     1       6.096   3.350   2.995  0.00  0.00    +0.113 A 
ATOM     26  N   UNL     1       5.769   3.724   1.789  0.00  0.00    -0.238 NA
ATOM     27  C   UNL     1       4.866   3.044   1.049  0.00  0.00    +0.136 A 
ATOM     28  N   UNL     1       4.405   3.248  -0.161  0.00  0.00    -0.364 N 
ATOM     29  C   UNL     1       3.437   2.193  -0.479  0.00  0.00    +0.171 C 
ATOM     30  H   UNL     1       4.664   3.974  -0.750  0.00  0.00    +0.161 HD
ENDBRANCH  18  21
ENDBRANCH   7  18
TORSDOF 3
