REMARK  Name = ZINC15054729
REMARK  10 active torsions:
REMARK  status: ('A' for Active; 'I' for Inactive)
REMARK    1  A    between atoms: C_1  and  C_2
REMARK    2  A    between atoms: C_5  and  C_30
REMARK    3  A    between atoms: C_6  and  C_8
REMARK    4  A    between atoms: C_8  and  C_10
REMARK    5  A    between atoms: C_10  and  C_11
REMARK    6  A    between atoms: N_17  and  N_18
REMARK    7  A    between atoms: C_19  and  C_20
REMARK    8  A    between atoms: C_23  and  O_28
REMARK    9  A    between atoms: C_24  and  O_26
REMARK   10  A    between atoms: O_26  and  C_27
REMARK                            x       y       z     vdW  Elec       q    Type
REMARK                         _______ _______ _______ _____ _____    ______ ____
ROOT
ATOM      1  C   UNL     1       0.939  -2.769   4.938  0.00  0.00    +0.147 C 
ATOM      2  C   UNL     1       1.073  -1.977   6.229  0.00  0.00    +0.232 C 
ATOM      3  O   UNL     1       0.164  -1.308   6.673  0.00  0.00    -0.274 OA
ATOM      4  N   UNL     1       2.244  -2.064   6.838  0.00  0.00    -0.263 N 
ATOM      5  C   UNL     1       3.282  -2.823   6.341  0.00  0.00    +0.183 C 
ATOM      6  N   UNL     1       4.484  -2.989   6.851  0.00  0.00    -0.127 NA
ATOM      7  S   UNL     1       2.612  -3.530   4.841  0.00  0.00    -0.075 S 
ATOM      8  H   UNL     1       2.376  -1.576   7.666  0.00  0.00    +0.157 HD
ENDROOT
BRANCH   6   9
ATOM      9  N   UNL     1       5.342  -3.742   6.250  0.00  0.00    -0.155 NA
ATOM     10  C   UNL     1       6.534  -3.907   6.755  0.00  0.00    +0.143 C 
BRANCH  10  11
ATOM     11  C   UNL     1       7.512  -4.765   6.069  0.00  0.00    -0.002 A 
ATOM     12  C   UNL     1       7.168  -5.402   4.872  0.00  0.00    +0.013 A 
ATOM     13  C   UNL     1       8.087  -6.206   4.231  0.00  0.00    +0.050 A 
ATOM     14  C   UNL     1       9.353  -6.385   4.771  0.00  0.00    +0.158 A 
ATOM     15  C   UNL     1       9.703  -5.755   5.963  0.00  0.00    +0.162 A 
ATOM     16  C   UNL     1       8.790  -4.943   6.609  0.00  0.00    +0.059 A 
BRANCH  15  17
ATOM     17  O   UNL     1      10.944  -5.934   6.488  0.00  0.00    -0.491 OA
ATOM     18  C   UNL     1      11.235  -5.257   7.712  0.00  0.00    +0.277 C 
ENDBRANCH  15  17
BRANCH  14  19
ATOM     19  O   UNL     1      10.254  -7.179   4.134  0.00  0.00    -0.503 OA
ATOM     20  H   UNL     1      10.808  -6.712   3.495  0.00  0.00    +0.292 HD
ENDBRANCH  14  19
ENDBRANCH  10  11
ENDBRANCH   6   9
BRANCH   1  21
ATOM     21  C   UNL     1       0.679  -1.845   3.746  0.00  0.00    +0.103 C 
BRANCH  21  22
ATOM     22  C   UNL     1       0.524  -2.672   2.495  0.00  0.00    +0.165 C 
ATOM     23  O   UNL     1       0.612  -3.880   2.552  0.00  0.00    -0.292 OA
BRANCH  22  29
ATOM     24  C   UNL     1       0.057   1.497  -0.200  0.00  0.00    +0.044 C 
ATOM     25  C   UNL     1       0.039  -0.006  -0.099  0.00  0.00    -0.050 A 
ATOM     26  C   UNL     1      -0.222  -0.771  -1.223  0.00  0.00    +0.003 A 
ATOM     27  C   UNL     1      -0.240  -2.152  -1.140  0.00  0.00    +0.004 A 
ATOM     28  C   UNL     1       0.001  -2.778   0.065  0.00  0.00    -0.040 A 
ATOM     29  C   UNL     1       0.266  -2.012   1.205  0.00  0.00    +0.021 A 
ATOM     30  C   UNL     1       0.289  -0.617   1.112  0.00  0.00    +0.015 A 
ATOM     31  C   UNL     1      -0.020  -4.282   0.153  0.00  0.00    +0.044 C 
ENDBRANCH  22  29
ENDBRANCH  21  22
ENDBRANCH   1  21
TORSDOF 7
