REMARK  Name = ZINC39722246
REMARK  8 active torsions:
REMARK  status: ('A' for Active; 'I' for Inactive)
REMARK    1  A    between atoms: C_1  and  C_2
REMARK    2  A    between atoms: C_2  and  C_3
REMARK    3  A    between atoms: C_3  and  C_4
REMARK    4  A    between atoms: C_4  and  N_5
REMARK    5  A    between atoms: C_6  and  S_17
REMARK    6  A    between atoms: S_17  and  C_18
REMARK    7  A    between atoms: C_18  and  C_19
REMARK    8  A    between atoms: C_27  and  C_31
REMARK                            x       y       z     vdW  Elec       q    Type
REMARK                         _______ _______ _______ _____ _____    ______ ____
ROOT
ATOM      1  S   UNL     1       0.665  -1.238  -4.711  0.00  0.00    -0.111 S 
ENDROOT
BRANCH   1   3
ATOM      2  N   UNL     1       1.425  -2.500  -2.470  0.00  0.00    -0.270 N 
ATOM      3  C   UNL     1       0.652  -2.737  -3.690  0.00  0.00    +0.222 C 
ATOM      4  N   UNL     1       1.235  -3.846  -4.454  0.00  0.00    -0.317 N 
ATOM      5  C   UNL     1       2.617  -3.907  -4.598  0.00  0.00    +0.041 A 
ATOM      6  C   UNL     1       3.209  -4.495  -5.703  0.00  0.00    +0.024 A 
ATOM      7  C   UNL     1       4.587  -4.541  -5.797  0.00  0.00    +0.002 A 
ATOM      8  C   UNL     1       5.380  -4.004  -4.795  0.00  0.00    +0.001 A 
ATOM      9  C   UNL     1       4.805  -3.410  -3.690  0.00  0.00    +0.015 A 
ATOM     10  C   UNL     1       3.417  -3.353  -3.584  0.00  0.00    +0.058 A 
ATOM     11  C   UNL     1       2.757  -2.703  -2.438  0.00  0.00    +0.250 C 
ATOM     12  O   UNL     1       3.407  -2.356  -1.470  0.00  0.00    -0.270 OA
ATOM     13  H   UNL     1       0.667  -4.525  -4.852  0.00  0.00    +0.149 HD
BRANCH   2  14
ATOM     14  C   UNL     1       0.739  -2.027  -1.265  0.00  0.00    +0.111 C 
BRANCH  14  15
ATOM     15  C   UNL     1       0.718  -0.497  -1.257  0.00  0.00    +0.019 C 
BRANCH  15  17
ATOM     16  C   UNL     1      -0.019   1.526   0.010  0.00  0.00    +0.004 C 
ATOM     17  C   UNL     1       0.002  -0.004   0.002  0.00  0.00    -0.002 C 
ENDBRANCH  15  17
ENDBRANCH  14  15
ENDBRANCH   2  14
ENDBRANCH   1   3
BRANCH   1  18
ATOM     18  C   UNL     1       2.424  -0.958  -5.057  0.00  0.00    +0.146 C 
BRANCH  18  19
ATOM     19  C   UNL     1       2.578   0.275  -5.909  0.00  0.00    +0.120 A 
ATOM     20  N   UNL     1       3.830   0.649  -6.281  0.00  0.00    -0.310 N 
ATOM     21  H   UNL     1       4.593   0.123  -5.996  0.00  0.00    +0.170 HD
ATOM     22  C   UNL     1       4.022   1.749  -7.047  0.00  0.00    +0.259 A 
ATOM     23  O   UNL     1       5.138   2.095  -7.387  0.00  0.00    -0.267 OA
ATOM     24  C   UNL     1       2.828   2.510  -7.452  0.00  0.00    +0.065 A 
ATOM     25  C   UNL     1       2.920   3.656  -8.240  0.00  0.00    +0.016 A 
ATOM     26  C   UNL     1       1.786   4.331  -8.593  0.00  0.00    +0.016 A 
ATOM     27  C   UNL     1       0.528   3.883  -8.170  0.00  0.00    +0.065 A 
ATOM     28  C   UNL     1       0.415   2.742  -7.382  0.00  0.00    +0.043 A 
ATOM     29  C   UNL     1       1.568   2.044  -7.016  0.00  0.00    +0.079 A 
ATOM     30  N   UNL     1       1.507   0.923  -6.255  0.00  0.00    -0.233 NA
BRANCH  27  31
ATOM     31  C   UNL     1      -0.687   4.628  -8.562  0.00  0.00    +0.387 C 
ATOM     32  O   UNL     1      -0.592   5.631  -9.254  0.00  0.00    -0.241 OA
ATOM     33  O   UNL     1      -1.786   4.240  -8.195  0.00  0.00    -0.241 OA
ENDBRANCH  27  31
ENDBRANCH  18  19
ENDBRANCH   1  18
TORSDOF 7
