REMARK  Name = ZINC19134492
REMARK  5 active torsions:
REMARK  status: ('A' for Active; 'I' for Inactive)
REMARK    1  A    between atoms: C_1  and  C_2
REMARK    2  A    between atoms: C_6  and  S_8
REMARK    3  A    between atoms: S_8  and  N_11
REMARK    4  A    between atoms: N_11  and  C_12
REMARK    5  A    between atoms: N_18  and  C_23
REMARK                            x       y       z     vdW  Elec       q    Type
REMARK                         _______ _______ _______ _____ _____    ______ ____
ROOT
ATOM      1  N   UNL     1       2.365   3.885  -0.001  0.00  0.00    -0.216 N 
ATOM      2  H   UNL     1       2.486   4.640   0.596  0.00  0.00    +0.174 HD
ENDROOT
BRANCH   1   3
ATOM      3  C   UNL     1       1.160   3.172   0.007  0.00  0.00    +0.050 A 
ATOM      4  C   UNL     1       1.175   1.784   0.000  0.00  0.00    +0.028 A 
ATOM      5  C   UNL     1      -0.013   1.076   0.008  0.00  0.00    +0.049 A 
ATOM      6  C   UNL     1      -1.220   1.752   0.017  0.00  0.00    +0.143 A 
ATOM      7  C   UNL     1      -1.238   3.145   0.031  0.00  0.00    +0.080 A 
ATOM      8  C   UNL     1      -0.049   3.855   0.023  0.00  0.00    +0.051 A 
ATOM      9  N   UNL     1      -2.470   3.815   0.046  0.00  0.00    -0.269 N 
ATOM     10  C   UNL     1      -3.586   3.126   0.368  0.00  0.00    +0.257 C 
ATOM     11  O   UNL     1      -4.667   3.677   0.359  0.00  0.00    -0.272 OA
ATOM     12  C   UNL     1      -3.484   1.668   0.741  0.00  0.00    +0.325 C 
ATOM     13  O   UNL     1      -2.397   1.067   0.033  0.00  0.00    -0.481 OA
ATOM     14  C   UNL     1      -2.546   5.240  -0.283  0.00  0.00    +0.138 C 
ENDBRANCH   1   3
BRANCH   1  15
ATOM     15  S   UNL     1       3.584   3.438  -1.028  0.00  0.00    +0.075 S 
ATOM     16  O   UNL     1       4.647   4.357  -0.821  0.00  0.00    -0.150 OA
ATOM     17  O   UNL     1       3.749   2.035  -0.877  0.00  0.00    -0.150 OA
BRANCH  15  23
ATOM     18  C   UNL     1       3.814   5.894  -5.636  0.00  0.00    +0.044 C 
ATOM     19  C   UNL     1       3.153   4.859  -4.762  0.00  0.00    -0.048 A 
ATOM     20  C   UNL     1       2.093   4.118  -5.250  0.00  0.00    +0.006 A 
ATOM     21  C   UNL     1       1.487   3.169  -4.449  0.00  0.00    +0.040 A 
ATOM     22  C   UNL     1       1.945   2.956  -3.160  0.00  0.00    +0.150 A 
ATOM     23  C   UNL     1       3.003   3.703  -2.671  0.00  0.00    +0.144 A 
ATOM     24  C   UNL     1       3.608   4.652  -3.474  0.00  0.00    +0.035 A 
ATOM     25  F   UNL     1       1.357   2.025  -2.378  0.00  0.00    -0.203 F 
ENDBRANCH  15  23
ENDBRANCH   1  15
TORSDOF 3
