REMARK  Name = ZINC39655849
REMARK  6 active torsions:
REMARK  status: ('A' for Active; 'I' for Inactive)
REMARK    1  A    between atoms: C_1  and  C_2
REMARK    2  A    between atoms: C_8  and  C_11
REMARK    3  A    between atoms: C_11  and  C_12
REMARK    4  A    between atoms: C_12  and  N_13
REMARK    5  A    between atoms: C_14  and  C_16
REMARK    6  A    between atoms: C_27  and  C_29
REMARK                            x       y       z     vdW  Elec       q    Type
REMARK                         _______ _______ _______ _____ _____    ______ ____
ROOT
ATOM      1  C   UNL     1       4.075  -0.091  -7.936  0.00  0.00    +0.100 C 
ATOM      2  C   UNL     1       4.507   0.830  -9.099  0.00  0.00    +0.121 C 
ATOM      3  N   UNL     1       5.455   0.011  -9.892  0.00  0.00    -0.296 N 
ATOM      4  C   UNL     1       4.865  -1.349  -9.882  0.00  0.00    +0.115 C 
ATOM      5  C   UNL     1       4.311  -1.520  -8.454  0.00  0.00    -0.004 C 
ATOM      6  C   UNL     1       2.996  -2.293  -8.488  0.00  0.00    -0.010 C 
ATOM      7  C   UNL     1       3.264  -3.728  -8.950  0.00  0.00    -0.082 C 
ATOM      8  N   UNL     1       4.210  -4.371  -8.030  0.00  0.00    +0.379 N 
ATOM      9  C   UNL     1       5.502  -3.676  -8.074  0.00  0.00    -0.082 C 
ATOM     10  C   UNL     1       5.329  -2.239  -7.574  0.00  0.00    -0.010 C 
ATOM     11  C   UNL     1       6.596   0.412 -10.487  0.00  0.00    +0.247 C 
ATOM     12  O   UNL     1       7.017   1.536 -10.297  0.00  0.00    -0.270 OA
ATOM     13  H   UNL     1       3.842  -4.335  -7.092  0.00  0.00    -0.086 HD
ATOM     14  H   UNL     1       4.338  -5.335  -8.302  0.00  0.00    -0.086 HD
ENDROOT
BRANCH  11  15
ATOM     15  C   UNL     1       7.335  -0.515 -11.370  0.00  0.00    +0.038 A 
ATOM     16  C   UNL     1       6.684  -1.612 -11.937  0.00  0.00    +0.013 A 
ATOM     17  C   UNL     1       7.378  -2.474 -12.760  0.00  0.00    +0.002 A 
ATOM     18  C   UNL     1       8.719  -2.254 -13.024  0.00  0.00    +0.015 A 
ATOM     19  C   UNL     1       9.371  -1.169 -12.465  0.00  0.00    +0.019 A 
ATOM     20  C   UNL     1       8.685  -0.295 -11.645  0.00  0.00    +0.028 A 
ATOM     21 BR   UNL     1      11.203  -0.878 -12.831  0.00  0.00    -0.050 Br
ENDBRANCH  11  15
BRANCH   1  23
ATOM     22  N   UNL     1       2.171  -0.066  -6.357  0.00  0.00    -0.315 N 
ATOM     23  C   UNL     1       2.618   0.118  -7.615  0.00  0.00    +0.218 C 
ATOM     24  O   UNL     1       1.846   0.452  -8.490  0.00  0.00    -0.275 OA
ATOM     25  H   UNL     1       2.788  -0.333  -5.658  0.00  0.00    +0.149 HD
BRANCH  22  26
ATOM     26  C   UNL     1       0.754   0.137  -6.046  0.00  0.00    +0.109 C 
BRANCH  26  27
ATOM     27  C   UNL     1       0.514  -0.135  -4.559  0.00  0.00    +0.056 C 
BRANCH  27  35
ATOM     28  C   UNL     1      -3.316  -4.322  -5.345  0.00  0.00    +0.044 C 
ATOM     29  C   UNL     1      -3.263  -2.895  -4.863  0.00  0.00    -0.050 A 
ATOM     30  C   UNL     1      -4.428  -2.264  -4.448  0.00  0.00    +0.005 A 
ATOM     31  C   UNL     1      -4.402  -0.960  -4.005  0.00  0.00    +0.026 A 
ATOM     32  C   UNL     1      -3.197  -0.266  -3.972  0.00  0.00    +0.047 A 
ATOM     33  N   UNL     1      -2.849   1.011  -3.593  0.00  0.00    -0.360 N 
ATOM     34  C   UNL     1      -1.503   1.195  -3.759  0.00  0.00    +0.087 A 
ATOM     35  C   UNL     1      -0.943   0.073  -4.239  0.00  0.00    -0.021 A 
ATOM     36  C   UNL     1      -2.019  -0.909  -4.393  0.00  0.00    +0.003 A 
ATOM     37  C   UNL     1      -2.068  -2.233  -4.834  0.00  0.00    +0.013 A 
ATOM     38  H   UNL     1      -3.465   1.681  -3.259  0.00  0.00    +0.165 HD
ENDBRANCH  27  35
ENDBRANCH  26  27
ENDBRANCH  22  26
ENDBRANCH   1  23
TORSDOF 5
