REMARK  Name = ZINC14879354
REMARK  8 active torsions:
REMARK  status: ('A' for Active; 'I' for Inactive)
REMARK    1  A    between atoms: C_2  and  C_26
REMARK    2  A    between atoms: C_5  and  C_6
REMARK    3  A    between atoms: C_6  and  N_72
REMARK    4  A    between atoms: C_13  and  C_15
REMARK    5  A    between atoms: N_17  and  C_18
REMARK    6  A    between atoms: C_18  and  C_19
REMARK    7  A    between atoms: C_19  and  C_20
REMARK    8  A    between atoms: C_26  and  N_74
REMARK                            x       y       z     vdW  Elec       q    Type
REMARK                         _______ _______ _______ _____ _____    ______ ____
ROOT
ATOM      1  C   UNL     1      -2.571  -1.017   1.192  0.00  0.00    -0.078 C 
ATOM      2  C   UNL     1      -2.457  -0.409  -0.211  0.00  0.00    -0.011 C 
ATOM      3  C   UNL     1      -2.605   1.111  -0.099  0.00  0.00    -0.021 C 
ATOM      4  C   UNL     1      -3.839   1.580   0.678  0.00  0.00    -0.011 C 
ATOM      5  C   UNL     1      -3.871   0.856   2.029  0.00  0.00    -0.078 C 
ATOM      6  C   UNL     1      -2.140   1.962  -1.279  0.00  0.00    +0.020 C 
ATOM      7  C   UNL     1      -1.330   1.944   0.019  0.00  0.00    +0.082 C 
ATOM      8  N   UNL     1      -3.861  -0.604   1.787  0.00  0.00    +0.383 N 
ATOM      9  H   UNL     1      -4.618  -0.837   1.133  0.00  0.00    -0.081 HD
ENDROOT
BRANCH   7  10
ATOM     10  C   UNL     1      -0.014   1.209   0.009  0.00  0.00    +0.217 C 
ATOM     11  O   UNL     1       0.348   0.629  -0.993  0.00  0.00    -0.275 OA
ATOM     12  N   UNL     1       0.761   1.200   1.111  0.00  0.00    -0.315 N 
ATOM     13  H   UNL     1       0.471   1.664   1.912  0.00  0.00    +0.149 HD
BRANCH  12  14
ATOM     14  C   UNL     1       2.043   0.490   1.099  0.00  0.00    +0.108 C 
BRANCH  14  15
ATOM     15  C   UNL     1       2.719   0.635   2.463  0.00  0.00    +0.049 C 
BRANCH  15  16
ATOM     16  C   UNL     1       4.037  -0.095   2.451  0.00  0.00    -0.072 C 
ATOM     17  C   UNL     1       5.105   0.584   2.176  0.00  0.00    -0.028 C 
ATOM     18  C   UNL     1       6.484  -0.005   2.121  0.00  0.00    +0.027 C 
ATOM     19  C   UNL     1       6.507  -1.365   2.822  0.00  0.00    +0.004 C 
ATOM     20  C   UNL     1       5.340  -2.205   2.287  0.00  0.00    +0.005 C 
ATOM     21  C   UNL     1       4.030  -1.565   2.753  0.00  0.00    +0.030 C 
ENDBRANCH  15  16
ENDBRANCH  14  15
ENDBRANCH  12  14
ENDBRANCH   7  10
BRANCH   8  22
ATOM     22  C   UNL     1      -4.084  -1.326   3.055  0.00  0.00    -0.036 C 
BRANCH  22  27
ATOM     23  C   UNL     1      -6.632  -1.723   3.236  0.00  0.00    +0.011 A 
ATOM     24  C   UNL     1      -7.822  -1.291   3.791  0.00  0.00    -0.057 A 
ATOM     25  C   UNL     1      -7.813  -0.204   4.601  0.00  0.00    +0.047 A 
ATOM     26  S   UNL     1      -6.083   0.239   4.604  0.00  0.00    -0.103 S 
ATOM     27  C   UNL     1      -5.490  -1.054   3.526  0.00  0.00    -0.027 A 
BRANCH  24  28
ATOM     28  C   UNL     1      -9.111  -2.014   3.496  0.00  0.00    -0.042 C 
BRANCH  28  34
ATOM     29  C   UNL     1     -10.158  -0.046   2.554  0.00  0.00    -0.078 C 
ATOM     30  C   UNL     1     -10.672   0.576   1.253  0.00  0.00    -0.019 C 
ATOM     31  C   UNL     1     -11.852  -0.248   0.731  0.00  0.00    -0.004 C 
ATOM     32  C   UNL     1     -11.401  -1.697   0.524  0.00  0.00    -0.019 C 
ATOM     33  C   UNL     1     -10.865  -2.253   1.846  0.00  0.00    -0.078 C 
ATOM     34  N   UNL     1      -9.717  -1.430   2.282  0.00  0.00    +0.382 N 
ATOM     35  H   UNL     1      -9.014  -1.415   1.533  0.00  0.00    -0.081 HD
ENDBRANCH  28  34
ENDBRANCH  24  28
ENDBRANCH  22  27
ENDBRANCH   8  22
TORSDOF 8
