REMARK  Name = ZINC07931030
REMARK  13 active torsions:
REMARK  status: ('A' for Active; 'I' for Inactive)
REMARK    1  A    between atoms: C_1  and  C_2
REMARK    2  A    between atoms: C_2  and  C_4
REMARK    3  A    between atoms: C_2  and  O_14
REMARK    4  A    between atoms: N_9  and  C_10
REMARK    5  A    between atoms: C_10  and  C_11
REMARK    6  A    between atoms: C_10  and  C_12
REMARK    7  A    between atoms: C_10  and  C_13
REMARK    8  A    between atoms: O_14  and  C_15
REMARK    9  A    between atoms: C_15  and  C_17
REMARK   10  A    between atoms: C_23  and  C_25
REMARK   11  A    between atoms: C_25  and  C_26
REMARK   12  A    between atoms: C_25  and  C_27
REMARK   13  A    between atoms: C_25  and  C_28
REMARK                            x       y       z     vdW  Elec       q    Type
REMARK                         _______ _______ _______ _____ _____    ______ ____
ROOT
ATOM      1  O   UNL     1      -2.186   4.165   0.559  0.00  0.00    -0.452 OA
ENDROOT
BRANCH   1   3
ATOM      2  C   UNL     1      -0.569   3.232  -1.004  0.00  0.00    +0.062 C 
ATOM      3  C   UNL     1      -0.874   3.552   0.460  0.00  0.00    +0.259 C 
BRANCH   3   4
ATOM      4  C   UNL     1       0.167   4.503   0.993  0.00  0.00    +0.261 C 
ATOM      5  O   UNL     1      -0.152   5.623   1.330  0.00  0.00    -0.271 OA
ATOM      6  N   UNL     1       1.452   4.108   1.095  0.00  0.00    -0.237 N 
ATOM      7  C   UNL     1       2.383   4.961   1.567  0.00  0.00    +0.306 C 
ATOM      8  O   UNL     1       2.063   6.084   1.904  0.00  0.00    -0.252 OA
ATOM      9  N   UNL     1       3.668   4.568   1.663  0.00  0.00    -0.294 N 
ATOM     10  H   UNL     1       1.706   3.212   0.826  0.00  0.00    +0.159 HD
ATOM     11  H   UNL     1       3.924   3.672   1.394  0.00  0.00    +0.151 HD
BRANCH   9  12
ATOM     12  C   UNL     1       4.681   5.495   2.175  0.00  0.00    +0.028 C 
ATOM     13  C   UNL     1       4.314   5.914   3.601  0.00  0.00    +0.031 C 
ATOM     14  C   UNL     1       6.047   4.805   2.182  0.00  0.00    +0.031 C 
ATOM     15  C   UNL     1       4.739   6.733   1.279  0.00  0.00    +0.031 C 
ENDBRANCH   9  12
ENDBRANCH   3   4
ENDBRANCH   1   3
BRANCH   1  16
ATOM     16  C   UNL     1      -3.232   3.342   0.734  0.00  0.00    +0.311 C 
ATOM     17  O   UNL     1      -3.056   2.148   0.802  0.00  0.00    -0.251 OA
BRANCH  16  18
ATOM     18  C   UNL     1      -4.625   3.906   0.846  0.00  0.00    +0.101 C 
ATOM     19  C   UNL     1      -4.696   4.856   2.043  0.00  0.00    +0.033 C 
ATOM     20  C   UNL     1      -6.103   5.454   2.133  0.00  0.00    +0.108 C 
ATOM     21  N   UNL     1      -7.081   4.358   2.173  0.00  0.00    -0.301 N 
ATOM     22  C   UNL     1      -7.042   3.338   1.117  0.00  0.00    +0.108 C 
ATOM     23  C   UNL     1      -5.624   2.763   1.039  0.00  0.00    +0.033 C 
ATOM     24  C   UNL     1      -7.996   4.291   3.160  0.00  0.00    +0.221 C 
ATOM     25  O   UNL     1      -8.855   3.435   3.133  0.00  0.00    -0.275 OA
BRANCH  24  26
ATOM     26  C   UNL     1      -7.953   5.279   4.297  0.00  0.00    +0.039 C 
ATOM     27  C   UNL     1      -9.066   4.955   5.296  0.00  0.00    +0.020 C 
ATOM     28  C   UNL     1      -6.596   5.190   4.998  0.00  0.00    +0.020 C 
ATOM     29  C   UNL     1      -8.153   6.694   3.751  0.00  0.00    +0.020 C 
ENDBRANCH  24  26
ENDBRANCH  16  18
ENDBRANCH   1  16
TORSDOF 6
