REMARK  Name = ZINC41151725
REMARK  5 active torsions:
REMARK  status: ('A' for Active; 'I' for Inactive)
REMARK    1  A    between atoms: C_7  and  N_26
REMARK    2  A    between atoms: N_14  and  C_17
REMARK    3  A    between atoms: C_17  and  C_18
REMARK    4  A    between atoms: N_26  and  C_27
REMARK    5  A    between atoms: C_27  and  C_28
REMARK                            x       y       z     vdW  Elec       q    Type
REMARK                         _______ _______ _______ _____ _____    ______ ____
ROOT
ATOM      1  C   UNL     1      -0.028   1.343  -0.213  0.00  0.00    +0.001 A 
ATOM      2  C   UNL     1       1.145   2.056  -0.444  0.00  0.00    +0.002 A 
ATOM      3  C   UNL     1       2.356   1.431  -0.461  0.00  0.00    +0.026 A 
ATOM      4  C   UNL     1       2.423   0.048  -0.244  0.00  0.00    +0.052 A 
ATOM      5  C   UNL     1       1.229  -0.676  -0.010  0.00  0.00    +0.038 A 
ATOM      6  C   UNL     1       0.002  -0.004   0.002  0.00  0.00    +0.013 A 
ATOM      7  C   UNL     1       1.322  -2.074   0.208  0.00  0.00    +0.132 A 
ATOM      8  N   UNL     1       2.521  -2.635   0.181  0.00  0.00    -0.201 NA
ATOM      9  C   UNL     1       3.619  -1.918  -0.043  0.00  0.00    +0.198 A 
ATOM     10  N   UNL     1       3.589  -0.615  -0.251  0.00  0.00    -0.327 N 
ATOM     11  N   UNL     1       4.841  -2.563  -0.057  0.00  0.00    -0.305 N 
ATOM     12  C   UNL     1       6.096  -1.804  -0.169  0.00  0.00    +0.089 C 
ATOM     13  C   UNL     1       7.045  -2.268   0.941  0.00  0.00    -0.059 C 
ATOM     14  N   UNL     1       7.210  -3.725   0.867  0.00  0.00    +0.384 N 
ATOM     15  C   UNL     1       5.928  -4.388   1.140  0.00  0.00    -0.059 C 
ATOM     16  C   UNL     1       4.924  -4.029   0.045  0.00  0.00    +0.089 C 
ATOM     17  H   UNL     1       4.416  -0.134  -0.410  0.00  0.00    +0.169 HD
ATOM     18  H   UNL     1       7.528  -3.980  -0.057  0.00  0.00    -0.081 HD
ENDROOT
BRANCH   7  19
ATOM     19  N   UNL     1       0.193  -2.829   0.442  0.00  0.00    -0.326 N 
ATOM     20  H   UNL     1      -0.679  -2.405   0.459  0.00  0.00    +0.148 HD
BRANCH  19  21
ATOM     21  C   UNL     1       0.310  -4.272   0.664  0.00  0.00    +0.134 C 
BRANCH  21  22
ATOM     22  C   UNL     1      -1.080  -4.867   0.897  0.00  0.00    +0.135 C 
ATOM     23  C   UNL     1      -0.975  -6.389   1.170  0.00  0.00    +0.035 C 
ATOM     24  C   UNL     1      -2.277  -6.634   1.980  0.00  0.00    +0.031 C 
ATOM     25  C   UNL     1      -2.423  -5.317   2.772  0.00  0.00    +0.160 C 
ATOM     26  O   UNL     1      -1.667  -4.311   2.084  0.00  0.00    -0.375 OA
ENDBRANCH  21  22
ENDBRANCH  19  21
ENDBRANCH   7  19
BRANCH  14  27
ATOM     27  C   UNL     1       8.203  -4.155   1.859  0.00  0.00    -0.041 C 
BRANCH  27  28
ATOM     28  C   UNL     1       8.464  -5.631   1.702  0.00  0.00    -0.046 A 
ATOM     29  C   UNL     1       7.849  -6.536   2.548  0.00  0.00    +0.004 A 
ATOM     30  C   UNL     1       8.088  -7.889   2.405  0.00  0.00    +0.020 A 
ATOM     31  C   UNL     1       8.941  -8.340   1.413  0.00  0.00    +0.042 A 
ATOM     32  C   UNL     1       9.556  -7.436   0.567  0.00  0.00    +0.040 A 
ATOM     33  C   UNL     1       9.313  -6.081   0.708  0.00  0.00    +0.044 A 
ATOM     34 CL   UNL     1      10.080  -4.946  -0.359  0.00  0.00    -0.083 Cl
ATOM     35 CL   UNL     1       9.242 -10.041   1.234  0.00  0.00    -0.083 Cl
ENDBRANCH  27  28
ENDBRANCH  14  27
TORSDOF 5
