REMARK  Name = ZINC04391542
REMARK  18 active torsions:
REMARK  status: ('A' for Active; 'I' for Inactive)
REMARK    1  A    between atoms: C_1  and  C_2
REMARK    2  A    between atoms: C_2  and  N_67
REMARK    3  A    between atoms: C_3  and  C_4
REMARK    4  A    between atoms: C_3  and  N_67
REMARK    5  A    between atoms: C_5  and  C_6
REMARK    6  A    between atoms: C_5  and  N_67
REMARK    7  A    between atoms: C_6  and  C_7
REMARK    8  A    between atoms: C_7  and  N_8
REMARK    9  A    between atoms: C_9  and  C_31
REMARK   10  A    between atoms: C_11  and  C_16
REMARK   11  A    between atoms: C_12  and  O_15
REMARK   12  A    between atoms: C_16  and  C_18
REMARK   13  A    between atoms: C_19  and  C_30
REMARK   14  A    between atoms: C_20  and  C_25
REMARK   15  A    between atoms: C_23  and  C_24
REMARK   16  A    between atoms: C_25  and  O_27
REMARK   17  A    between atoms: O_27  and  C_28
REMARK   18  A    between atoms: C_28  and  C_29
REMARK                            x       y       z     vdW  Elec       q    Type
REMARK                         _______ _______ _______ _____ _____    ______ ____
ROOT
ATOM      1  N   UNL     1      -0.358   1.031  -0.468  0.00  0.00    -0.283 N 
ATOM      2  C   UNL     1       1.023   1.440  -0.189  0.00  0.00    +0.151 C 
ATOM      3  C   UNL     1       1.669   0.280   0.532  0.00  0.00    +0.072 C 
ATOM      4  C   UNL     1       0.727  -0.684   0.641  0.00  0.00    +0.188 C 
ATOM      5  C   UNL     1      -0.527  -0.212   0.019  0.00  0.00    +0.282 C 
ATOM      6  O   UNL     1      -1.559  -0.851  -0.044  0.00  0.00    -0.267 OA
ENDROOT
BRANCH   2   7
ATOM      7  C   UNL     1       1.033   2.666   0.687  0.00  0.00    +0.015 A 
ATOM      8  C   UNL     1       1.782   3.790   0.575  0.00  0.00    +0.013 A 
ATOM      9  C   UNL     1       1.619   4.800   1.504  0.00  0.00    +0.008 A 
ATOM     10  C   UNL     1       0.722   4.633   2.506  0.00  0.00    +0.045 A 
ATOM     11  S   UNL     1       0.067   3.011   2.148  0.00  0.00    -0.099 S 
ENDBRANCH   2   7
BRANCH   4  12
ATOM     12  O   UNL     1       0.905  -1.891   1.227  0.00  0.00    -0.502 OA
ATOM     13  H   UNL     1       0.055  -2.416   1.175  0.00  0.00    +0.292 HD
ENDBRANCH   4  12
BRANCH   3  14
ATOM     14  C   UNL     1       3.051   0.213   1.019  0.00  0.00    +0.197 C 
ATOM     15  O   UNL     1       3.969   0.092   0.229  0.00  0.00    -0.287 OA
BRANCH  14  16
ATOM     16  C   UNL     1       3.328   0.292   2.465  0.00  0.00    +0.046 A 
ATOM     17  C   UNL     1       4.601   0.348   3.074  0.00  0.00    -0.008 A 
ATOM     18  C   UNL     1       4.396   0.416   4.421  0.00  0.00    +0.128 A 
ATOM     19  N   UNL     1       3.038   0.394   4.655  0.00  0.00    -0.352 N 
ATOM     20  H   UNL     1       2.617   0.426   5.528  0.00  0.00    +0.166 HD
ATOM     21  C   UNL     1       2.389   0.319   3.482  0.00  0.00    +0.025 A 
ATOM     22  C   UNL     1       0.894   0.272   3.303  0.00  0.00    +0.064 C 
ATOM     23  C   UNL     1       5.933   0.339   2.369  0.00  0.00    +0.047 C 
BRANCH  18  24
ATOM     24  C   UNL     1       5.443   0.493   5.446  0.00  0.00    +0.356 C 
ATOM     25  O   UNL     1       6.614   0.506   5.119  0.00  0.00    -0.243 OA
BRANCH  24  26
ATOM     26  O   UNL     1       5.106   0.549   6.751  0.00  0.00    -0.460 OA
BRANCH  26  27
ATOM     27  C   UNL     1       6.194   0.624   7.710  0.00  0.00    +0.229 C 
ATOM     28  C   UNL     1       5.621   0.680   9.127  0.00  0.00    +0.048 C 
ENDBRANCH  26  27
ENDBRANCH  24  26
ENDBRANCH  18  24
ENDBRANCH  14  16
ENDBRANCH   3  14
BRANCH   1  29
ATOM     29  C   UNL     1      -1.372   1.831  -1.161  0.00  0.00    +0.107 C 
BRANCH  29  30
ATOM     30  C   UNL     1      -2.150   2.663  -0.139  0.00  0.00    +0.000 C 
BRANCH  30  31
ATOM     31  C   UNL     1      -3.208   3.498  -0.862  0.00  0.00    -0.077 C 
BRANCH  31  32
ATOM     32  N   UNL     1      -3.965   4.280   0.140  0.00  0.00    +0.379 N 
ATOM     33  H   UNL     1      -4.299   3.645   0.874  0.00  0.00    -0.082 HD
BRANCH  32  35
ATOM     34  C   UNL     1      -2.628   6.312  -0.303  0.00  0.00    -0.017 C 
ATOM     35  C   UNL     1      -3.088   5.301   0.750  0.00  0.00    -0.082 C 
ENDBRANCH  32  35
BRANCH  32  36
ATOM     36  C   UNL     1      -5.128   4.929  -0.500  0.00  0.00    -0.082 C 
ATOM     37  C   UNL     1      -6.009   5.546   0.588  0.00  0.00    -0.017 C 
ENDBRANCH  32  36
ENDBRANCH  31  32
ENDBRANCH  30  31
ENDBRANCH  29  30
ENDBRANCH   1  29
TORSDOF 13
