REMARK  Name = ZINC39353985
REMARK  6 active torsions:
REMARK  status: ('A' for Active; 'I' for Inactive)
REMARK    1  A    between atoms: C_1  and  C_2
REMARK    2  A    between atoms: C_3  and  C_21
REMARK    3  A    between atoms: N_7  and  C_8
REMARK    4  A    between atoms: C_8  and  C_9
REMARK    5  A    between atoms: C_14  and  C_15
REMARK    6  A    between atoms: N_25  and  C_27
REMARK                            x       y       z     vdW  Elec       q    Type
REMARK                         _______ _______ _______ _____ _____    ______ ____
ROOT
ATOM      1  C   UNL     1      -0.018   1.503   0.010  0.00  0.00    +0.066 C 
ATOM      2  C   UNL     1       0.002  -0.004   0.002  0.00  0.00    +0.052 A 
ATOM      3  C   UNL     1       0.006  -0.705  -1.157  0.00  0.00    +0.036 A 
ATOM      4  S   UNL     1       0.032  -2.378  -0.535  0.00  0.00    -0.055 S 
ATOM      5  C   UNL     1       0.036  -2.016   1.109  0.00  0.00    +0.159 A 
ATOM      6  N   UNL     1       0.023  -0.700   1.125  0.00  0.00    -0.230 NA
ATOM      7  N   UNL     1       0.053  -2.891   2.183  0.00  0.00    -0.322 N 
ATOM      8  H   UNL     1       0.066  -3.848   2.029  0.00  0.00    +0.148 HD
ENDROOT
BRANCH   3   9
ATOM      9  C   UNL     1      -0.009  -0.209  -2.580  0.00  0.00    +0.135 C 
ATOM     10  C   UNL     1      -1.355  -0.472  -3.219  0.00  0.00    +0.015 C 
ATOM     11  C   UNL     1      -1.142  -1.274  -4.242  0.00  0.00    +0.086 C 
ATOM     12  N   UNL     1       0.197  -1.587  -4.375  0.00  0.00    -0.268 N 
ATOM     13  N   UNL     1       0.945  -0.978  -3.405  0.00  0.00    -0.229 NA
ATOM     14  H   UNL     1       1.439  -1.658  -2.847  0.00  0.00    +0.145 HD
BRANCH  12  15
ATOM     15  C   UNL     1       0.744  -2.458  -5.418  0.00  0.00    +0.118 C 
ATOM     16  C   UNL     1       1.493  -3.657  -4.786  0.00  0.00    +0.054 C 
ATOM     17  C   UNL     1       2.735  -3.784  -5.704  0.00  0.00    +0.162 C 
ATOM     18  O   UNL     1       3.069  -2.414  -6.012  0.00  0.00    -0.378 OA
ATOM     19  C   UNL     1       1.827  -1.717  -6.227  0.00  0.00    +0.183 C 
ENDBRANCH  12  15
ENDBRANCH   3   9
BRANCH   7  20
ATOM     20  C   UNL     1       0.053  -2.369   3.553  0.00  0.00    +0.118 C 
BRANCH  20  21
ATOM     21  C   UNL     1       0.075  -3.536   4.543  0.00  0.00    +0.100 C 
ATOM     22  C   UNL     1      -1.236  -4.296   4.501  0.00  0.00    +0.119 C 
ATOM     23  N   UNL     1      -1.748  -4.194   5.684  0.00  0.00    -0.161 NA
ATOM     24  N   UNL     1      -0.949  -3.452   6.548  0.00  0.00    -0.153 NA
ATOM     25  C   UNL     1       0.143  -3.025   5.968  0.00  0.00    +0.080 C 
BRANCH  25  26
ATOM     26  C   UNL     1       1.216  -2.218   6.571  0.00  0.00    -0.001 A 
ATOM     27  C   UNL     1       2.323  -1.836   5.807  0.00  0.00    +0.010 A 
ATOM     28  C   UNL     1       3.324  -1.080   6.379  0.00  0.00    +0.001 A 
ATOM     29  C   UNL     1       3.235  -0.699   7.707  0.00  0.00    +0.000 A 
ATOM     30  C   UNL     1       2.143  -1.073   8.470  0.00  0.00    +0.001 A 
ATOM     31  C   UNL     1       1.131  -1.823   7.910  0.00  0.00    +0.010 A 
ENDBRANCH  25  26
ENDBRANCH  20  21
ENDBRANCH   7  20
TORSDOF 5
