REMARK  Name = ZINC20504071
REMARK  10 active torsions:
REMARK  status: ('A' for Active; 'I' for Inactive)
REMARK    1  A    between atoms: C_1  and  O_2
REMARK    2  A    between atoms: O_2  and  C_3
REMARK    3  A    between atoms: C_3  and  C_4
REMARK    4  A    between atoms: C_4  and  N_5
REMARK    5  A    between atoms: N_5  and  C_6
REMARK    6  A    between atoms: C_9  and  C_32
REMARK    7  A    between atoms: C_12  and  C_28
REMARK    8  A    between atoms: C_28  and  O_30
REMARK    9  A    between atoms: O_30  and  C_31
REMARK   10  A    between atoms: C_35  and  C_38
REMARK                            x       y       z     vdW  Elec       q    Type
REMARK                         _______ _______ _______ _____ _____    ______ ____
ROOT
ATOM      1  C   UNL     1       0.877   2.327  -0.142  0.00  0.00    -0.068 C 
ATOM      2  C   UNL     1       0.520   0.843  -0.260  0.00  0.00    +0.008 C 
ATOM      3  C   UNL     1       1.021   0.097   0.980  0.00  0.00    +0.087 C 
ATOM      4  N   UNL     1       2.474   0.267   1.094  0.00  0.00    -0.274 NA
ATOM      5  C   UNL     1       3.039  -0.573   2.155  0.00  0.00    +0.172 C 
ATOM      6  C   UNL     1       4.561  -0.665   1.979  0.00  0.00    +0.068 C 
ATOM      7  C   UNL     1       5.096   0.730   1.776  0.00  0.00    -0.016 A 
ATOM      8  C   UNL     1       6.456   1.212   1.870  0.00  0.00    +0.003 A 
ATOM      9  C   UNL     1       7.670   0.583   2.166  0.00  0.00    +0.010 A 
ATOM     10  C   UNL     1       8.794   1.371   2.167  0.00  0.00    +0.001 A 
ATOM     11  C   UNL     1       8.742   2.728   1.890  0.00  0.00    +0.002 A 
ATOM     12  C   UNL     1       7.556   3.376   1.594  0.00  0.00    +0.026 A 
ATOM     13  C   UNL     1       6.398   2.602   1.585  0.00  0.00    +0.047 A 
ATOM     14  N   UNL     1       5.091   2.913   1.340  0.00  0.00    -0.356 N 
ATOM     15  H   UNL     1       4.809   3.947   1.093  0.00  0.00    +0.166 HD
ATOM     16  C   UNL     1       4.318   1.791   1.458  0.00  0.00    +0.038 A 
ATOM     17  C   UNL     1       2.824   1.683   1.276  0.00  0.00    +0.103 C 
ATOM     18  C   UNL     1       2.392   2.472   0.038  0.00  0.00    +0.009 C 
ENDROOT
BRANCH   3  19
ATOM     19  C   UNL     1       0.695  -1.369   0.851  0.00  0.00    -0.030 A 
ATOM     20  C   UNL     1       1.491  -2.188   0.072  0.00  0.00    +0.006 A 
ATOM     21  C   UNL     1       1.194  -3.533  -0.043  0.00  0.00    +0.013 A 
ATOM     22  C   UNL     1       0.096  -4.058   0.613  0.00  0.00    +0.055 A 
ATOM     23  C   UNL     1      -0.703  -3.237   1.387  0.00  0.00    +0.013 A 
ATOM     24  C   UNL     1      -0.404  -1.893   1.506  0.00  0.00    +0.006 A 
BRANCH  22  25
ATOM     25  C   UNL     1      -0.231  -5.523   0.483  0.00  0.00    +0.417 C 
ATOM     26  F   UNL     1      -1.084  -5.716  -0.609  0.00  0.00    -0.166 F 
ATOM     27  F   UNL     1       0.950  -6.248   0.287  0.00  0.00    -0.166 F 
ATOM     28  F   UNL     1      -0.861  -5.965   1.651  0.00  0.00    -0.166 F 
ENDBRANCH  22  25
ENDBRANCH   3  19
BRANCH   1  29
ATOM     29  N   UNL     1       0.188   2.906   1.019  0.00  0.00    +0.382 N 
ATOM     30  H   UNL     1       0.761   3.776   1.371  0.00  0.00    -0.085 HD
ATOM     31  H   UNL     1       0.143   2.149   1.816  0.00  0.00    -0.085 HD
BRANCH  29  32
ATOM     32  C   UNL     1      -1.174   3.327   0.666  0.00  0.00    -0.054 C 
BRANCH  32  33
ATOM     33  C   UNL     1      -1.859   3.924   1.897  0.00  0.00    +0.140 C 
BRANCH  33  35
ATOM     34  C   UNL     1      -1.744   5.761   3.433  0.00  0.00    +0.193 C 
ATOM     35  O   UNL     1      -1.181   5.121   2.286  0.00  0.00    -0.385 OA
ENDBRANCH  33  35
ENDBRANCH  32  33
ENDBRANCH  29  32
ENDBRANCH   1  29
BRANCH   5  36
ATOM     36  C   UNL     1       2.725   0.035   3.498  0.00  0.00    +0.325 C 
ATOM     37  O   UNL     1       1.929   0.940   3.580  0.00  0.00    -0.249 OA
BRANCH  36  38
ATOM     38  O   UNL     1       3.329  -0.430   4.603  0.00  0.00    -0.467 OA
ATOM     39  C   UNL     1       2.978   0.203   5.862  0.00  0.00    +0.280 C 
ENDBRANCH  36  38
ENDBRANCH   5  36
TORSDOF 8
