REMARK  Name = ZINC05409211
REMARK  3 active torsions:
REMARK  status: ('A' for Active; 'I' for Inactive)
REMARK    1  A    between atoms: C_3  and  C_6
REMARK    2  A    between atoms: N_8  and  C_9
REMARK    3  A    between atoms: C_16  and  C_18
REMARK                            x       y       z     vdW  Elec       q    Type
REMARK                         _______ _______ _______ _____ _____    ______ ____
ROOT
ATOM      1  C   UNL     1       5.599  -0.652  -0.145  0.00  0.00    +0.036 A 
ATOM      2  C   UNL     1       6.370   0.508  -0.134  0.00  0.00    +0.027 A 
ATOM      3  C   UNL     1       7.744   0.435  -0.236  0.00  0.00    +0.050 A 
ATOM      4  C   UNL     1       8.365  -0.799  -0.350  0.00  0.00    +0.156 A 
ATOM      5  C   UNL     1       7.595  -1.974  -0.362  0.00  0.00    +0.112 A 
ATOM      6  C   UNL     1       6.205  -1.891  -0.253  0.00  0.00    +0.055 A 
ATOM      7  N   UNL     1       8.464  -3.010  -0.483  0.00  0.00    -0.209 NA
ATOM      8  C   UNL     1       9.682  -2.532  -0.542  0.00  0.00    +0.228 A 
ATOM      9  O   UNL     1       9.656  -1.188  -0.464  0.00  0.00    -0.435 OA
ENDROOT
BRANCH   8  10
ATOM     10  C   UNL     1      10.906  -3.348  -0.676  0.00  0.00    +0.039 A 
ATOM     11  C   UNL     1      10.811  -4.744  -0.754  0.00  0.00    +0.015 A 
ATOM     12  C   UNL     1      11.932  -5.508  -0.877  0.00  0.00    +0.030 A 
ATOM     13  C   UNL     1      13.192  -4.902  -0.927  0.00  0.00    +0.089 A 
ATOM     14  C   UNL     1      13.296  -3.501  -0.850  0.00  0.00    +0.067 A 
ATOM     15  C   UNL     1      12.153  -2.728  -0.729  0.00  0.00    +0.041 A 
ATOM     16  N   UNL     1      14.645  -3.214  -0.924  0.00  0.00    -0.344 N 
ATOM     17  H   UNL     1      15.047  -2.332  -0.898  0.00  0.00    +0.167 HD
ATOM     18  C   UNL     1      15.304  -4.398  -1.040  0.00  0.00    +0.197 A 
ATOM     19  N   UNL     1      14.455  -5.385  -1.042  0.00  0.00    -0.236 NA
ENDBRANCH   8  10
BRANCH   1  22
ATOM     20  C   UNL     1       3.551   0.465  -0.615  0.00  0.00    +0.284 C 
ATOM     21  O   UNL     1       4.176   1.361  -1.151  0.00  0.00    -0.266 OA
ATOM     22  N   UNL     1       4.206  -0.564  -0.041  0.00  0.00    -0.279 N 
ATOM     23  H   UNL     1       3.712  -1.244   0.444  0.00  0.00    +0.155 HD
BRANCH  20  26
ATOM     24  C   UNL     1      -0.031   1.117  -0.882  0.00  0.00    +0.042 A 
ATOM     25  C   UNL     1       1.301   1.482  -1.134  0.00  0.00    +0.054 A 
ATOM     26  C   UNL     1       2.086   0.504  -0.593  0.00  0.00    +0.189 A 
ATOM     27  O   UNL     1       1.276  -0.420  -0.035  0.00  0.00    -0.458 OA
ATOM     28  C   UNL     1      -0.001  -0.053  -0.208  0.00  0.00    +0.196 A 
ENDBRANCH  20  26
ENDBRANCH   1  22
TORSDOF 3
