REMARK  Name = ZINC19864202
REMARK  5 active torsions:
REMARK  status: ('A' for Active; 'I' for Inactive)
REMARK    1  A    between atoms: C_3  and  S_21
REMARK    2  A    between atoms: C_6  and  N_7
REMARK    3  A    between atoms: C_8  and  C_10
REMARK    4  A    between atoms: C_16  and  C_18
REMARK    5  A    between atoms: S_21  and  N_24
REMARK                            x       y       z     vdW  Elec       q    Type
REMARK                         _______ _______ _______ _____ _____    ______ ____
ROOT
ATOM      1  C   UNL     1       0.154   1.372   0.602  0.00  0.00    +0.025 A 
ATOM      2  C   UNL     1       0.172  -0.009   0.585  0.00  0.00    +0.031 A 
ATOM      3  C   UNL     1       1.210  -0.680  -0.036  0.00  0.00    +0.113 A 
ATOM      4  C   UNL     1       2.231   0.028  -0.642  0.00  0.00    +0.031 A 
ATOM      5  C   UNL     1       2.218   1.409  -0.628  0.00  0.00    +0.025 A 
ATOM      6  C   UNL     1       1.178   2.086  -0.006  0.00  0.00    +0.034 A 
ENDROOT
BRANCH   6   7
ATOM      7  N   UNL     1       1.162   3.485   0.009  0.00  0.00    -0.285 N 
ATOM      8  C   UNL     1       2.318   4.171   0.104  0.00  0.00    +0.221 C 
ATOM      9  O   UNL     1       3.377   3.580   0.091  0.00  0.00    -0.275 OA
ATOM     10  H   UNL     1       0.206   4.025  -0.056  0.00  0.00    +0.155 HD
BRANCH   8  11
ATOM     11  C   UNL     1       2.295   5.673   0.225  0.00  0.00    +0.089 C 
ATOM     12  C   UNL     1       1.525   6.072   1.486  0.00  0.00    +0.013 C 
ATOM     13  C   UNL     1       2.212   5.471   2.714  0.00  0.00    +0.001 C 
ATOM     14  C   UNL     1       3.646   5.997   2.804  0.00  0.00    +0.001 C 
ATOM     15  C   UNL     1       4.416   5.599   1.544  0.00  0.00    +0.015 C 
ATOM     16  C   UNL     1       3.729   6.200   0.316  0.00  0.00    +0.114 C 
BRANCH  16  17
ATOM     17  C   UNL     1       4.487   5.808  -0.926  0.00  0.00    +0.360 C 
ATOM     18  O   UNL     1       3.937   5.173  -1.795  0.00  0.00    -0.246 OA
ATOM     19  O   UNL     1       5.773   6.164  -1.067  0.00  0.00    -0.246 OA
ENDBRANCH  16  17
ENDBRANCH   8  11
ENDBRANCH   6   7
BRANCH   3  20
ATOM     20  S   UNL     1       1.230  -2.442  -0.055  0.00  0.00    +0.101 S 
ATOM     21  O   UNL     1       2.586  -2.831  -0.224  0.00  0.00    -0.146 OA
ATOM     22  O   UNL     1       0.447  -2.869   1.052  0.00  0.00    -0.146 OA
BRANCH  20  23
ATOM     23  N   UNL     1       0.425  -2.926  -1.419  0.00  0.00    -0.103 NA
ATOM     24  C   UNL     1       0.940  -2.627  -2.670  0.00  0.00    +0.191 A 
ATOM     25  N   UNL     1       0.452  -2.923  -3.860  0.00  0.00    -0.339 N 
ATOM     26  C   UNL     1       1.077  -2.558  -4.964  0.00  0.00    +0.092 A 
ATOM     27  C   UNL     1       2.237  -1.869  -4.852  0.00  0.00    +0.066 A 
ATOM     28  S   UNL     1       2.390  -1.761  -3.075  0.00  0.00    -0.057 S 
ATOM     29  H   UNL     1      -0.491  -3.483  -3.944  0.00  0.00    +0.167 HD
ENDBRANCH  20  23
ENDBRANCH   3  20
TORSDOF 5
