REMARK  Name = ZINC08907283
REMARK  6 active torsions:
REMARK  status: ('A' for Active; 'I' for Inactive)
REMARK    1  A    between atoms: C_1  and  C_2
REMARK    2  A    between atoms: C_2  and  C_4
REMARK    3  A    between atoms: C_2  and  O_16
REMARK    4  A    between atoms: N_6  and  C_7
REMARK    5  A    between atoms: C_9  and  N_13
REMARK    6  A    between atoms: O_16  and  C_17
REMARK                            x       y       z     vdW  Elec       q    Type
REMARK                         _______ _______ _______ _____ _____    ______ ____
ROOT
ATOM      1  C   UNL     1      -4.890  -0.158  -0.083  0.00  0.00    +0.258 C 
ATOM      2  O   UNL     1      -3.834  -0.755  -0.101  0.00  0.00    -0.271 OA
ATOM      3  N   UNL     1      -4.903   1.185   0.029  0.00  0.00    -0.279 N 
ATOM      4  H   UNL     1      -5.745   1.656   0.125  0.00  0.00    +0.155 HD
ENDROOT
BRANCH   3   5
ATOM      5  C   UNL     1      -3.699   1.902   0.006  0.00  0.00    +0.083 A 
ATOM      6  C   UNL     1      -2.583   1.366  -0.620  0.00  0.00    +0.060 A 
ATOM      7  C   UNL     1      -1.396   2.075  -0.641  0.00  0.00    +0.128 A 
ATOM      8  C   UNL     1      -1.317   3.315  -0.036  0.00  0.00    +0.036 A 
ATOM      9  C   UNL     1      -2.426   3.858   0.586  0.00  0.00    +0.055 A 
ATOM     10  C   UNL     1      -3.620   3.154   0.612  0.00  0.00    +0.200 A 
ATOM     11  O   UNL     1      -4.710   3.684   1.226  0.00  0.00    -0.286 OA
BRANCH   7  12
ATOM     12  N   UNL     1      -0.206   1.502  -1.310  0.00  0.00    +0.056 N 
ATOM     13  O   UNL     1      -0.273   0.407  -1.839  0.00  0.00    -0.126 OA
ATOM     14  O   UNL     1       0.839   2.127  -1.334  0.00  0.00    -0.126 OA
ENDBRANCH   7  12
ENDBRANCH   3   5
BRANCH   1  16
ATOM     15  C   UNL     1      -6.896  -0.542  -1.489  0.00  0.00    +0.062 C 
ATOM     16  C   UNL     1      -6.188  -0.917  -0.186  0.00  0.00    +0.256 C 
BRANCH  16  17
ATOM     17  O   UNL     1      -5.919  -2.321  -0.178  0.00  0.00    -0.480 OA
BRANCH  17  18
ATOM     18  C   UNL     1      -6.919  -3.138   0.248  0.00  0.00    +0.122 A 
ATOM     19  C   UNL     1      -8.094  -2.595   0.748  0.00  0.00    +0.047 A 
ATOM     20  C   UNL     1      -9.111  -3.427   1.175  0.00  0.00    +0.018 A 
ATOM     21  C   UNL     1      -8.954  -4.800   1.115  0.00  0.00    +0.014 A 
ATOM     22  C   UNL     1      -7.781  -5.343   0.622  0.00  0.00    +0.018 A 
ATOM     23  C   UNL     1      -6.764  -4.515   0.188  0.00  0.00    +0.047 A 
ATOM     24  I   UNL     1     -10.495  -6.058   1.771  0.00  0.00    -0.044 I 
ENDBRANCH  17  18
ENDBRANCH  16  17
ENDBRANCH   1  16
TORSDOF 5
