REMARK  Name = ZINC64871204
REMARK  5 active torsions:
REMARK  status: ('A' for Active; 'I' for Inactive)
REMARK    1  A    between atoms: C_3  and  C_11
REMARK    2  A    between atoms: C_5  and  C_7
REMARK    3  A    between atoms: C_14  and  C_18
REMARK    4  A    between atoms: N_28  and  C_31
REMARK    5  A    between atoms: C_31  and  C_32
REMARK                            x       y       z     vdW  Elec       q    Type
REMARK                         _______ _______ _______ _____ _____    ______ ____
ROOT
ATOM      1  C   UNL     1       5.016   4.801  -2.118  0.00  0.00    -0.000 A 
ATOM      2  C   UNL     1       5.203   5.661  -1.046  0.00  0.00    +0.008 A 
ATOM      3  C   UNL     1       5.745   6.914  -1.243  0.00  0.00    +0.016 A 
ATOM      4  C   UNL     1       6.105   7.312  -2.528  0.00  0.00    +0.063 A 
ATOM      5  C   UNL     1       5.915   6.439  -3.614  0.00  0.00    +0.056 A 
ATOM      6  C   UNL     1       5.374   5.181  -3.396  0.00  0.00    +0.034 A 
ATOM      7  N   UNL     1       6.284   6.862  -4.883  0.00  0.00    -0.307 N 
ATOM      8  H   UNL     1       6.158   6.271  -5.641  0.00  0.00    +0.170 HD
ATOM      9  C   UNL     1       6.812   8.084  -5.071  0.00  0.00    +0.330 A 
ATOM     10  O   UNL     1       7.121   8.416  -6.199  0.00  0.00    -0.246 OA
ATOM     11  N   UNL     1       7.013   8.952  -4.067  0.00  0.00    -0.256 N 
ATOM     12  C   UNL     1       6.689   8.639  -2.794  0.00  0.00    +0.265 A 
ATOM     13  O   UNL     1       6.874   9.431  -1.891  0.00  0.00    -0.267 OA
ENDROOT
BRANCH   1  16
ATOM     14  C   UNL     1       3.672   2.182  -0.022  0.00  0.00    +0.180 C 
ATOM     15  N   UNL     1       3.495   3.468  -0.731  0.00  0.00    -0.265 NA
ATOM     16  C   UNL     1       4.423   3.436  -1.884  0.00  0.00    +0.242 C 
ATOM     17  O   UNL     1       5.452   2.495  -1.503  0.00  0.00    -0.274 OA
ATOM     18  N   UNL     1       4.704   1.439  -0.783  0.00  0.00    -0.177 NA
ATOM     19  H   UNL     1       2.541   3.583  -1.037  0.00  0.00    +0.127 HD
ATOM     20  H   UNL     1       4.280   0.791  -1.430  0.00  0.00    +0.156 HD
BRANCH  14  23
ATOM     21  C   UNL     1      -0.017   1.378   0.010  0.00  0.00    +0.001 A 
ATOM     22  C   UNL     1       1.171   2.085   0.002  0.00  0.00    +0.006 A 
ATOM     23  C   UNL     1       2.377   1.411  -0.013  0.00  0.00    -0.014 A 
ATOM     24  C   UNL     1       2.396   0.028  -0.020  0.00  0.00    +0.019 A 
ATOM     25  C   UNL     1       1.209  -0.679  -0.012  0.00  0.00    +0.055 A 
ATOM     26  C   UNL     1       0.002  -0.004   0.002  0.00  0.00    +0.012 A 
BRANCH  25  27
ATOM     27  C   UNL     1       1.229  -2.186  -0.020  0.00  0.00    +0.417 C 
ATOM     28  F   UNL     1       1.249  -2.660   1.296  0.00  0.00    -0.166 F 
ATOM     29  F   UNL     1       0.086  -2.664  -0.671  0.00  0.00    -0.166 F 
ATOM     30  F   UNL     1       2.371  -2.633  -0.694  0.00  0.00    -0.166 F 
ENDBRANCH  25  27
ENDBRANCH  14  23
ENDBRANCH   1  16
BRANCH  11  31
ATOM     31  C   UNL     1       7.595  10.265  -4.359  0.00  0.00    +0.165 C 
BRANCH  31  32
ATOM     32  C   UNL     1       6.492  11.247  -4.659  0.00  0.00    -0.027 A 
ATOM     33  C   UNL     1       6.045  11.409  -5.957  0.00  0.00    +0.007 A 
ATOM     34  C   UNL     1       5.034  12.309  -6.233  0.00  0.00    +0.020 A 
ATOM     35  C   UNL     1       4.469  13.050  -5.210  0.00  0.00    +0.041 A 
ATOM     36  C   UNL     1       4.917  12.888  -3.911  0.00  0.00    +0.020 A 
ATOM     37  C   UNL     1       5.925  11.983  -3.635  0.00  0.00    +0.007 A 
ATOM     38 CL   UNL     1       3.200  14.182  -5.556  0.00  0.00    -0.084 Cl
ENDBRANCH  31  32
ENDBRANCH  11  31
TORSDOF 5
