REMARK  Name = ZINC38665621
REMARK  10 active torsions:
REMARK  status: ('A' for Active; 'I' for Inactive)
REMARK    1  A    between atoms: C_1  and  C_2
REMARK    2  A    between atoms: C_2  and  C_3
REMARK    3  A    between atoms: C_2  and  O_4
REMARK    4  A    between atoms: O_4  and  C_5
REMARK    5  A    between atoms: C_10  and  N_11
REMARK    6  A    between atoms: N_11  and  S_12
REMARK    7  A    between atoms: S_12  and  C_15
REMARK    8  A    between atoms: C_17  and  C_23
REMARK    9  A    between atoms: C_18  and  C_19
REMARK   10  A    between atoms: N_21  and  C_22
REMARK                            x       y       z     vdW  Elec       q    Type
REMARK                         _______ _______ _______ _____ _____    ______ ____
ROOT
ATOM      1  C   UNL     1      -1.595  -1.592  -0.768  0.00  0.00    +0.144 A 
ATOM      2  C   UNL     1      -0.549  -2.276  -1.355  0.00  0.00    +0.060 A 
ATOM      3  C   UNL     1      -0.790  -3.493  -1.989  0.00  0.00    +0.037 A 
ATOM      4  C   UNL     1      -2.087  -4.027  -2.034  0.00  0.00    +0.138 A 
ATOM      5  C   UNL     1      -3.131  -3.328  -1.441  0.00  0.00    +0.075 A 
ATOM      6  C   UNL     1      -2.886  -2.123  -0.807  0.00  0.00    +0.093 A 
ATOM      7  O   UNL     1      -2.034  -5.200  -2.701  0.00  0.00    -0.454 OA
ATOM      8  C   UNL     1      -0.784  -5.481  -3.102  0.00  0.00    +0.148 A 
ATOM      9  C   UNL     1       0.066  -4.464  -2.699  0.00  0.00    +0.090 A 
ENDROOT
BRANCH   8  10
ATOM     10  C   UNL     1      -0.379  -6.683  -3.854  0.00  0.00    +0.018 A 
ATOM     11  C   UNL     1       0.959  -6.869  -4.212  0.00  0.00    +0.014 A 
ATOM     12  C   UNL     1       1.331  -7.995  -4.914  0.00  0.00    +0.039 A 
ATOM     13  C   UNL     1       0.382  -8.942  -5.266  0.00  0.00    +0.123 A 
ATOM     14  C   UNL     1      -0.947  -8.763  -4.914  0.00  0.00    +0.039 A 
ATOM     15  C   UNL     1      -1.331  -7.644  -4.207  0.00  0.00    +0.014 A 
ATOM     16  F   UNL     1       0.752 -10.043  -5.955  0.00  0.00    -0.205 F 
ENDBRANCH   8  10
BRANCH   9  17
ATOM     17  C   UNL     1       1.512  -4.371  -2.929  0.00  0.00    +0.248 C 
ATOM     18  O   UNL     1       2.288  -4.839  -2.118  0.00  0.00    -0.270 OA
ATOM     19  N   UNL     1       1.980  -3.767  -4.039  0.00  0.00    -0.314 N 
ATOM     20  C   UNL     1       3.424  -3.674  -4.269  0.00  0.00    +0.128 C 
ATOM     21  H   UNL     1       1.361  -3.393  -4.686  0.00  0.00    +0.149 HD
ENDBRANCH   9  17
BRANCH   6  22
ATOM     22  N   UNL     1      -3.941  -1.427  -0.206  0.00  0.00    -0.217 N 
ATOM     23  H   UNL     1      -3.955  -0.457  -0.223  0.00  0.00    +0.173 HD
BRANCH  22  24
ATOM     24  S   UNL     1      -5.166  -2.260   0.536  0.00  0.00    +0.040 S 
ATOM     25  O   UNL     1      -5.994  -1.255   1.106  0.00  0.00    -0.155 OA
ATOM     26  O   UNL     1      -5.670  -3.131  -0.467  0.00  0.00    -0.155 OA
ATOM     27  C   UNL     1      -4.353  -3.217   1.845  0.00  0.00    +0.218 C 
ENDBRANCH  22  24
ENDBRANCH   6  22
BRANCH   1  28
ATOM     28  O   UNL     1      -1.366  -0.403  -0.147  0.00  0.00    -0.487 OA
BRANCH  28  30
ATOM     29  C   UNL     1      -0.101   1.654  -0.072  0.00  0.00    +0.051 C 
ATOM     30  C   UNL     1      -0.046   0.135  -0.242  0.00  0.00    +0.167 C 
ATOM     31  C   UNL     1       0.831  -0.470   0.856  0.00  0.00    +0.051 C 
ENDBRANCH  28  30
ENDBRANCH   1  28
TORSDOF 6
