REMARK  Name = ZINC02660926
REMARK  12 active torsions:
REMARK  status: ('A' for Active; 'I' for Inactive)
REMARK    1  A    between atoms: C_1  and  C_2
REMARK    2  A    between atoms: C_2  and  C_3
REMARK    3  A    between atoms: C_3  and  C_4
REMARK    4  A    between atoms: C_4  and  N_5
REMARK    5  A    between atoms: N_5  and  C_6
REMARK    6  A    between atoms: C_7  and  N_18
REMARK    7  A    between atoms: N_8  and  C_15
REMARK    8  A    between atoms: C_15  and  C_16
REMARK    9  A    between atoms: C_16  and  C_17
REMARK   10  A    between atoms: C_19  and  C_21
REMARK   11  A    between atoms: C_25  and  S_27
REMARK   12  A    between atoms: S_27  and  N_30
REMARK                            x       y       z     vdW  Elec       q    Type
REMARK                         _______ _______ _______ _____ _____    ______ ____
ROOT
ATOM      1  N   UNL     1      -2.611  -1.620  -0.014  0.00  0.00    -0.260 N 
ATOM      2  C   UNL     1      -3.054  -2.159   1.139  0.00  0.00    +0.251 C 
ATOM      3  O   UNL     1      -2.409  -2.021   2.162  0.00  0.00    -0.270 OA
ENDROOT
BRANCH   1   4
ATOM      4  C   UNL     1      -3.393  -1.718  -1.184  0.00  0.00    +0.140 A 
ATOM      5  C   UNL     1      -4.651  -1.153  -1.237  0.00  0.00    +0.127 A 
ATOM      6  N   UNL     1      -5.389  -1.265  -2.392  0.00  0.00    -0.280 N 
ATOM      7  C   UNL     1      -4.891  -1.919  -3.457  0.00  0.00    +0.331 A 
ATOM      8  O   UNL     1      -5.560  -2.007  -4.469  0.00  0.00    -0.246 OA
ATOM      9  N   UNL     1      -3.668  -2.475  -3.424  0.00  0.00    -0.273 N 
ATOM     10  H   UNL     1      -3.331  -2.941  -4.206  0.00  0.00    +0.173 HD
ATOM     11  C   UNL     1      -2.901  -2.389  -2.319  0.00  0.00    +0.277 A 
ATOM     12  O   UNL     1      -1.791  -2.894  -2.301  0.00  0.00    -0.266 OA
BRANCH   5  13
ATOM     13  N   UNL     1      -5.160  -0.485  -0.148  0.00  0.00    -0.343 N 
ATOM     14  H   UNL     1      -4.666  -0.472   0.687  0.00  0.00    +0.144 HD
ATOM     15  H   UNL     1      -6.012  -0.028  -0.215  0.00  0.00    +0.144 HD
ENDBRANCH   5  13
BRANCH   6  16
ATOM     16  C   UNL     1      -6.726  -0.670  -2.462  0.00  0.00    +0.128 C 
BRANCH  16  17
ATOM     17  C   UNL     1      -6.618   0.768  -2.973  0.00  0.00    +0.018 C 
ATOM     18  C   UNL     1      -8.014   1.389  -3.046  0.00  0.00    +0.005 C 
ENDBRANCH  16  17
ENDBRANCH   6  16
ENDBRANCH   1   4
BRANCH   2  19
ATOM     19  C   UNL     1      -4.322  -2.917   1.162  0.00  0.00    +0.039 A 
ATOM     20  C   UNL     1      -4.814  -3.495  -0.010  0.00  0.00    +0.014 A 
ATOM     21  C   UNL     1      -5.998  -4.201   0.018  0.00  0.00    +0.023 A 
ATOM     22  C   UNL     1      -6.699  -4.337   1.205  0.00  0.00    +0.067 A 
ATOM     23  C   UNL     1      -6.216  -3.766   2.370  0.00  0.00    +0.124 A 
ATOM     24  C   UNL     1      -5.030  -3.063   2.357  0.00  0.00    +0.043 A 
ATOM     25 CL   UNL     1      -8.190  -5.227   1.231  0.00  0.00    -0.082 Cl
BRANCH  23  26
ATOM     26  S   UNL     1      -7.115  -3.945   3.875  0.00  0.00    +0.062 S 
ATOM     27  O   UNL     1      -7.483  -5.314   3.968  0.00  0.00    -0.153 OA
ATOM     28  O   UNL     1      -6.356  -3.289   4.882  0.00  0.00    -0.153 OA
BRANCH  26  29
ATOM     29  N   UNL     1      -8.522  -3.087   3.709  0.00  0.00    -0.172 NA
ATOM     30  C   UNL     1      -8.553  -1.632   3.930  0.00  0.00    +0.137 C 
ATOM     31  C   UNL     1      -9.236  -0.975   2.725  0.00  0.00    +0.177 C 
ATOM     32  O   UNL     1     -10.496  -1.609   2.495  0.00  0.00    -0.377 OA
ATOM     33  C   UNL     1     -10.402  -2.996   2.161  0.00  0.00    +0.177 C 
ATOM     34  C   UNL     1      -9.777  -3.756   3.332  0.00  0.00    +0.137 C 
ENDBRANCH  26  29
ENDBRANCH  23  26
ENDBRANCH   2  19
BRANCH   1  35
ATOM     35  C   UNL     1      -1.318  -0.933  -0.053  0.00  0.00    +0.114 C 
BRANCH  35  36
ATOM     36  C   UNL     1      -1.532   0.569   0.148  0.00  0.00    +0.019 C 
BRANCH  36  38
ATOM     37  C   UNL     1      -0.396   2.788   0.308  0.00  0.00    +0.004 C 
ATOM     38  C   UNL     1      -0.182   1.287   0.107  0.00  0.00    -0.002 C 
ENDBRANCH  36  38
ENDBRANCH  35  36
ENDBRANCH   1  35
TORSDOF 10
