REMARK  Name = ZINC18254296
REMARK  6 active torsions:
REMARK  status: ('A' for Active; 'I' for Inactive)
REMARK    1  A    between atoms: C_3  and  C_6
REMARK    2  A    between atoms: C_6  and  N_7
REMARK    3  A    between atoms: N_7  and  C_18
REMARK    4  A    between atoms: C_8  and  C_10
REMARK    5  A    between atoms: C_18  and  C_24
REMARK    6  A    between atoms: N_26  and  C_27
REMARK                            x       y       z     vdW  Elec       q    Type
REMARK                         _______ _______ _______ _____ _____    ______ ____
ROOT
ATOM      1  N   UNL     1       4.019   0.656   0.588  0.00  0.00    -0.276 N 
ATOM      2  C   UNL     1       2.859   1.150   0.110  0.00  0.00    +0.249 C 
ATOM      3  O   UNL     1       1.942   0.397  -0.156  0.00  0.00    -0.270 OA
ENDROOT
BRANCH   2   4
ATOM      4  C   UNL     1       2.702   2.602  -0.089  0.00  0.00    +0.053 A 
ATOM      5  C   UNL     1       3.513   3.513   0.631  0.00  0.00    +0.020 A 
ATOM      6  C   UNL     1       3.347   4.847   0.427  0.00  0.00    +0.071 A 
ATOM      7  C   UNL     1       2.378   5.293  -0.491  0.00  0.00    +0.249 A 
ATOM      8  O   UNL     1       2.225   6.488  -0.677  0.00  0.00    -0.268 OA
ATOM      9  N   UNL     1       1.618   4.410  -1.165  0.00  0.00    -0.328 N 
ATOM     10  H   UNL     1       0.955   4.733  -1.794  0.00  0.00    +0.168 HD
ATOM     11  C   UNL     1       1.768   3.085  -0.983  0.00  0.00    +0.099 A 
ENDBRANCH   2   4
BRANCH   1  12
ATOM     12  C   UNL     1       4.910   1.512   1.375  0.00  0.00    +0.114 C 
ATOM     13  C   UNL     1       4.123   2.148   2.522  0.00  0.00    +0.035 C 
ATOM     14  C   UNL     1       3.549   1.049   3.418  0.00  0.00    +0.003 C 
ATOM     15  C   UNL     1       4.692   0.207   3.989  0.00  0.00    +0.000 C 
ATOM     16  C   UNL     1       5.478  -0.429   2.841  0.00  0.00    +0.003 C 
ATOM     17  C   UNL     1       6.053   0.670   1.945  0.00  0.00    +0.035 C 
BRANCH  12  18
ATOM     18  C   UNL     1       5.476   2.594   0.492  0.00  0.00    +0.237 C 
ATOM     19  O   UNL     1       6.492   3.172   0.817  0.00  0.00    -0.273 OA
ATOM     20  N   UNL     1       4.853   2.921  -0.657  0.00  0.00    -0.311 N 
ATOM     21  H   UNL     1       3.967   2.574  -0.844  0.00  0.00    +0.149 HD
BRANCH  20  22
ATOM     22  C   UNL     1       5.514   3.801  -1.624  0.00  0.00    +0.073 C 
ATOM     23  C   UNL     1       6.428   2.971  -2.527  0.00  0.00    +0.022 C 
ATOM     24  C   UNL     1       7.119   3.889  -3.537  0.00  0.00    +0.002 C 
ATOM     25  C   UNL     1       6.062   4.594  -4.391  0.00  0.00    +0.000 C 
ATOM     26  C   UNL     1       5.148   5.425  -3.488  0.00  0.00    +0.002 C 
ATOM     27  C   UNL     1       4.457   4.506  -2.478  0.00  0.00    +0.022 C 
ENDBRANCH  20  22
ENDBRANCH  12  18
ENDBRANCH   1  12
BRANCH   1  28
ATOM     28  C   UNL     1       4.388  -0.736   0.319  0.00  0.00    +0.183 C 
BRANCH  28  31
ATOM     29  C   UNL     1       6.667  -0.790  -2.577  0.00  0.00    +0.041 A 
ATOM     30  C   UNL     1       6.423  -0.610  -1.196  0.00  0.00    +0.046 A 
ATOM     31  C   UNL     1       5.108  -0.819  -1.002  0.00  0.00    +0.122 A 
ATOM     32  O   UNL     1       4.546  -1.113  -2.186  0.00  0.00    -0.466 OA
ATOM     33  C   UNL     1       5.487  -1.097  -3.144  0.00  0.00    +0.195 A 
ENDBRANCH  28  31
ENDBRANCH   1  28
TORSDOF 6
