REMARK  Name = ZINC38563236
REMARK  8 active torsions:
REMARK  status: ('A' for Active; 'I' for Inactive)
REMARK    1  A    between atoms: C_3  and  C_6
REMARK    2  A    between atoms: C_6  and  C_8
REMARK    3  A    between atoms: C_6  and  S_25
REMARK    4  A    between atoms: C_8  and  N_9
REMARK    5  A    between atoms: C_10  and  C_12
REMARK    6  A    between atoms: N_14  and  C_15
REMARK    7  A    between atoms: C_19  and  N_21
REMARK    8  A    between atoms: S_25  and  C_28
REMARK                            x       y       z     vdW  Elec       q    Type
REMARK                         _______ _______ _______ _____ _____    ______ ____
ROOT
ATOM      1  N   UNL     1       5.874   1.832   1.207  0.00  0.00    -0.305 N 
ATOM      2  C   UNL     1       6.715   1.507   2.209  0.00  0.00    +0.299 C 
ATOM      3  O   UNL     1       6.328   0.810   3.124  0.00  0.00    -0.265 OA
ATOM      4  H   UNL     1       6.183   2.389   0.476  0.00  0.00    +0.149 HD
ENDROOT
BRANCH   2   5
ATOM      5  C   UNL     1       8.123   2.005   2.193  0.00  0.00    +0.303 C 
ATOM      6  O   UNL     1       8.509   2.703   1.278  0.00  0.00    -0.265 OA
ATOM      7  N   UNL     1       8.963   1.681   3.195  0.00  0.00    -0.278 N 
ATOM      8  H   UNL     1       8.637   1.180   3.959  0.00  0.00    +0.155 HD
BRANCH   7   9
ATOM      9  C   UNL     1      10.306   2.065   3.133  0.00  0.00    +0.036 A 
ATOM     10  C   UNL     1      11.293   1.232   3.645  0.00  0.00    +0.026 A 
ATOM     11  C   UNL     1      12.618   1.613   3.583  0.00  0.00    +0.042 A 
ATOM     12  C   UNL     1      12.964   2.826   3.010  0.00  0.00    +0.154 A 
ATOM     13  C   UNL     1      11.983   3.659   2.500  0.00  0.00    +0.163 A 
ATOM     14  C   UNL     1      10.656   3.278   2.555  0.00  0.00    +0.059 A 
ATOM     15  F   UNL     1      14.262   3.198   2.950  0.00  0.00    -0.203 F 
BRANCH  13  16
ATOM     16  N   UNL     1      12.356   4.955   1.890  0.00  0.00    +0.059 N 
ATOM     17  O   UNL     1      11.499   5.682   1.444  0.00  0.00    -0.126 OA
ATOM     18  O   UNL     1      13.517   5.286   1.837  0.00  0.00    -0.126 OA
ENDBRANCH  13  16
ENDBRANCH   7   9
ENDBRANCH   2   5
BRANCH   1  19
ATOM     19  C   UNL     1       4.493   1.343   1.222  0.00  0.00    +0.136 C 
BRANCH  19  20
ATOM     20  C   UNL     1       3.758   1.852  -0.019  0.00  0.00    +0.189 C 
BRANCH  20  23
ATOM     21  C   UNL     1      -0.021   1.377   0.021  0.00  0.00    +0.008 A 
ATOM     22  C   UNL     1       1.181   2.057   0.008  0.00  0.00    +0.013 A 
ATOM     23  C   UNL     1       2.337   1.349  -0.004  0.00  0.00    +0.016 A 
ATOM     24  S   UNL     1       1.740  -0.333   0.003  0.00  0.00    -0.100 S 
ATOM     25  C   UNL     1      -0.010   0.021   0.022  0.00  0.00    +0.045 A 
ENDBRANCH  20  23
BRANCH  20  26
ATOM     26  S   UNL     1       4.597   1.247  -1.509  0.00  0.00    +0.006 S 
ATOM     27  O   UNL     1       5.876   1.854  -1.631  0.00  0.00    -0.169 OA
ATOM     28  O   UNL     1       4.451  -0.163  -1.615  0.00  0.00    -0.169 OA
BRANCH  26  29
ATOM     29  C   UNL     1       3.660   1.897  -2.853  0.00  0.00    +0.089 A 
ATOM     30  C   UNL     1       2.599   1.177  -3.367  0.00  0.00    +0.028 A 
ATOM     31  C   UNL     1       1.864   1.687  -4.421  0.00  0.00    +0.022 A 
ATOM     32  C   UNL     1       2.191   2.918  -4.960  0.00  0.00    +0.041 A 
ATOM     33  C   UNL     1       3.253   3.639  -4.445  0.00  0.00    +0.022 A 
ATOM     34  C   UNL     1       3.984   3.130  -3.387  0.00  0.00    +0.028 A 
ATOM     35 CL   UNL     1       1.268   3.559  -6.284  0.00  0.00    -0.084 Cl
ENDBRANCH  26  29
ENDBRANCH  20  26
ENDBRANCH  19  20
ENDBRANCH   1  19
TORSDOF 8
