REMARK  Name = ZINC39688042
REMARK  6 active torsions:
REMARK  status: ('A' for Active; 'I' for Inactive)
REMARK    1  A    between atoms: C_1  and  C_2
REMARK    2  A    between atoms: C_7  and  N_10
REMARK    3  A    between atoms: C_11  and  C_13
REMARK    4  A    between atoms: C_24  and  C_26
REMARK    5  A    between atoms: C_30  and  O_31
REMARK    6  A    between atoms: O_31  and  C_32
REMARK                            x       y       z     vdW  Elec       q    Type
REMARK                         _______ _______ _______ _____ _____    ______ ____
ROOT
ATOM      1  C   UNL     1      -2.893  -4.536  -5.508  0.00  0.00    +0.100 C 
ATOM      2  C   UNL     1      -4.165  -4.743  -4.656  0.00  0.00    +0.121 C 
ATOM      3  N   UNL     1      -4.730  -6.027  -5.132  0.00  0.00    -0.296 N 
ATOM      4  C   UNL     1      -3.546  -6.891  -5.354  0.00  0.00    +0.115 C 
ATOM      5  C   UNL     1      -2.489  -5.949  -5.964  0.00  0.00    -0.004 C 
ATOM      6  C   UNL     1      -1.102  -6.299  -5.434  0.00  0.00    -0.010 C 
ATOM      7  C   UNL     1      -0.699  -7.684  -5.948  0.00  0.00    -0.082 C 
ATOM      8  N   UNL     1      -0.697  -7.681  -7.416  0.00  0.00    +0.379 N 
ATOM      9  C   UNL     1      -2.054  -7.436  -7.918  0.00  0.00    -0.082 C 
ATOM     10  C   UNL     1      -2.515  -6.040  -7.487  0.00  0.00    -0.010 C 
ATOM     11  C   UNL     1      -6.027  -6.339  -5.321  0.00  0.00    +0.251 C 
ATOM     12  O   UNL     1      -6.895  -5.542  -5.018  0.00  0.00    -0.270 OA
ATOM     13  H   UNL     1      -0.080  -6.956  -7.749  0.00  0.00    -0.086 HD
ATOM     14  H   UNL     1      -0.372  -8.576  -7.752  0.00  0.00    -0.086 HD
ENDROOT
BRANCH  11  15
ATOM     15  C   UNL     1      -6.394  -7.643  -5.893  0.00  0.00    +0.087 A 
ATOM     16  C   UNL     1      -5.673  -8.783  -5.611  0.00  0.00    +0.063 A 
ATOM     17  S   UNL     1      -6.456  -9.991  -6.473  0.00  0.00    -0.081 S 
ATOM     18  C   UNL     1      -7.756  -9.043  -7.232  0.00  0.00    +0.120 A 
ATOM     19  C   UNL     1      -7.532  -7.791  -6.772  0.00  0.00    +0.158 A 
ATOM     20 CL   UNL     1      -9.010  -9.591  -8.300  0.00  0.00    -0.072 Cl
BRANCH  19  21
ATOM     21  O   UNL     1      -8.323  -6.738  -7.118  0.00  0.00    -0.492 OA
ATOM     22  C   UNL     1      -7.953  -6.005  -8.287  0.00  0.00    +0.277 C 
ENDBRANCH  19  21
ENDBRANCH  11  15
BRANCH   1  24
ATOM     23  N   UNL     1      -0.883  -3.116  -5.253  0.00  0.00    -0.312 N 
ATOM     24  C   UNL     1      -1.797  -3.921  -4.676  0.00  0.00    +0.218 C 
ATOM     25  O   UNL     1      -1.738  -4.150  -3.486  0.00  0.00    -0.275 OA
ATOM     26  H   UNL     1      -0.931  -2.933  -6.205  0.00  0.00    +0.149 HD
BRANCH  23  33
ATOM     27  C   UNL     1       2.117   1.892  -2.957  0.00  0.00    +0.109 C 
ATOM     28  C   UNL     1       2.591   0.749  -3.817  0.00  0.00    +0.212 C 
ATOM     29  O   UNL     1       3.524   0.908  -4.576  0.00  0.00    -0.276 OA
ATOM     30  N   UNL     1       1.979  -0.449  -3.744  0.00  0.00    -0.302 N 
ATOM     31  C   UNL     1       2.506  -1.605  -4.482  0.00  0.00    +0.109 C 
ATOM     32  C   UNL     1       1.382  -2.199  -5.337  0.00  0.00    +0.041 C 
ATOM     33  C   UNL     1       0.181  -2.518  -4.444  0.00  0.00    +0.076 C 
ATOM     34  C   UNL     1      -0.333  -1.229  -3.798  0.00  0.00    +0.041 C 
ATOM     35  C   UNL     1       0.775  -0.626  -2.921  0.00  0.00    +0.109 C 
ENDBRANCH  23  33
ENDBRANCH   1  24
TORSDOF 4
