REMARK  Name = ZINC02962749
REMARK  7 active torsions:
REMARK  status: ('A' for Active; 'I' for Inactive)
REMARK    1  A    between atoms: C_1  and  C_2
REMARK    2  A    between atoms: C_2  and  O_3
REMARK    3  A    between atoms: O_3  and  C_4
REMARK    4  A    between atoms: C_11  and  C_37
REMARK    5  A    between atoms: C_12  and  C_27
REMARK    6  A    between atoms: N_19  and  C_20
REMARK    7  A    between atoms: N_29  and  C_30
REMARK                            x       y       z     vdW  Elec       q    Type
REMARK                         _______ _______ _______ _____ _____    ______ ____
ROOT
ATOM      1  C   UNL     1       1.252  -0.353   3.036  0.00  0.00    +0.162 A 
ATOM      2  C   UNL     1       2.283   0.150   3.811  0.00  0.00    +0.049 A 
ATOM      3  C   UNL     1       3.006   1.244   3.373  0.00  0.00    +0.004 A 
ATOM      4  C   UNL     1       2.703   1.831   2.160  0.00  0.00    +0.009 A 
ATOM      5  C   UNL     1       1.675   1.330   1.380  0.00  0.00    +0.019 A 
ATOM      6  C   UNL     1       0.942   0.241   1.812  0.00  0.00    +0.170 A 
ATOM      7  O   UNL     1      -0.087  -0.268   1.085  0.00  0.00    -0.463 OA
ATOM      8  C   UNL     1      -0.255   0.164  -0.262  0.00  0.00    +0.194 C 
ATOM      9  C   UNL     1      -0.089   1.690  -0.314  0.00  0.00    +0.163 C 
ATOM     10  C   UNL     1       1.373   1.992   0.054  0.00  0.00    +0.123 C 
ATOM     11  N   UNL     1       2.227   1.353  -0.961  0.00  0.00    -0.318 N 
ATOM     12  C   UNL     1       1.879   0.158  -1.468  0.00  0.00    +0.141 C 
ATOM     13  S   UNL     1       2.935  -0.604  -2.580  0.00  0.00    -0.018 S 
ATOM     14  N   UNL     1       0.736  -0.459  -1.136  0.00  0.00    -0.243 N 
ATOM     15  C   UNL     1      -1.660  -0.211  -0.738  0.00  0.00    +0.079 C 
ATOM     16  H   UNL     1       3.146   1.853  -1.301  0.00  0.00    +0.148 HD
ENDROOT
BRANCH  14  17
ATOM     17  C   UNL     1       0.484  -1.740  -1.641  0.00  0.00    +0.039 A 
ATOM     18  C   UNL     1       0.566  -2.846  -0.806  0.00  0.00    +0.026 A 
ATOM     19  C   UNL     1       0.311  -4.108  -1.305  0.00  0.00    +0.040 A 
ATOM     20  C   UNL     1      -0.015  -4.272  -2.641  0.00  0.00    +0.124 A 
ATOM     21  C   UNL     1      -0.091  -3.171  -3.478  0.00  0.00    +0.040 A 
ATOM     22  C   UNL     1       0.157  -1.907  -2.981  0.00  0.00    +0.026 A 
ATOM     23  F   UNL     1      -0.258  -5.508  -3.129  0.00  0.00    -0.205 F 
ENDBRANCH  14  17
BRANCH   9  24
ATOM     24  C   UNL     1      -1.015   2.342   0.681  0.00  0.00    +0.228 C 
ATOM     25  O   UNL     1      -1.743   1.659   1.370  0.00  0.00    -0.275 OA
ATOM     26  N   UNL     1      -1.035   3.684   0.804  0.00  0.00    -0.285 N 
ATOM     27  H   UNL     1      -0.437   4.308   0.122  0.00  0.00    +0.155 HD
BRANCH  26  28
ATOM     28  C   UNL     1      -1.816   4.284   1.798  0.00  0.00    +0.033 A 
ATOM     29  C   UNL     1      -3.040   3.732   2.149  0.00  0.00    +0.025 A 
ATOM     30  C   UNL     1      -3.807   4.324   3.134  0.00  0.00    +0.022 A 
ATOM     31  C   UNL     1      -3.360   5.472   3.763  0.00  0.00    +0.041 A 
ATOM     32  C   UNL     1      -2.142   6.027   3.412  0.00  0.00    +0.022 A 
ATOM     33  C   UNL     1      -1.369   5.437   2.432  0.00  0.00    +0.025 A 
ATOM     34 CL   UNL     1      -4.329   6.218   4.996  0.00  0.00    -0.084 Cl
ENDBRANCH  26  28
ENDBRANCH   9  24
BRANCH   1  35
ATOM     35  O   UNL     1       0.542  -1.429   3.468  0.00  0.00    -0.489 OA
BRANCH  35  37
ATOM     36  C   UNL     1       0.009  -3.181   5.045  0.00  0.00    +0.048 C 
ATOM     37  C   UNL     1       0.913  -1.988   4.729  0.00  0.00    +0.226 C 
ENDBRANCH  35  37
ENDBRANCH   1  35
TORSDOF 5
