REMARK  Name = ZINC11665632
REMARK  9 active torsions:
REMARK  status: ('A' for Active; 'I' for Inactive)
REMARK    1  A    between atoms: C_1  and  C_2
REMARK    2  A    between atoms: C_2  and  O_3
REMARK    3  A    between atoms: O_3  and  C_4
REMARK    4  A    between atoms: C_7  and  C_10
REMARK    5  A    between atoms: N_15  and  C_18
REMARK    6  A    between atoms: C_18  and  C_19
REMARK    7  A    between atoms: C_19  and  C_20
REMARK    8  A    between atoms: C_23  and  O_26
REMARK    9  A    between atoms: O_26  and  C_27
REMARK                            x       y       z     vdW  Elec       q    Type
REMARK                         _______ _______ _______ _____ _____    ______ ____
ROOT
ATOM      1  C   UNL     1      -0.077   3.731   0.022  0.00  0.00    +0.142 C 
ATOM      2  C   UNL     1       1.236   2.975   0.006  0.00  0.00    +0.058 C 
ATOM      3  C   UNL     1       1.184   1.628  -0.001  0.00  0.00    +0.039 C 
ATOM      4  C   UNL     1       2.617   1.146  -0.016  0.00  0.00    +0.159 C 
ATOM      5  N   UNL     1       3.428   2.373  -0.017  0.00  0.00    -0.292 N 
ATOM      6  C   UNL     1       2.576   3.414  -0.004  0.00  0.00    +0.247 C 
ATOM      7  O   UNL     1       2.917   4.582  -0.001  0.00  0.00    -0.270 OA
ATOM      8  N   UNL     1      -0.011   0.966   0.007  0.00  0.00    -0.271 N 
ATOM      9  C   UNL     1      -1.200   1.583   0.017  0.00  0.00    +0.304 C 
ATOM     10  O   UNL     1      -2.212   0.910   0.018  0.00  0.00    -0.252 OA
ATOM     11  N   UNL     1      -1.310   2.926   0.029  0.00  0.00    -0.288 N 
ATOM     12  H   UNL     1       0.002  -0.004   0.002  0.00  0.00    +0.156 HD
ATOM     13  H   UNL     1      -2.181   3.352   0.039  0.00  0.00    +0.151 HD
ENDROOT
BRANCH   1  17
ATOM     14  C   UNL     1      -0.180   6.266  -3.417  0.00  0.00    +0.121 A 
ATOM     15  C   UNL     1       0.155   6.790  -2.177  0.00  0.00    +0.046 A 
ATOM     16  C   UNL     1       0.188   5.969  -1.067  0.00  0.00    +0.009 A 
ATOM     17  C   UNL     1      -0.114   4.625  -1.190  0.00  0.00    -0.022 A 
ATOM     18  C   UNL     1      -0.443   4.099  -2.426  0.00  0.00    +0.009 A 
ATOM     19  C   UNL     1      -0.482   4.917  -3.538  0.00  0.00    +0.046 A 
BRANCH  14  20
ATOM     20  O   UNL     1      -0.212   7.071  -4.511  0.00  0.00    -0.492 OA
BRANCH  20  22
ATOM     21  C   UNL     1      -0.548   7.519  -6.862  0.00  0.00    +0.048 C 
ATOM     22  C   UNL     1      -0.566   6.463  -5.755  0.00  0.00    +0.225 C 
ENDBRANCH  20  22
ENDBRANCH  14  20
ENDBRANCH   1  17
BRANCH   5  23
ATOM     23  C   UNL     1       4.891   2.447  -0.031  0.00  0.00    +0.113 C 
BRANCH  23  24
ATOM     24  C   UNL     1       5.387   2.481  -1.478  0.00  0.00    +0.054 C 
BRANCH  24  25
ATOM     25  C   UNL     1       6.892   2.558  -1.492  0.00  0.00    -0.046 A 
ATOM     26  C   UNL     1       7.520   3.789  -1.496  0.00  0.00    +0.007 A 
ATOM     27  C   UNL     1       8.899   3.862  -1.504  0.00  0.00    +0.046 A 
ATOM     28  C   UNL     1       9.654   2.698  -1.517  0.00  0.00    +0.120 A 
ATOM     29  C   UNL     1       9.021   1.464  -1.518  0.00  0.00    +0.046 A 
ATOM     30  C   UNL     1       7.642   1.396  -1.505  0.00  0.00    +0.007 A 
BRANCH  28  31
ATOM     31  O   UNL     1      11.011   2.767  -1.529  0.00  0.00    -0.495 OA
ATOM     32  C   UNL     1      11.595   4.072  -1.528  0.00  0.00    +0.277 C 
ENDBRANCH  28  31
ENDBRANCH  24  25
ENDBRANCH  23  24
ENDBRANCH   5  23
TORSDOF 7
