REMARK  Name = ZINC15564802
REMARK  7 active torsions:
REMARK  status: ('A' for Active; 'I' for Inactive)
REMARK    1  A    between atoms: C_1  and  C_2
REMARK    2  A    between atoms: C_6  and  N_9
REMARK    3  A    between atoms: C_7  and  C_8
REMARK    4  A    between atoms: N_9  and  S_10
REMARK    5  A    between atoms: S_10  and  C_13
REMARK    6  A    between atoms: C_16  and  C_19
REMARK    7  A    between atoms: N_21  and  C_22
REMARK                            x       y       z     vdW  Elec       q    Type
REMARK                         _______ _______ _______ _____ _____    ______ ____
ROOT
ATOM      1  C   UNL     1      -0.022   4.563   0.249  0.00  0.00    +0.109 A 
ATOM      2  C   UNL     1       1.234   3.985   0.213  0.00  0.00    +0.029 A 
ATOM      3  C   UNL     1       1.367   2.612   0.259  0.00  0.00    +0.015 A 
ATOM      4  C   UNL     1       0.230   1.807   0.341  0.00  0.00    +0.037 A 
ATOM      5  C   UNL     1      -1.035   2.397   0.371  0.00  0.00    +0.015 A 
ATOM      6  C   UNL     1      -1.153   3.770   0.330  0.00  0.00    +0.029 A 
ENDROOT
BRANCH   4   7
ATOM      7  C   UNL     1       0.364   0.336   0.391  0.00  0.00    +0.248 C 
ATOM      8  O   UNL     1       1.467  -0.175   0.360  0.00  0.00    -0.270 OA
ATOM      9  N   UNL     1      -0.736  -0.439   0.470  0.00  0.00    -0.281 N 
ATOM     10  H   UNL     1      -1.610  -0.032   0.573  0.00  0.00    +0.155 HD
BRANCH   9  11
ATOM     11  C   UNL     1      -0.616  -1.833   0.406  0.00  0.00    +0.036 A 
ATOM     12  C   UNL     1      -1.549  -2.640   1.048  0.00  0.00    +0.025 A 
ATOM     13  C   UNL     1      -1.437  -4.014   0.987  0.00  0.00    +0.029 A 
ATOM     14  C   UNL     1      -0.392  -4.593   0.283  0.00  0.00    +0.067 A 
ATOM     15  C   UNL     1       0.547  -3.785  -0.363  0.00  0.00    +0.069 A 
ATOM     16  C   UNL     1       0.429  -2.406  -0.304  0.00  0.00    +0.051 A 
ATOM     17  N   UNL     1       1.461  -4.640  -0.974  0.00  0.00    -0.306 N 
ATOM     18  H   UNL     1       2.229  -4.367  -1.499  0.00  0.00    +0.170 HD
ATOM     19  C   UNL     1       1.096  -5.910  -0.713  0.00  0.00    +0.325 A 
ATOM     20  O   UNL     1       1.684  -6.902  -1.101  0.00  0.00    -0.247 OA
ATOM     21  N   UNL     1      -0.017  -5.915   0.044  0.00  0.00    -0.306 N 
ATOM     22  H   UNL     1      -0.480  -6.704   0.367  0.00  0.00    +0.170 HD
ENDBRANCH   9  11
ENDBRANCH   4   7
BRANCH   1  23
ATOM     23  S   UNL     1      -0.182   6.317   0.190  0.00  0.00    +0.072 S 
ATOM     24  O   UNL     1      -1.433   6.630   0.787  0.00  0.00    -0.150 OA
ATOM     25  O   UNL     1       1.045   6.853   0.666  0.00  0.00    -0.150 OA
BRANCH  23  26
ATOM     26  N   UNL     1      -0.299   6.745  -1.405  0.00  0.00    -0.216 N 
ATOM     27  H   UNL     1       0.358   7.341  -1.797  0.00  0.00    +0.174 HD
BRANCH  26  33
ATOM     28  C   UNL     1      -1.929   5.110  -5.744  0.00  0.00    +0.044 C 
ATOM     29  C   UNL     1      -2.164   5.447  -4.294  0.00  0.00    -0.046 A 
ATOM     30  C   UNL     1      -3.416   5.265  -3.736  0.00  0.00    +0.004 A 
ATOM     31  C   UNL     1      -3.635   5.573  -2.406  0.00  0.00    +0.002 A 
ATOM     32  C   UNL     1      -2.603   6.064  -1.630  0.00  0.00    +0.025 A 
ATOM     33  C   UNL     1      -1.345   6.248  -2.187  0.00  0.00    +0.051 A 
ATOM     34  C   UNL     1      -1.129   5.943  -3.525  0.00  0.00    -0.025 A 
ATOM     35  C   UNL     1       0.233   6.148  -4.136  0.00  0.00    +0.046 C 
ENDBRANCH  26  33
ENDBRANCH  23  26
ENDBRANCH   1  23
TORSDOF 5
