REMARK  Name = ZINC08491005
REMARK  5 active torsions:
REMARK  status: ('A' for Active; 'I' for Inactive)
REMARK    1  A    between atoms: C_1  and  C_2
REMARK    2  A    between atoms: C_10  and  C_11
REMARK    3  A    between atoms: N_13  and  C_14
REMARK    4  A    between atoms: C_18  and  S_20
REMARK    5  A    between atoms: S_20  and  N_23
REMARK                            x       y       z     vdW  Elec       q    Type
REMARK                         _______ _______ _______ _____ _____    ______ ____
ROOT
ATOM      1  C   UNL     1      -1.187  -2.089   0.095  0.00  0.00    +0.036 A 
ATOM      2  C   UNL     1      -0.001  -2.808   0.179  0.00  0.00    +0.023 A 
ATOM      3  C   UNL     1      -0.035  -4.186   0.264  0.00  0.00    +0.004 A 
ATOM      4  C   UNL     1      -1.248  -4.850   0.264  0.00  0.00    +0.029 A 
ATOM      5  C   UNL     1      -2.430  -4.138   0.180  0.00  0.00    +0.110 A 
ATOM      6  C   UNL     1      -2.403  -2.759   0.101  0.00  0.00    +0.052 A 
ENDROOT
BRANCH   1   9
ATOM      7  C   UNL     1      -2.095  -0.041  -0.704  0.00  0.00    +0.284 C 
ATOM      8  O   UNL     1      -2.912  -0.668  -1.351  0.00  0.00    -0.266 OA
ATOM      9  N   UNL     1      -1.156  -0.694   0.009  0.00  0.00    -0.279 N 
ATOM     10  H   UNL     1      -0.458  -0.195   0.464  0.00  0.00    +0.155 HD
BRANCH   7  20
ATOM     11  C   UNL     1      -4.151   1.700  -2.258  0.00  0.00    +0.048 C 
ATOM     12  C   UNL     1      -3.029   2.189  -1.378  0.00  0.00    +0.008 A 
ATOM     13  C   UNL     1      -2.687   3.579  -1.081  0.00  0.00    +0.024 A 
ATOM     14  C   UNL     1      -3.216   4.815  -1.462  0.00  0.00    +0.012 A 
ATOM     15  C   UNL     1      -2.648   5.967  -0.996  0.00  0.00    +0.001 A 
ATOM     16  C   UNL     1      -1.552   5.918  -0.146  0.00  0.00    +0.004 A 
ATOM     17  C   UNL     1      -1.015   4.709   0.242  0.00  0.00    +0.047 A 
ATOM     18  C   UNL     1      -1.575   3.523  -0.220  0.00  0.00    +0.136 A 
ATOM     19  O   UNL     1      -1.283   2.224  -0.016  0.00  0.00    -0.450 OA
ATOM     20  C   UNL     1      -2.132   1.428  -0.700  0.00  0.00    +0.194 A 
ENDBRANCH   7  20
ENDBRANCH   1   9
BRANCH   5  21
ATOM     21  S   UNL     1      -3.973  -4.989   0.181  0.00  0.00    +0.073 S 
ATOM     22  O   UNL     1      -4.910  -4.132  -0.455  0.00  0.00    -0.150 OA
ATOM     23  O   UNL     1      -3.710  -6.307  -0.280  0.00  0.00    -0.150 OA
BRANCH  21  24
ATOM     24  N   UNL     1      -4.454  -5.128   1.760  0.00  0.00    -0.205 N 
ATOM     25  C   UNL     1      -4.757  -4.005   2.485  0.00  0.00    +0.088 C 
ATOM     26  C   UNL     1      -5.082  -1.805   3.031  0.00  0.00    +0.114 C 
ATOM     27  C   UNL     1      -5.013  -2.547   4.386  0.00  0.00    +0.028 C 
ATOM     28  C   UNL     1      -5.211  -4.014   3.928  0.00  0.00    +0.072 C 
ATOM     29  H   UNL     1      -4.521  -6.003   2.171  0.00  0.00    +0.175 HD
ATOM     30  N   UNL     1      -4.693  -2.800   2.009  0.00  0.00    -0.375 N 
ATOM     31  H   UNL     1      -4.410  -2.568   1.050  0.00  0.00    +0.161 HD
ENDBRANCH  21  24
ENDBRANCH   5  21
TORSDOF 4
