REMARK  Name = ZINC63580118
REMARK  4 active torsions:
REMARK  status: ('A' for Active; 'I' for Inactive)
REMARK    1  A    between atoms: C_1  and  C_2
REMARK    2  A    between atoms: C_7  and  O_8
REMARK    3  A    between atoms: O_8  and  C_9
REMARK    4  A    between atoms: C_9  and  C_10
REMARK                            x       y       z     vdW  Elec       q    Type
REMARK                         _______ _______ _______ _____ _____    ______ ____
ROOT
ATOM      1  C   UNL     1       0.131   0.633   4.715  0.00  0.00    +0.136 A 
ATOM      2  N   UNL     1       0.789   0.883   5.877  0.00  0.00    -0.309 N 
ATOM      3  H   UNL     1       1.749   0.746   5.918  0.00  0.00    +0.170 HD
ATOM      4  C   UNL     1       0.134   1.321   6.976  0.00  0.00    +0.259 A 
ATOM      5  O   UNL     1       0.723   1.546   8.017  0.00  0.00    -0.267 OA
ATOM      6  C   UNL     1      -1.323   1.513   6.862  0.00  0.00    +0.065 A 
ATOM      7  C   UNL     1      -2.084   1.957   7.926  0.00  0.00    +0.024 A 
ATOM      8  C   UNL     1      -3.465   2.123   7.761  0.00  0.00    -0.017 A 
ATOM      9  C   UNL     1      -4.277   2.573   8.820  0.00  0.00    +0.008 A 
ATOM     10  C   UNL     1      -5.614   2.722   8.623  0.00  0.00    +0.001 A 
ATOM     11  C   UNL     1      -6.207   2.441   7.395  0.00  0.00    +0.001 A 
ATOM     12  C   UNL     1      -5.479   2.003   6.333  0.00  0.00    +0.008 A 
ATOM     13  C   UNL     1      -4.088   1.826   6.470  0.00  0.00    -0.016 A 
ATOM     14  C   UNL     1      -3.307   1.377   5.399  0.00  0.00    +0.037 A 
ATOM     15  C   UNL     1      -1.944   1.216   5.569  0.00  0.00    +0.079 A 
ATOM     16  N   UNL     1      -1.146   0.788   4.553  0.00  0.00    -0.231 NA
ENDROOT
BRANCH   1  17
ATOM     17  C   UNL     1       0.938   0.149   3.537  0.00  0.00    +0.234 C 
BRANCH  17  18
ATOM     18  O   UNL     1       0.073  -0.050   2.417  0.00  0.00    -0.369 OA
BRANCH  18  25
ATOM     19  C   UNL     1      -0.019   1.526   0.010  0.00  0.00    +0.010 C 
ATOM     20  C   UNL     1       0.002  -0.004   0.002  0.00  0.00    +0.015 C 
ATOM     21  C   UNL     1       0.718  -0.497  -1.257  0.00  0.00    +0.006 C 
ATOM     22  C   UNL     1       0.739  -2.027  -1.265  0.00  0.00    +0.000 C 
ATOM     23  C   UNL     1       1.479  -2.534  -0.026  0.00  0.00    +0.003 C 
ATOM     24  C   UNL     1       0.763  -2.041   1.233  0.00  0.00    +0.032 C 
ATOM     25  C   UNL     1       0.742  -0.511   1.242  0.00  0.00    +0.122 C 
ENDBRANCH  18  25
ENDBRANCH  17  18
ENDBRANCH   1  17
TORSDOF 3
