REMARK  Name = ZINC14881034
REMARK  11 active torsions:
REMARK  status: ('A' for Active; 'I' for Inactive)
REMARK    1  A    between atoms: C_1  and  N_72
REMARK    2  A    between atoms: C_2  and  N_72
REMARK    3  A    between atoms: C_3  and  C_4
REMARK    4  A    between atoms: C_3  and  N_72
REMARK    5  A    between atoms: C_4  and  C_5
REMARK    6  A    between atoms: C_5  and  N_6
REMARK    7  A    between atoms: C_9  and  C_13
REMARK    8  A    between atoms: C_9  and  C_21
REMARK    9  A    between atoms: C_13  and  C_14
REMARK   10  A    between atoms: C_26  and  C_27
REMARK   11  A    between atoms: C_26  and  N_74
REMARK                            x       y       z     vdW  Elec       q    Type
REMARK                         _______ _______ _______ _____ _____    ______ ____
ROOT
ATOM      1  N   UNL     1      -1.976   5.643  -1.852  0.00  0.00    -0.224 N 
ATOM      2  C   UNL     1      -3.026   6.207  -1.224  0.00  0.00    +0.247 C 
ATOM      3  O   UNL     1      -3.936   5.637  -0.660  0.00  0.00    -0.273 OA
ATOM      4  C   UNL     1      -2.832   7.704  -1.365  0.00  0.00    +0.119 C 
ATOM      5  N   UNL     1      -1.582   7.820  -2.136  0.00  0.00    -0.284 N 
ATOM      6  C   UNL     1      -1.159   6.566  -2.373  0.00  0.00    +0.309 C 
ATOM      7  O   UNL     1      -0.146   6.300  -2.990  0.00  0.00    -0.252 OA
ATOM      8  H   UNL     1      -1.149   8.641  -2.418  0.00  0.00    +0.151 HD
ENDROOT
BRANCH   4   9
ATOM      9  C   UNL     1      -4.000   8.323  -2.136  0.00  0.00    +0.018 C 
ATOM     10  C   UNL     1      -5.263   8.283  -1.272  0.00  0.00    -0.013 C 
ATOM     11  C   UNL     1      -6.440   8.846  -2.071  0.00  0.00    -0.078 C 
ATOM     12  C   UNL     1      -5.450   8.114  -4.158  0.00  0.00    -0.078 C 
ATOM     13  C   UNL     1      -4.243   7.527  -3.422  0.00  0.00    -0.013 C 
ATOM     14  N   UNL     1      -6.637   8.022  -3.283  0.00  0.00    +0.380 N 
ATOM     15  H   UNL     1      -6.769   7.043  -3.002  0.00  0.00    -0.082 HD
BRANCH  14  16
ATOM     16  C   UNL     1      -7.839   8.477  -4.013  0.00  0.00    -0.075 C 
BRANCH  16  17
ATOM     17  C   UNL     1      -9.030   8.488  -3.053  0.00  0.00    -0.024 C 
ATOM     18  C   UNL     1      -9.280   7.070  -2.524  0.00  0.00    +0.006 C 
ATOM     19  C   UNL     1     -10.355   7.141  -1.438  0.00  0.00    +0.027 C 
ATOM     20  C   UNL     1     -11.534   7.929  -1.928  0.00  0.00    -0.031 C 
ATOM     21  C   UNL     1     -11.502   8.722  -2.951  0.00  0.00    -0.031 C 
ATOM     22  C   UNL     1     -10.284   8.956  -3.795  0.00  0.00    +0.028 C 
ENDBRANCH  16  17
ENDBRANCH  14  16
ENDBRANCH   4   9
BRANCH   1  23
ATOM     23  C   UNL     1      -1.760   4.198  -1.959  0.00  0.00    +0.116 C 
BRANCH  23  24
ATOM     24  C   UNL     1      -0.930   3.717  -0.767  0.00  0.00    +0.001 C 
BRANCH  24  25
ATOM     25  C   UNL     1      -0.704   2.208  -0.878  0.00  0.00    -0.078 C 
BRANCH  25  28
ATOM     26  C   UNL     1       0.131   0.279   0.324  0.00  0.00    -0.097 C 
ATOM     27  C   UNL     1       1.450   2.307   0.222  0.00  0.00    -0.097 C 
ATOM     28  N   UNL     1       0.081   1.756   0.290  0.00  0.00    +0.376 N 
ATOM     29  H   UNL     1      -0.372   2.094   1.147  0.00  0.00    -0.083 HD
ENDBRANCH  25  28
ENDBRANCH  24  25
ENDBRANCH  23  24
ENDBRANCH   1  23
BRANCH   4  30
ATOM     30  C   UNL     1      -2.682   8.364   0.007  0.00  0.00    +0.070 C 
BRANCH  30  31
ATOM     31  C   UNL     1      -1.485   7.783   0.715  0.00  0.00    -0.045 A 
ATOM     32  C   UNL     1      -1.634   6.674   1.528  0.00  0.00    +0.006 A 
ATOM     33  C   UNL     1      -0.537   6.138   2.174  0.00  0.00    +0.038 A 
ATOM     34  C   UNL     1       0.711   6.717   2.016  0.00  0.00    +0.123 A 
ATOM     35  C   UNL     1       0.858   7.831   1.206  0.00  0.00    +0.038 A 
ATOM     36  C   UNL     1      -0.240   8.363   0.557  0.00  0.00    +0.006 A 
ATOM     37  F   UNL     1       1.784   6.197   2.650  0.00  0.00    -0.205 F 
ENDBRANCH  30  31
ENDBRANCH   4  30
TORSDOF 9
