REMARK  Name = ZINC39686199
REMARK  9 active torsions:
REMARK  status: ('A' for Active; 'I' for Inactive)
REMARK    1  A    between atoms: C_1  and  C_2
REMARK    2  A    between atoms: C_2  and  C_3
REMARK    3  A    between atoms: C_6  and  C_9
REMARK    4  A    between atoms: C_13  and  C_22
REMARK    5  A    between atoms: N_24  and  C_25
REMARK    6  A    between atoms: C_31  and  C_33
REMARK    7  A    between atoms: C_33  and  C_34
REMARK    8  A    between atoms: C_34  and  C_35
REMARK    9  A    between atoms: C_34  and  C_36
REMARK                            x       y       z     vdW  Elec       q    Type
REMARK                         _______ _______ _______ _____ _____    ______ ____
ROOT
ATOM      1  C   UNL     1       2.696  -1.865  -4.738  0.00  0.00    +0.247 C 
ATOM      2  O   UNL     1       2.054  -2.170  -5.725  0.00  0.00    -0.270 OA
ATOM      3  N   UNL     1       4.039  -1.979  -4.746  0.00  0.00    -0.296 N 
ATOM      4  C   UNL     1       4.974  -1.781  -3.613  0.00  0.00    +0.121 C 
ATOM      5  C   UNL     1       6.036  -2.890  -3.785  0.00  0.00    +0.100 C 
ATOM      6  C   UNL     1       5.993  -3.245  -5.281  0.00  0.00    -0.004 C 
ATOM      7  C   UNL     1       4.914  -2.337  -5.888  0.00  0.00    +0.115 C 
ATOM      8  C   UNL     1       5.607  -4.710  -5.465  0.00  0.00    -0.010 C 
ATOM      9  C   UNL     1       5.627  -5.054  -6.957  0.00  0.00    -0.082 C 
ATOM     10  N   UNL     1       6.969  -4.809  -7.500  0.00  0.00    +0.379 N 
ATOM     11  C   UNL     1       7.296  -3.381  -7.403  0.00  0.00    -0.082 C 
ATOM     12  C   UNL     1       7.346  -2.966  -5.930  0.00  0.00    -0.010 C 
ATOM     13  H   UNL     1       7.645  -5.343  -6.975  0.00  0.00    -0.086 HD
ATOM     14  H   UNL     1       6.997  -5.094  -8.467  0.00  0.00    -0.086 HD
ENDROOT
BRANCH   1  18
ATOM     15  C   UNL     1       0.706  -0.438  -1.268  0.00  0.00    -0.048 A 
ATOM     16  C   UNL     1       0.029  -1.241  -2.168  0.00  0.00    +0.004 A 
ATOM     17  C   UNL     1       0.670  -1.708  -3.297  0.00  0.00    +0.013 A 
ATOM     18  C   UNL     1       2.003  -1.368  -3.531  0.00  0.00    +0.037 A 
ATOM     19  C   UNL     1       2.680  -0.557  -2.618  0.00  0.00    +0.013 A 
ATOM     20  C   UNL     1       2.026  -0.092  -1.496  0.00  0.00    +0.004 A 
BRANCH  15  22
ATOM     21  C   UNL     1      -0.671   1.408  -0.347  0.00  0.00    +0.009 C 
ATOM     22  C   UNL     1      -0.000   0.069  -0.036  0.00  0.00    +0.032 C 
ENDBRANCH  15  22
ENDBRANCH   1  18
BRANCH   5  23
ATOM     23  C   UNL     1       5.681  -4.091  -2.948  0.00  0.00    +0.218 C 
ATOM     24  O   UNL     1       4.518  -4.398  -2.790  0.00  0.00    -0.275 OA
ATOM     25  N   UNL     1       6.655  -4.824  -2.374  0.00  0.00    -0.312 N 
ATOM     26  H   UNL     1       7.585  -4.579  -2.500  0.00  0.00    +0.149 HD
BRANCH  25  27
ATOM     27  C   UNL     1       6.309  -5.992  -1.560  0.00  0.00    +0.076 C 
ATOM     28  C   UNL     1       6.127  -7.211  -2.467  0.00  0.00    +0.041 C 
ATOM     29  C   UNL     1       5.732  -8.422  -1.617  0.00  0.00    +0.109 C 
ATOM     30  N   UNL     1       6.735  -8.603  -0.558  0.00  0.00    -0.301 N 
ATOM     31  C   UNL     1       7.053  -7.465   0.316  0.00  0.00    +0.109 C 
ATOM     32  C   UNL     1       7.433  -6.265  -0.557  0.00  0.00    +0.041 C 
ATOM     33  C   UNL     1       7.350  -9.790  -0.391  0.00  0.00    +0.216 C 
ATOM     34  O   UNL     1       7.079 -10.722  -1.118  0.00  0.00    -0.276 OA
BRANCH  33  35
ATOM     35  C   UNL     1       8.376  -9.960   0.700  0.00  0.00    +0.099 C 
BRANCH  35  36
ATOM     36  C   UNL     1       8.917 -11.391   0.673  0.00  0.00    -0.008 C 
ATOM     37  C   UNL     1       9.675 -11.625  -0.636  0.00  0.00    +0.008 C 
ATOM     38  C   UNL     1       9.865 -11.600   1.855  0.00  0.00    +0.008 C 
ENDBRANCH  35  36
ENDBRANCH  33  35
ENDBRANCH  25  27
ENDBRANCH   5  23
TORSDOF 6
