REMARK  Name = ZINC05690918
REMARK  6 active torsions:
REMARK  status: ('A' for Active; 'I' for Inactive)
REMARK    1  A    between atoms: C_1  and  C_2
REMARK    2  A    between atoms: C_4  and  C_10
REMARK    3  A    between atoms: C_5  and  O_9
REMARK    4  A    between atoms: C_7  and  C_8
REMARK    5  A    between atoms: C_12  and  C_16
REMARK    6  A    between atoms: C_22  and  C_24
REMARK                            x       y       z     vdW  Elec       q    Type
REMARK                         _______ _______ _______ _____ _____    ______ ____
ROOT
ATOM      1  C   UNL     1       0.028  -2.815  -2.496  0.00  0.00    +0.097 A 
ATOM      2  C   UNL     1       0.041  -4.213  -2.654  0.00  0.00    +0.062 A 
ATOM      3  C   UNL     1       0.039  -4.426  -4.019  0.00  0.00    +0.121 A 
ATOM      4  N   UNL     1       0.026  -3.190  -4.604  0.00  0.00    -0.272 N 
ATOM      5  H   UNL     1       0.021  -3.026  -5.559  0.00  0.00    +0.189 HD
ATOM      6  N   UNL     1       0.014  -2.279  -3.698  0.00  0.00    -0.173 NA
ENDROOT
BRANCH   3   7
ATOM      7  C   UNL     1       0.050  -5.726  -4.708  0.00  0.00    +0.268 C 
ATOM      8  O   UNL     1       0.061  -6.756  -4.062  0.00  0.00    -0.268 OA
ATOM      9  N   UNL     1       0.046  -5.775  -6.055  0.00  0.00    -0.258 N 
ATOM     10  C   UNL     1       0.057  -7.003  -6.705  0.00  0.00    +0.188 A 
ATOM     11  N   UNL     1       0.064  -8.232  -6.208  0.00  0.00    -0.126 NA
ATOM     12  N   UNL     1       0.072  -9.250  -6.951  0.00  0.00    -0.145 NA
ATOM     13  C   UNL     1       0.074  -9.159  -8.266  0.00  0.00    +0.101 A 
ATOM     14  S   UNL     1       0.056  -7.379  -8.456  0.00  0.00    -0.036 S 
ATOM     15  C   UNL     1       0.083 -10.245  -9.312  0.00  0.00    +0.075 C 
ATOM     16  H   UNL     1       0.037  -4.953  -6.570  0.00  0.00    +0.157 HD
ENDBRANCH   3   7
BRANCH   1  20
ATOM     17  C   UNL     1      -0.018   1.503   0.010  0.00  0.00    +0.044 C 
ATOM     18  C   UNL     1       0.002  -0.004   0.002  0.00  0.00    -0.047 A 
ATOM     19  C   UNL     1       0.006  -0.685  -1.199  0.00  0.00    +0.017 A 
ATOM     20  C   UNL     1       0.025  -2.077  -1.208  0.00  0.00    +0.044 A 
ATOM     21  C   UNL     1       0.040  -2.778   0.002  0.00  0.00    +0.126 A 
ATOM     22  C   UNL     1       0.036  -2.082   1.200  0.00  0.00    +0.049 A 
ATOM     23  C   UNL     1       0.023  -0.700   1.198  0.00  0.00    -0.044 A 
ATOM     24  C   UNL     1       0.025   0.053   2.503  0.00  0.00    +0.044 C 
BRANCH  21  25
ATOM     25  O   UNL     1       0.058  -4.136   0.003  0.00  0.00    -0.506 OA
ATOM     26  H   UNL     1       0.946  -4.518  -0.001  0.00  0.00    +0.292 HD
ENDBRANCH  21  25
ENDBRANCH   1  20
TORSDOF 3
