REMARK  Name = ZINC24831465
REMARK  4 active torsions:
REMARK  status: ('A' for Active; 'I' for Inactive)
REMARK    1  A    between atoms: C_3  and  C_8
REMARK    2  A    between atoms: N_10  and  C_11
REMARK    3  A    between atoms: C_11  and  C_12
REMARK    4  A    between atoms: C_17  and  C_20
REMARK                            x       y       z     vdW  Elec       q    Type
REMARK                         _______ _______ _______ _____ _____    ______ ____
ROOT
ATOM      1  C   UNL     1       2.511   3.921  -0.001  0.00  0.00    +0.236 C 
ATOM      2  O   UNL     1       3.480   3.192  -0.014  0.00  0.00    -0.274 OA
ATOM      3  N   UNL     1       1.271   3.393   0.008  0.00  0.00    -0.263 N 
ATOM      4  C   UNL     1       1.103   2.013   0.002  0.00  0.00    +0.165 A 
ATOM      5  N   UNL     1      -0.016   1.314   0.009  0.00  0.00    -0.229 NA
ATOM      6  C   UNL     1       0.002  -0.004   0.002  0.00  0.00    +0.057 A 
ATOM      7  C   UNL     1       1.202  -0.634  -0.013  0.00  0.00    +0.072 A 
ATOM      8  S   UNL     1       2.312   0.767  -0.016  0.00  0.00    -0.060 S 
ATOM      9  H   UNL     1       0.392   4.054   0.020  0.00  0.00    +0.157 HD
ENDROOT
BRANCH   6  10
ATOM     10  C   UNL     1      -1.282  -0.792   0.011  0.00  0.00    +0.014 C 
ATOM     11  C   UNL     1      -1.173  -1.934   1.024  0.00  0.00    +0.016 C 
ATOM     12  C   UNL     1      -2.477  -2.734   1.032  0.00  0.00    -0.010 C 
ATOM     13  C   UNL     1      -3.637  -1.815   1.422  0.00  0.00    +0.007 C 
ATOM     14  C   UNL     1      -3.746  -0.674   0.408  0.00  0.00    -0.010 C 
ATOM     15  C   UNL     1      -2.442   0.126   0.400  0.00  0.00    +0.016 C 
ATOM     16  C   UNL     1      -3.999  -1.252  -0.986  0.00  0.00    +0.007 C 
ATOM     17  C   UNL     1      -2.839  -2.171  -1.375  0.00  0.00    -0.010 C 
ATOM     18  C   UNL     1      -2.730  -3.312  -0.361  0.00  0.00    +0.007 C 
ATOM     19  C   UNL     1      -1.535  -1.371  -1.383  0.00  0.00    +0.016 C 
ENDBRANCH   6  10
BRANCH   1  20
ATOM     20  C   UNL     1       2.693   5.417   0.005  0.00  0.00    +0.200 C 
BRANCH  20  23
ATOM     21  C   UNL     1       4.527   7.020  -0.004  0.00  0.00    +0.245 C 
ATOM     22  O   UNL     1       3.706   7.916   0.009  0.00  0.00    -0.270 OA
ATOM     23  N   UNL     1       4.123   5.735  -0.006  0.00  0.00    -0.303 N 
ATOM     24  H   UNL     1       4.866   4.924  -0.018  0.00  0.00    +0.150 HD
BRANCH  21  27
ATOM     25  C   UNL     1       8.262   6.620  -0.040  0.00  0.00    +0.004 A 
ATOM     26  C   UNL     1       6.916   6.315  -0.024  0.00  0.00    +0.013 A 
ATOM     27  C   UNL     1       5.971   7.341  -0.015  0.00  0.00    +0.039 A 
ATOM     28  C   UNL     1       6.393   8.671  -0.012  0.00  0.00    +0.051 A 
ATOM     29  C   UNL     1       7.743   8.964  -0.023  0.00  0.00    +0.124 A 
ATOM     30  C   UNL     1       8.676   7.939  -0.037  0.00  0.00    +0.038 A 
ATOM     31  F   UNL     1       8.154  10.251  -0.020  0.00  0.00    -0.205 F 
ENDBRANCH  21  27
ENDBRANCH  20  23
ENDBRANCH   1  20
TORSDOF 4
