REMARK  Name = ZINC00051982
REMARK  3 active torsions:
REMARK  status: ('A' for Active; 'I' for Inactive)
REMARK    1  A    between atoms: C_3  and  C_9
REMARK    2  A    between atoms: C_12  and  C_14
REMARK    3  A    between atoms: N_15  and  N_16
REMARK                            x       y       z     vdW  Elec       q    Type
REMARK                         _______ _______ _______ _____ _____    ______ ____
ROOT
ATOM      1  C   UNL     1       1.176   3.565   0.009  0.00  0.00    +0.137 A 
ATOM      2  C   UNL     1       1.886   4.361   0.859  0.00  0.00    +0.050 A 
ATOM      3  C   UNL     1       1.591   5.688   0.524  0.00  0.00    +0.051 A 
ATOM      4  C   UNL     1       0.695   5.643  -0.523  0.00  0.00    +0.148 A 
ATOM      5  O   UNL     1       0.459   4.348  -0.817  0.00  0.00    -0.454 OA
ENDROOT
BRANCH   1   8
ATOM      6  C   UNL     1       2.403   0.017  -0.020  0.00  0.00    +0.002 A 
ATOM      7  C   UNL     1       2.399   1.396  -0.014  0.00  0.00    +0.013 A 
ATOM      8  C   UNL     1       1.187   2.088   0.002  0.00  0.00    +0.037 A 
ATOM      9  C   UNL     1      -0.017   1.377   0.010  0.00  0.00    +0.070 A 
ATOM     10  C   UNL     1       0.002  -0.004   0.002  0.00  0.00    +0.060 A 
ATOM     11  C   UNL     1       1.209  -0.682  -0.013  0.00  0.00    +0.021 A 
ATOM     12 CL   UNL     1      -1.490  -0.891   0.011  0.00  0.00    -0.082 Cl
ATOM     13 CL   UNL     1      -1.530   2.227   0.021  0.00  0.00    -0.081 Cl
ENDBRANCH   1   8
BRANCH   4  14
ATOM     14  C   UNL     1       0.104   6.799  -1.198  0.00  0.00    +0.181 C 
ATOM     15  N   UNL     1      -0.734   6.622  -2.179  0.00  0.00    -0.149 NA
BRANCH  15  16
ATOM     16  N   UNL     1      -1.300   7.729  -2.825  0.00  0.00    -0.095 N 
ATOM     17  C   UNL     1      -2.187   7.721  -3.860  0.00  0.00    +0.255 A 
ATOM     18  N   UNL     1      -2.450   8.977  -4.150  0.00  0.00    -0.091 NA
ATOM     19  N   UNL     1      -1.796   9.764  -3.375  0.00  0.00    -0.020 NA
ATOM     20  N   UNL     1      -1.082   9.089  -2.541  0.00  0.00    -0.020 NA
ATOM     21  N   UNL     1      -2.710   6.603  -4.488  0.00  0.00    -0.325 N 
ATOM     22  H   UNL     1      -2.450   5.716  -4.195  0.00  0.00    +0.145 HD
ATOM     23  H   UNL     1      -3.338   6.707  -5.220  0.00  0.00    +0.145 HD
ENDBRANCH  15  16
ENDBRANCH   4  14
TORSDOF 3
