REMARK  Name = ZINC58988378
REMARK  9 active torsions:
REMARK  status: ('A' for Active; 'I' for Inactive)
REMARK    1  A    between atoms: C_1  and  C_2
REMARK    2  A    between atoms: C_10  and  C_35
REMARK    3  A    between atoms: C_11  and  C_12
REMARK    4  A    between atoms: C_12  and  C_13
REMARK    5  A    between atoms: N_15  and  C_16
REMARK    6  A    between atoms: C_18  and  N_23
REMARK    7  A    between atoms: C_24  and  C_26
REMARK    8  A    between atoms: C_26  and  N_27
REMARK    9  A    between atoms: C_32  and  C_34
REMARK                            x       y       z     vdW  Elec       q    Type
REMARK                         _______ _______ _______ _____ _____    ______ ____
ROOT
ATOM      1  C   UNL     1      -2.991   0.998   4.547  0.00  0.00    +0.071 A 
ATOM      2  C   UNL     1      -4.013   0.515   3.744  0.00  0.00    +0.049 A 
ATOM      3  C   UNL     1      -5.321   0.922   3.969  0.00  0.00    +0.035 A 
ATOM      4  C   UNL     1      -5.603   1.811   4.999  0.00  0.00    +0.026 A 
ATOM      5  C   UNL     1      -4.583   2.291   5.798  0.00  0.00    +0.042 A 
ATOM      6  C   UNL     1      -3.280   1.883   5.580  0.00  0.00    +0.145 A 
ATOM      7  F   UNL     1      -2.285   2.350   6.367  0.00  0.00    -0.204 F 
ENDROOT
BRANCH   1  10
ATOM      8  C   UNL     1      -1.423  -0.553   3.652  0.00  0.00    +0.222 C 
ATOM      9  O   UNL     1      -2.341  -1.277   3.329  0.00  0.00    -0.275 OA
ATOM     10  N   UNL     1      -1.670   0.590   4.322  0.00  0.00    -0.283 N 
ATOM     11  H   UNL     1      -0.933   1.130   4.649  0.00  0.00    +0.155 HD
BRANCH   8  12
ATOM     12  C   UNL     1      -0.006  -0.932   3.305  0.00  0.00    +0.133 C 
BRANCH  12  23
ATOM     13  C   UNL     1      -0.207  -0.975   0.418  0.00  0.00    +0.045 C 
ATOM     14  C   UNL     1      -0.100  -2.258   1.201  0.00  0.00    -0.036 A 
ATOM     15  C   UNL     1      -0.089  -3.505   0.548  0.00  0.00    +0.002 A 
ATOM     16  C   UNL     1      -0.177  -3.599  -0.851  0.00  0.00    +0.010 A 
ATOM     17  C   UNL     1      -0.163  -4.823  -1.445  0.00  0.00    +0.001 A 
ATOM     18  C   UNL     1      -0.062  -5.986  -0.684  0.00  0.00    +0.002 A 
ATOM     19  C   UNL     1       0.025  -5.932   0.673  0.00  0.00    +0.026 A 
ATOM     20  C   UNL     1       0.014  -4.686   1.323  0.00  0.00    +0.047 A 
ATOM     21  N   UNL     1       0.100  -4.602   2.655  0.00  0.00    -0.358 N 
ATOM     22  C   UNL     1       0.090  -3.443   3.266  0.00  0.00    +0.017 A 
ATOM     23  C   UNL     1      -0.004  -2.244   2.563  0.00  0.00    -0.016 A 
ATOM     24  C   UNL     1       0.188  -3.406   4.770  0.00  0.00    +0.063 C 
ATOM     25  H   UNL     1       0.170  -5.415   3.179  0.00  0.00    +0.166 HD
ENDBRANCH  12  23
ENDBRANCH   8  12
ENDBRANCH   1  10
BRANCH   3  26
ATOM     26  N   UNL     1      -6.355   0.437   3.160  0.00  0.00    -0.287 N 
ATOM     27  C   UNL     1      -7.580   0.231   3.682  0.00  0.00    +0.201 C 
ATOM     28  O   UNL     1      -7.763   0.374   4.873  0.00  0.00    -0.278 OA
ATOM     29  H   UNL     1      -6.189   0.249   2.223  0.00  0.00    +0.155 HD
BRANCH  27  30
ATOM     30  C   UNL     1      -8.722  -0.176   2.788  0.00  0.00    +0.019 C 
BRANCH  30  31
ATOM     31  N   UNL     1      -9.941  -0.337   3.592  0.00  0.00    +0.387 N 
ATOM     32  C   UNL     1      -9.760  -1.447   4.535  0.00  0.00    -0.078 C 
ATOM     33  C   UNL     1     -10.995  -1.567   5.430  0.00  0.00    -0.019 C 
ATOM     34  C   UNL     1     -12.227  -1.831   4.559  0.00  0.00    -0.003 C 
ATOM     35  C   UNL     1     -12.363  -0.704   3.530  0.00  0.00    -0.016 C 
ATOM     36  C   UNL     1     -11.077  -0.616   2.705  0.00  0.00    -0.071 C 
ATOM     37  C   UNL     1     -11.208   0.508   1.676  0.00  0.00    -0.013 C 
ATOM     38  H   UNL     1     -10.118   0.513   4.106  0.00  0.00    -0.081 HD
ENDBRANCH  30  31
ENDBRANCH  27  30
ENDBRANCH   3  26
TORSDOF 6
