REMARK  Name = ZINC16463414
REMARK  10 active torsions:
REMARK  status: ('A' for Active; 'I' for Inactive)
REMARK    1  A    between atoms: C_1  and  C_2
REMARK    2  A    between atoms: C_2  and  C_3
REMARK    3  A    between atoms: C_3  and  C_4
REMARK    4  A    between atoms: C_4  and  C_6
REMARK    5  A    between atoms: C_4  and  C_27
REMARK    6  A    between atoms: C_6  and  N_7
REMARK    7  A    between atoms: C_8  and  C_10
REMARK    8  A    between atoms: C_10  and  N_11
REMARK    9  A    between atoms: C_14  and  C_18
REMARK   10  A    between atoms: C_14  and  C_19
REMARK                            x       y       z     vdW  Elec       q    Type
REMARK                         _______ _______ _______ _____ _____    ______ ____
ROOT
ATOM      1  C   UNL     1       1.491   3.307   0.005  0.00  0.00    +0.213 C 
ENDROOT
BRANCH   1   2
ATOM      2  N   UNL     1       1.213   1.869   0.001  0.00  0.00    -0.215 N 
ATOM      3  C   UNL     1       2.164   0.914  -0.014  0.00  0.00    +0.251 C 
ATOM      4  O   UNL     1       3.365   1.077  -0.025  0.00  0.00    -0.272 OA
ATOM      5  C   UNL     1       1.419  -0.406  -0.014  0.00  0.00    +0.135 C 
ATOM      6  N   UNL     1       0.002  -0.004   0.002  0.00  0.00    -0.281 N 
ATOM      7  C   UNL     1      -0.016   1.341   0.009  0.00  0.00    +0.310 C 
ATOM      8  O   UNL     1      -1.036   2.003   0.018  0.00  0.00    -0.252 OA
ATOM      9  C   UNL     1       1.762  -1.218   1.237  0.00  0.00    +0.047 C 
ATOM     10  H   UNL     1      -0.768  -0.594   0.006  0.00  0.00    +0.152 HD
BRANCH   5  11
ATOM     11  C   UNL     1       1.734  -1.192  -1.260  0.00  0.00    -0.013 A 
ATOM     12  C   UNL     1       0.760  -1.985  -1.841  0.00  0.00    +0.009 A 
ATOM     13  C   UNL     1       1.046  -2.706  -2.985  0.00  0.00    +0.041 A 
ATOM     14  C   UNL     1       2.307  -2.636  -3.550  0.00  0.00    +0.158 A 
ATOM     15  C   UNL     1       3.283  -1.841  -2.968  0.00  0.00    +0.159 A 
ATOM     16  C   UNL     1       2.992  -1.116  -1.826  0.00  0.00    +0.047 A 
ATOM     17  F   UNL     1       4.515  -1.771  -3.518  0.00  0.00    -0.202 F 
ATOM     18  F   UNL     1       2.587  -3.341  -4.668  0.00  0.00    -0.202 F 
ENDBRANCH   5  11
ENDBRANCH   1   2
BRANCH   1  20
ATOM     19  N   UNL     1       1.854   5.094   1.677  0.00  0.00    -0.313 N 
ATOM     20  C   UNL     1       1.600   3.794   1.427  0.00  0.00    +0.231 C 
ATOM     21  O   UNL     1       1.460   3.016   2.346  0.00  0.00    -0.274 OA
ATOM     22  H   UNL     1       1.967   5.716   0.941  0.00  0.00    +0.149 HD
BRANCH  19  23
ATOM     23  C   UNL     1       1.960   5.566   3.059  0.00  0.00    +0.112 C 
BRANCH  23  24
ATOM     24  C   UNL     1       2.251   7.069   3.063  0.00  0.00    +0.038 C 
BRANCH  24  25
ATOM     25  C   UNL     1       2.481   7.532   4.479  0.00  0.00    -0.024 A 
ATOM     26  C   UNL     1       1.486   7.381   5.426  0.00  0.00    +0.007 A 
ATOM     27  C   UNL     1       1.696   7.806   6.724  0.00  0.00    +0.020 A 
ATOM     28  C   UNL     1       2.904   8.382   7.077  0.00  0.00    +0.042 A 
ATOM     29  C   UNL     1       3.901   8.533   6.130  0.00  0.00    +0.040 A 
ATOM     30  C   UNL     1       3.691   8.102   4.832  0.00  0.00    +0.046 A 
ATOM     31 CL   UNL     1       4.944   8.284   3.644  0.00  0.00    -0.083 Cl
ATOM     32 CL   UNL     1       3.169   8.915   8.708  0.00  0.00    -0.083 Cl
ENDBRANCH  24  25
BRANCH  24  33
ATOM     33  C   UNL     1       1.058   7.820   2.469  0.00  0.00    +0.009 C 
BRANCH  33  35
ATOM     34  C   UNL     1       0.204  10.060   1.763  0.00  0.00    +0.004 C 
ATOM     35  C   UNL     1       1.397   9.308   2.358  0.00  0.00    -0.003 C 
ENDBRANCH  33  35
ENDBRANCH  24  33
ENDBRANCH  23  24
ENDBRANCH  19  23
ENDBRANCH   1  20
TORSDOF 8
