REMARK  Name = ZINC12521240
REMARK  6 active torsions:
REMARK  status: ('A' for Active; 'I' for Inactive)
REMARK    1  A    between atoms: C_1  and  C_2
REMARK    2  A    between atoms: C_7  and  C_10
REMARK    3  A    between atoms: C_11  and  C_13
REMARK    4  A    between atoms: C_18  and  N_19
REMARK    5  A    between atoms: N_19  and  S_20
REMARK    6  A    between atoms: S_20  and  C_23
REMARK                            x       y       z     vdW  Elec       q    Type
REMARK                         _______ _______ _______ _____ _____    ______ ____
ROOT
ATOM      1  N   UNL     1       2.393   3.891   0.119  0.00  0.00    -0.216 N 
ATOM      2  H   UNL     1       3.132   3.604  -0.441  0.00  0.00    +0.174 HD
ENDROOT
BRANCH   1   8
ATOM      3  C   UNL     1       1.183   1.803  -0.075  0.00  0.00    +0.059 A 
ATOM      4  C   UNL     1      -0.034   1.118  -0.101  0.00  0.00    +0.015 A 
ATOM      5  C   UNL     1      -1.216   1.812   0.029  0.00  0.00    +0.001 A 
ATOM      6  C   UNL     1      -1.206   3.188   0.196  0.00  0.00    +0.002 A 
ATOM      7  C   UNL     1      -0.013   3.879   0.225  0.00  0.00    +0.025 A 
ATOM      8  C   UNL     1       1.190   3.197   0.090  0.00  0.00    +0.060 A 
BRANCH   3  17
ATOM      9  C   UNL     1       4.992   1.001  -2.883  0.00  0.00    +0.039 C 
ATOM     10  C   UNL     1       4.446  -0.422  -2.752  0.00  0.00    +0.133 C 
ATOM     11  C   UNL     1       3.835  -0.611  -1.359  0.00  0.00    +0.139 C 
ATOM     12  N   UNL     1       2.632   0.232  -1.261  0.00  0.00    -0.293 N 
ATOM     13  C   UNL     1       1.628   0.130  -2.332  0.00  0.00    +0.139 C 
ATOM     14  C   UNL     1       2.349   0.286  -3.681  0.00  0.00    +0.133 C 
ATOM     15  O   UNL     1       3.437  -0.640  -3.741  0.00  0.00    -0.371 OA
ATOM     16  C   UNL     1       1.368  -0.004  -4.819  0.00  0.00    +0.039 C 
ATOM     17  C   UNL     1       2.453   1.067  -0.219  0.00  0.00    +0.249 C 
ATOM     18  O   UNL     1       3.338   1.215   0.602  0.00  0.00    -0.270 OA
ENDBRANCH   3  17
ENDBRANCH   1   8
BRANCH   1  19
ATOM     19  S   UNL     1       2.566   5.207   1.108  0.00  0.00    +0.072 S 
ATOM     20  O   UNL     1       3.924   5.612   1.012  0.00  0.00    -0.150 OA
ATOM     21  O   UNL     1       1.487   6.083   0.811  0.00  0.00    -0.150 OA
BRANCH  19  22
ATOM     22  C   UNL     1       2.322   4.652   2.763  0.00  0.00    +0.111 A 
ATOM     23  C   UNL     1       1.053   4.667   3.315  0.00  0.00    +0.031 A 
ATOM     24  C   UNL     1       0.851   4.229   4.609  0.00  0.00    +0.030 A 
ATOM     25  C   UNL     1       1.927   3.781   5.362  0.00  0.00    +0.067 A 
ATOM     26  C   UNL     1       3.208   3.771   4.806  0.00  0.00    +0.069 A 
ATOM     27  C   UNL     1       3.399   4.208   3.505  0.00  0.00    +0.056 A 
ATOM     28  N   UNL     1       4.067   3.278   5.785  0.00  0.00    -0.306 N 
ATOM     29  H   UNL     1       5.024   3.155   5.691  0.00  0.00    +0.170 HD
ATOM     30  C   UNL     1       3.342   3.001   6.886  0.00  0.00    +0.325 A 
ATOM     31  O   UNL     1       3.789   2.553   7.925  0.00  0.00    -0.247 OA
ATOM     32  N   UNL     1       2.047   3.294   6.661  0.00  0.00    -0.306 N 
ATOM     33  H   UNL     1       1.322   3.184   7.295  0.00  0.00    +0.170 HD
ENDBRANCH  19  22
ENDBRANCH   1  19
TORSDOF 4
