REMARK  Name = ZINC09828921
REMARK  10 active torsions:
REMARK  status: ('A' for Active; 'I' for Inactive)
REMARK    1  A    between atoms: C_4  and  C_7
REMARK    2  A    between atoms: C_7  and  C_8
REMARK    3  A    between atoms: C_8  and  C_9
REMARK    4  A    between atoms: C_9  and  N_10
REMARK    5  A    between atoms: C_11  and  C_13
REMARK    6  A    between atoms: N_15  and  C_16
REMARK    7  A    between atoms: C_16  and  C_17
REMARK    8  A    between atoms: C_17  and  C_19
REMARK    9  A    between atoms: C_17  and  N_66
REMARK   10  A    between atoms: N_26  and  C_29
REMARK                            x       y       z     vdW  Elec       q    Type
REMARK                         _______ _______ _______ _____ _____    ______ ____
ROOT
ATOM      1  C   UNL     1      -1.250   2.205   0.020  0.00  0.00    +0.017 C 
ENDROOT
BRANCH   1   7
ATOM      2  C   UNL     1       0.020   4.176   0.627  0.00  0.00    -0.059 C 
ATOM      3  C   UNL     1       0.109   5.327   1.633  0.00  0.00    +0.086 C 
ATOM      4  N   UNL     1       0.313   4.781   2.982  0.00  0.00    -0.331 N 
ATOM      5  C   UNL     1      -0.791   3.888   3.359  0.00  0.00    +0.086 C 
ATOM      6  C   UNL     1      -0.880   2.737   2.354  0.00  0.00    -0.059 C 
ATOM      7  N   UNL     1      -1.108   3.299   1.006  0.00  0.00    +0.389 N 
ATOM      8  H   UNL     1      -1.972   3.853   1.016  0.00  0.00    -0.081 HD
BRANCH   4   9
ATOM      9  C   UNL     1       0.471   5.807   3.919  0.00  0.00    +0.065 A 
ATOM     10  C   UNL     1       0.750   5.502   5.244  0.00  0.00    +0.026 A 
ATOM     11  C   UNL     1       0.909   6.518   6.167  0.00  0.00    +0.002 A 
ATOM     12  C   UNL     1       0.782   7.837   5.774  0.00  0.00    +0.003 A 
ATOM     13  C   UNL     1       0.500   8.146   4.456  0.00  0.00    +0.040 A 
ATOM     14  C   UNL     1       0.344   7.135   3.526  0.00  0.00    +0.144 A 
ATOM     15  F   UNL     1       0.067   7.437   2.239  0.00  0.00    -0.204 F 
ENDBRANCH   4   9
ENDBRANCH   1   7
BRANCH   1  16
ATOM     16  C   UNL     1      -0.018   1.338   0.013  0.00  0.00    +0.093 A 
ATOM     17  C   UNL     1      -0.002  -0.006   0.061  0.00  0.00    +0.043 A 
ATOM     18  C   UNL     1       1.355  -0.401   0.026  0.00  0.00    +0.041 A 
ATOM     19  C   UNL     1       2.087   0.726  -0.042  0.00  0.00    +0.195 A 
ATOM     20  O   UNL     1       1.250   1.776  -0.049  0.00  0.00    -0.469 OA
ENDBRANCH   1  16
BRANCH   1  21
ATOM     21  C   UNL     1      -1.456   2.811  -1.369  0.00  0.00    +0.097 C 
BRANCH  21  24
ATOM     22  C   UNL     1      -2.950   4.404  -2.450  0.00  0.00    +0.299 C 
ATOM     23  O   UNL     1      -2.348   4.221  -3.488  0.00  0.00    -0.265 OA
ATOM     24  N   UNL     1      -2.583   3.747  -1.332  0.00  0.00    -0.309 N 
ATOM     25  H   UNL     1      -3.064   3.894  -0.503  0.00  0.00    +0.149 HD
BRANCH  22  27
ATOM     26  N   UNL     1      -4.467   6.016  -3.530  0.00  0.00    -0.308 N 
ATOM     27  C   UNL     1      -4.100   5.359  -2.413  0.00  0.00    +0.299 C 
ATOM     28  O   UNL     1      -4.702   5.542  -1.375  0.00  0.00    -0.265 OA
ATOM     29  H   UNL     1      -3.986   5.869  -4.360  0.00  0.00    +0.149 HD
BRANCH  26  30
ATOM     30  C   UNL     1      -5.594   6.951  -3.493  0.00  0.00    +0.105 C 
BRANCH  30  31
ATOM     31  C   UNL     1      -5.800   7.557  -4.883  0.00  0.00    +0.023 C 
BRANCH  31  32
ATOM     32  C   UNL     1      -6.976   8.534  -4.844  0.00  0.00    +0.036 C 
BRANCH  32  36
ATOM     33  C   UNL     1      -7.551  10.226  -8.724  0.00  0.00    +0.000 A 
ATOM     34  C   UNL     1      -8.207   9.061  -8.374  0.00  0.00    +0.000 A 
ATOM     35  C   UNL     1      -8.021   8.513  -7.119  0.00  0.00    +0.003 A 
ATOM     36  C   UNL     1      -7.179   9.131  -6.213  0.00  0.00    -0.047 A 
ATOM     37  C   UNL     1      -6.527  10.299  -6.561  0.00  0.00    +0.003 A 
ATOM     38  C   UNL     1      -6.709  10.844  -7.819  0.00  0.00    +0.000 A 
ENDBRANCH  32  36
ENDBRANCH  31  32
ENDBRANCH  30  31
ENDBRANCH  26  30
ENDBRANCH  22  27
ENDBRANCH  21  24
ENDBRANCH   1  21
TORSDOF 10
