REMARK  Name = ZINC39431683
REMARK  10 active torsions:
REMARK  status: ('A' for Active; 'I' for Inactive)
REMARK    1  A    between atoms: C_1  and  C_2
REMARK    2  A    between atoms: C_5  and  C_18
REMARK    3  A    between atoms: N_9  and  C_11
REMARK    4  A    between atoms: C_11  and  C_12
REMARK    5  A    between atoms: N_20  and  C_21
REMARK    6  A    between atoms: N_20  and  C_25
REMARK    7  A    between atoms: C_21  and  C_22
REMARK    8  A    between atoms: C_22  and  O_23
REMARK    9  A    between atoms: O_23  and  C_24
REMARK   10  A    between atoms: C_25  and  C_26
REMARK                            x       y       z     vdW  Elec       q    Type
REMARK                         _______ _______ _______ _____ _____    ______ ____
ROOT
ATOM      1  C   UNL     1      -4.358  -2.139   1.419  0.00  0.00    +0.253 C 
ATOM      2  O   UNL     1      -5.175  -1.239   1.344  0.00  0.00    -0.269 OA
ATOM      3  N   UNL     1      -4.771  -3.412   1.575  0.00  0.00    -0.288 N 
ENDROOT
BRANCH   1   8
ATOM      4  C   UNL     1      -0.034   1.766   1.561  0.00  0.00    +0.062 C 
ATOM      5  C   UNL     1       0.059   0.269   1.410  0.00  0.00    +0.021 C 
ATOM      6  C   UNL     1      -0.984  -0.534   1.105  0.00  0.00    +0.000 C 
ATOM      7  C   UNL     1      -2.376  -0.648   1.058  0.00  0.00    +0.027 C 
ATOM      8  C   UNL     1      -2.972  -1.847   1.342  0.00  0.00    +0.072 C 
ATOM      9  S   UNL     1      -1.593  -2.963   1.595  0.00  0.00    -0.095 S 
ATOM     10  C   UNL     1      -0.315  -1.894   0.827  0.00  0.00    +0.170 C 
ATOM     11  N   UNL     1       0.904  -1.800   1.637  0.00  0.00    -0.207 NA
ATOM     12  N   UNL     1       1.214  -0.456   1.558  0.00  0.00    -0.280 N 
ATOM     13  H   UNL     1       2.108  -0.083   1.603  0.00  0.00    +0.166 HD
BRANCH  11  14
ATOM     14  C   UNL     1       1.980  -2.620   1.065  0.00  0.00    +0.142 C 
BRANCH  14  15
ATOM     15  C   UNL     1       3.173  -2.596   1.986  0.00  0.00    -0.032 A 
ATOM     16  C   UNL     1       4.143  -1.623   1.837  0.00  0.00    +0.005 A 
ATOM     17  C   UNL     1       5.237  -1.601   2.682  0.00  0.00    +0.000 A 
ATOM     18  C   UNL     1       5.361  -2.553   3.676  0.00  0.00    +0.000 A 
ATOM     19  C   UNL     1       4.391  -3.527   3.826  0.00  0.00    +0.000 A 
ATOM     20  C   UNL     1       3.295  -3.546   2.984  0.00  0.00    +0.005 A 
ENDBRANCH  14  15
ENDBRANCH  11  14
ENDBRANCH   1   8
BRANCH   3  21
ATOM     21  C   UNL     1      -3.788  -4.489   1.721  0.00  0.00    +0.136 C 
BRANCH  21  22
ATOM     22  C   UNL     1      -3.319  -4.557   3.175  0.00  0.00    +0.178 C 
BRANCH  22  23
ATOM     23  O   UNL     1      -4.415  -4.930   4.013  0.00  0.00    -0.381 OA
ATOM     24  C   UNL     1      -4.082  -5.022   5.399  0.00  0.00    +0.194 C 
ENDBRANCH  22  23
ENDBRANCH  21  22
ENDBRANCH   3  21
BRANCH   3  25
ATOM     25  C   UNL     1      -6.203  -3.720   1.598  0.00  0.00    +0.182 C 
BRANCH  25  26
ATOM     26  C   UNL     1      -6.679  -4.003   0.197  0.00  0.00    +0.128 A 
ATOM     27  N   UNL     1      -7.990  -4.306   0.010  0.00  0.00    -0.309 N 
ATOM     28  H   UNL     1      -8.590  -4.335   0.772  0.00  0.00    +0.170 HD
ATOM     29  C   UNL     1      -8.468  -4.568  -1.229  0.00  0.00    +0.259 A 
ATOM     30  O   UNL     1      -9.640  -4.840  -1.411  0.00  0.00    -0.267 OA
ATOM     31  C   UNL     1      -7.515  -4.511  -2.347  0.00  0.00    +0.065 A 
ATOM     32  C   UNL     1      -7.904  -4.764  -3.661  0.00  0.00    +0.015 A 
ATOM     33  C   UNL     1      -6.969  -4.697  -4.671  0.00  0.00    +0.001 A 
ATOM     34  C   UNL     1      -5.647  -4.380  -4.389  0.00  0.00    +0.002 A 
ATOM     35  C   UNL     1      -5.242  -4.127  -3.098  0.00  0.00    +0.028 A 
ATOM     36  C   UNL     1      -6.171  -4.188  -2.057  0.00  0.00    +0.078 A 
ATOM     37  N   UNL     1      -5.816  -3.940  -0.771  0.00  0.00    -0.232 NA
ENDBRANCH  25  26
ENDBRANCH   3  25
TORSDOF 8
