REMARK  Name = ZINC46016945
REMARK  8 active torsions:
REMARK  status: ('A' for Active; 'I' for Inactive)
REMARK    1  A    between atoms: C_1  and  C_2
REMARK    2  A    between atoms: C_2  and  C_3
REMARK    3  A    between atoms: C_3  and  C_4
REMARK    4  A    between atoms: C_4  and  C_5
REMARK    5  A    between atoms: C_5  and  C_6
REMARK    6  A    between atoms: C_12  and  C_14
REMARK    7  A    between atoms: N_16  and  C_23
REMARK    8  A    between atoms: C_19  and  C_22
REMARK                            x       y       z     vdW  Elec       q    Type
REMARK                         _______ _______ _______ _____ _____    ______ ____
ROOT
ATOM      1  C   UNL     1       2.131 -10.327  -2.830  0.00  0.00    +0.201 C 
ATOM      2  N   UNL     1       3.188 -10.751  -2.192  0.00  0.00    -0.152 NA
ATOM      3  N   UNL     1       3.219 -12.030  -1.626  0.00  0.00    -0.157 N 
ATOM      4  C   UNL     1       2.307 -12.960  -1.973  0.00  0.00    +0.259 C 
ATOM      5  O   UNL     1       2.332 -14.061  -1.464  0.00  0.00    -0.271 OA
ATOM      6  C   UNL     1       1.254 -12.620  -3.001  0.00  0.00    +0.157 C 
ATOM      7  N   UNL     1       1.020 -11.166  -2.950  0.00  0.00    -0.313 N 
ATOM      8  C   UNL     1       1.742 -13.022  -4.394  0.00  0.00    +0.038 C 
ATOM      9  H   UNL     1       0.122 -10.801  -3.001  0.00  0.00    +0.148 HD
ENDROOT
BRANCH   1  16
ATOM     10  C   UNL     1       3.463  -4.414  -4.763  0.00  0.00    +0.104 A 
ATOM     11  N   UNL     1       2.351  -5.097  -4.949  0.00  0.00    -0.145 NA
ATOM     12  N   UNL     1       2.203  -6.271  -4.515  0.00  0.00    -0.126 NA
ATOM     13  C   UNL     1       3.161  -6.894  -3.842  0.00  0.00    +0.188 A 
ATOM     14  S   UNL     1       4.421  -5.622  -3.851  0.00  0.00    -0.035 S 
ATOM     15  N   UNL     1       3.183  -8.170  -3.293  0.00  0.00    -0.257 N 
ATOM     16  C   UNL     1       2.108  -8.974  -3.413  0.00  0.00    +0.284 C 
ATOM     17  O   UNL     1       1.118  -8.582  -4.001  0.00  0.00    -0.267 OA
ATOM     18  H   UNL     1       3.972  -8.482  -2.823  0.00  0.00    +0.157 HD
BRANCH  10  19
ATOM     19  C   UNL     1       3.828  -3.018  -5.199  0.00  0.00    +0.065 C 
BRANCH  19  20
ATOM     20  C   UNL     1       3.430  -2.023  -4.107  0.00  0.00    +0.007 C 
BRANCH  20  21
ATOM     21  C   UNL     1       3.800  -0.606  -4.549  0.00  0.00    +0.000 C 
BRANCH  21  23
ATOM     22  C   UNL     1       3.772   1.806  -3.899  0.00  0.00    +0.004 C 
ATOM     23  C   UNL     1       3.403   0.389  -3.457  0.00  0.00    -0.003 C 
ENDBRANCH  21  23
ENDBRANCH  20  21
ENDBRANCH  19  20
ENDBRANCH  10  19
ENDBRANCH   1  16
BRANCH   3  24
ATOM     24  C   UNL     1       4.208 -12.347  -0.690  0.00  0.00    +0.060 A 
ATOM     25  C   UNL     1       4.457 -11.492   0.377  0.00  0.00    +0.025 A 
ATOM     26  C   UNL     1       5.435 -11.809   1.300  0.00  0.00    +0.002 A 
ATOM     27  C   UNL     1       6.165 -12.975   1.163  0.00  0.00    +0.000 A 
ATOM     28  C   UNL     1       5.920 -13.828   0.103  0.00  0.00    +0.002 A 
ATOM     29  C   UNL     1       4.940 -13.521  -0.821  0.00  0.00    +0.025 A 
ENDBRANCH   3  24
TORSDOF 6
