REMARK  Name = ZINC04210422
REMARK  5 active torsions:
REMARK  status: ('A' for Active; 'I' for Inactive)
REMARK    1  A    between atoms: C_4  and  C_7
REMARK    2  A    between atoms: C_13  and  C_15
REMARK    3  A    between atoms: N_17  and  N_18
REMARK    4  A    between atoms: C_19  and  C_20
REMARK    5  A    between atoms: C_29  and  O_30
REMARK                            x       y       z     vdW  Elec       q    Type
REMARK                         _______ _______ _______ _____ _____    ______ ____
ROOT
ATOM      1  C   UNL     1       9.146  -3.994  -0.113  0.00  0.00    +0.318 C 
ATOM      2  O   UNL     1       8.826  -5.166  -0.123  0.00  0.00    -0.263 OA
ATOM      3  N   UNL     1      10.450  -3.651  -0.118  0.00  0.00    -0.199 N 
ATOM      4  H   UNL     1      10.705  -2.715  -0.110  0.00  0.00    +0.178 HD
ENDROOT
BRANCH   1  11
ATOM      5  C   UNL     1       3.695  -0.685  -0.038  0.00  0.00    +0.134 A 
ATOM      6  N   UNL     1       4.935  -0.210  -0.043  0.00  0.00    -0.140 NA
ATOM      7  N   UNL     1       5.940  -0.972  -0.058  0.00  0.00    -0.125 NA
ATOM      8  C   UNL     1       5.818  -2.294  -0.071  0.00  0.00    +0.188 A 
ATOM      9  S   UNL     1       4.034  -2.443  -0.051  0.00  0.00    -0.030 S 
ATOM     10  N   UNL     1       6.794  -3.279  -0.088  0.00  0.00    -0.255 N 
ATOM     11  C   UNL     1       8.097  -2.936  -0.094  0.00  0.00    +0.306 C 
ATOM     12  O   UNL     1       8.417  -1.764  -0.084  0.00  0.00    -0.265 OA
ATOM     13  H   UNL     1       6.539  -4.215  -0.097  0.00  0.00    +0.157 HD
BRANCH   5  17
ATOM     14  C   UNL     1      -0.017   1.379   0.010  0.00  0.00    +0.000 A 
ATOM     15  C   UNL     1       1.168   2.093   0.002  0.00  0.00    +0.001 A 
ATOM     16  C   UNL     1       2.377   1.429  -0.013  0.00  0.00    +0.010 A 
ATOM     17  C   UNL     1       2.403   0.034  -0.021  0.00  0.00    +0.009 A 
ATOM     18  C   UNL     1       1.204  -0.681  -0.013  0.00  0.00    +0.010 A 
ATOM     19  C   UNL     1       0.002  -0.004   0.002  0.00  0.00    +0.001 A 
ENDBRANCH   5  17
ENDBRANCH   1  11
BRANCH   3  20
ATOM     20  N   UNL     1      11.436  -4.646  -0.136  0.00  0.00    -0.187 NA
ATOM     21  C   UNL     1      12.694  -4.315  -0.142  0.00  0.00    +0.142 C 
BRANCH  21  22
ATOM     22  C   UNL     1      13.728  -5.358  -0.160  0.00  0.00    +0.044 A 
ATOM     23  C   UNL     1      15.146  -5.004  -0.161  0.00  0.00    -0.006 A 
ATOM     24  C   UNL     1      15.566  -3.668  -0.143  0.00  0.00    +0.009 A 
ATOM     25  C   UNL     1      16.899  -3.381  -0.143  0.00  0.00    +0.001 A 
ATOM     26  C   UNL     1      17.850  -4.398  -0.162  0.00  0.00    +0.001 A 
ATOM     27  C   UNL     1      17.476  -5.707  -0.179  0.00  0.00    +0.008 A 
ATOM     28  C   UNL     1      16.111  -6.041  -0.179  0.00  0.00    -0.017 A 
ATOM     29  C   UNL     1      15.687  -7.381  -0.196  0.00  0.00    +0.012 A 
ATOM     30  C   UNL     1      14.364  -7.693  -0.196  0.00  0.00    +0.046 A 
ATOM     31  C   UNL     1      13.377  -6.709  -0.172  0.00  0.00    +0.126 A 
BRANCH  31  32
ATOM     32  O   UNL     1      12.068  -7.066  -0.166  0.00  0.00    -0.506 OA
ATOM     33  H   UNL     1      11.682  -7.160  -1.048  0.00  0.00    +0.292 HD
ENDBRANCH  31  32
ENDBRANCH  21  22
ENDBRANCH   3  20
TORSDOF 5
