REMARK  Name = ZINC39674543
REMARK  9 active torsions:
REMARK  status: ('A' for Active; 'I' for Inactive)
REMARK    1  A    between atoms: C_1  and  C_2
REMARK    2  A    between atoms: C_3  and  C_8
REMARK    3  A    between atoms: C_4  and  C_7
REMARK    4  A    between atoms: C_12  and  C_21
REMARK    5  A    between atoms: N_23  and  C_24
REMARK    6  A    between atoms: C_24  and  C_26
REMARK    7  A    between atoms: C_24  and  C_27
REMARK    8  A    between atoms: C_28  and  C_34
REMARK    9  A    between atoms: C_31  and  C_33
REMARK                            x       y       z     vdW  Elec       q    Type
REMARK                         _______ _______ _______ _____ _____    ______ ____
ROOT
ATOM      1  C   UNL     1      -0.243  -0.769  -2.565  0.00  0.00    +0.252 C 
ATOM      2  O   UNL     1       0.747  -0.691  -3.266  0.00  0.00    -0.270 OA
ATOM      3  N   UNL     1      -1.464  -0.562  -3.098  0.00  0.00    -0.296 N 
ATOM      4  C   UNL     1      -2.775  -0.606  -2.409  0.00  0.00    +0.121 C 
ATOM      5  C   UNL     1      -3.581   0.558  -3.026  0.00  0.00    +0.100 C 
ATOM      6  C   UNL     1      -2.936   0.795  -4.402  0.00  0.00    -0.004 C 
ATOM      7  C   UNL     1      -1.797  -0.230  -4.504  0.00  0.00    +0.115 C 
ATOM      8  C   UNL     1      -2.372   2.211  -4.485  0.00  0.00    -0.010 C 
ATOM      9  C   UNL     1      -1.787   2.441  -5.882  0.00  0.00    -0.082 C 
ATOM     10  N   UNL     1      -2.836   2.251  -6.891  0.00  0.00    +0.379 N 
ATOM     11  C   UNL     1      -3.308   0.861  -6.867  0.00  0.00    -0.082 C 
ATOM     12  C   UNL     1      -3.957   0.564  -5.512  0.00  0.00    -0.010 C 
ATOM     13  H   UNL     1      -3.608   2.870  -6.693  0.00  0.00    -0.086 HD
ATOM     14  H   UNL     1      -2.464   2.462  -7.805  0.00  0.00    -0.086 HD
ENDROOT
BRANCH   1  17
ATOM     15  C   UNL     1       0.123   1.363  -0.157  0.00  0.00    +0.070 C 
ATOM     16  C   UNL     1       0.056  -0.137  -0.036  0.00  0.00    +0.093 A 
ATOM     17  C   UNL     1      -0.109  -1.092  -1.133  0.00  0.00    +0.101 A 
ATOM     18  C   UNL     1      -0.116  -2.338  -0.575  0.00  0.00    +0.147 A 
ATOM     19  O   UNL     1       0.030  -2.201   0.745  0.00  0.00    -0.359 OA
ATOM     20  N   UNL     1       0.141  -0.828   1.063  0.00  0.00    -0.083 NA
ATOM     21  C   UNL     1      -0.263  -3.640  -1.319  0.00  0.00    +0.090 C 
ENDBRANCH   1  17
BRANCH   5  22
ATOM     22  C   UNL     1      -3.461   1.792  -2.169  0.00  0.00    +0.219 C 
ATOM     23  O   UNL     1      -2.497   1.938  -1.448  0.00  0.00    -0.275 OA
ATOM     24  N   UNL     1      -4.425   2.733  -2.204  0.00  0.00    -0.309 N 
ATOM     25  H   UNL     1      -5.196   2.616  -2.781  0.00  0.00    +0.149 HD
BRANCH  24  26
ATOM     26  C   UNL     1      -4.309   3.932  -1.371  0.00  0.00    +0.100 C 
ATOM     27  C   UNL     1      -4.853   3.636   0.028  0.00  0.00    +0.033 C 
BRANCH  26  28
ATOM     28  C   UNL     1      -5.101   5.054  -1.991  0.00  0.00    -0.001 C 
ATOM     29  C   UNL     1      -4.686   6.287  -2.288  0.00  0.00    +0.063 C 
ATOM     30  N   UNL     1      -5.688   7.012  -2.835  0.00  0.00    -0.159 NA
ATOM     31  N   UNL     1      -6.756   6.405  -2.947  0.00  0.00    -0.180 NA
ATOM     32  C   UNL     1      -6.555   5.042  -2.428  0.00  0.00    +0.154 C 
ATOM     33  C   UNL     1      -7.477   4.778  -1.236  0.00  0.00    +0.039 C 
ATOM     34  C   UNL     1      -3.291   6.802  -2.048  0.00  0.00    +0.067 C 
ENDBRANCH  26  28
ENDBRANCH  24  26
ENDBRANCH   5  22
TORSDOF 4
