REMARK  Name = ZINC34799065
REMARK  15 active torsions:
REMARK  status: ('A' for Active; 'I' for Inactive)
REMARK    1  A    between atoms: C_1  and  C_2
REMARK    2  A    between atoms: C_2  and  C_4
REMARK    3  A    between atoms: C_2  and  N_19
REMARK    4  A    between atoms: N_14  and  C_15
REMARK    5  A    between atoms: C_15  and  C_16
REMARK    6  A    between atoms: C_16  and  O_17
REMARK    7  A    between atoms: O_17  and  C_18
REMARK    8  A    between atoms: N_19  and  C_20
REMARK    9  A    between atoms: C_20  and  C_21
REMARK   10  A    between atoms: C_21  and  C_22
REMARK   11  A    between atoms: C_22  and  C_23
REMARK   12  A    between atoms: C_23  and  C_24
REMARK   13  A    between atoms: C_24  and  C_25
REMARK   14  A    between atoms: C_25  and  N_26
REMARK   15  A    between atoms: C_27  and  C_29
REMARK                            x       y       z     vdW  Elec       q    Type
REMARK                         _______ _______ _______ _____ _____    ______ ____
ROOT
ATOM      1  N   UNL     1       0.133  -2.370   0.758  0.00  0.00    -0.288 N 
ATOM      2  C   UNL     1      -0.993  -2.332   1.498  0.00  0.00    +0.247 C 
ATOM      3  O   UNL     1      -1.867  -3.157   1.317  0.00  0.00    -0.270 OA
ENDROOT
BRANCH   2   4
ATOM      4  C   UNL     1      -1.165  -1.288   2.530  0.00  0.00    +0.037 A 
ATOM      5  C   UNL     1      -0.527  -0.054   2.391  0.00  0.00    +0.013 A 
ATOM      6  C   UNL     1      -0.692   0.917   3.357  0.00  0.00    +0.001 A 
ATOM      7  C   UNL     1      -1.487   0.670   4.462  0.00  0.00    +0.000 A 
ATOM      8  C   UNL     1      -2.122  -0.551   4.606  0.00  0.00    +0.001 A 
ATOM      9  C   UNL     1      -1.970  -1.529   3.644  0.00  0.00    +0.013 A 
ENDBRANCH   2   4
BRANCH   1  11
ATOM     10  C   UNL     1      -0.015  -0.062  -0.036  0.00  0.00    +0.036 C 
ATOM     11  C   UNL     1       0.903  -1.145   0.533  0.00  0.00    +0.139 C 
BRANCH  11  12
ATOM     12  C   UNL     1       1.487  -0.672   1.840  0.00  0.00    +0.133 A 
ATOM     13  N   UNL     1       1.284  -1.391   2.901  0.00  0.00    -0.232 NA
ATOM     14  C   UNL     1       1.779  -1.028   4.111  0.00  0.00    +0.078 A 
ATOM     15  C   UNL     1       1.561  -1.802   5.253  0.00  0.00    +0.028 A 
ATOM     16  C   UNL     1       2.083  -1.396   6.461  0.00  0.00    +0.002 A 
ATOM     17  C   UNL     1       2.823  -0.225   6.559  0.00  0.00    +0.001 A 
ATOM     18  C   UNL     1       3.051   0.555   5.447  0.00  0.00    +0.015 A 
ATOM     19  C   UNL     1       2.532   0.162   4.215  0.00  0.00    +0.065 A 
ATOM     20  C   UNL     1       2.744   0.953   2.994  0.00  0.00    +0.262 A 
ATOM     21  O   UNL     1       3.383   1.989   3.014  0.00  0.00    -0.267 OA
ATOM     22  N   UNL     1       2.203   0.483   1.845  0.00  0.00    -0.292 N 
BRANCH  22  23
ATOM     23  C   UNL     1       2.388   1.228   0.598  0.00  0.00    +0.154 C 
BRANCH  23  24
ATOM     24  C   UNL     1       1.405   2.401   0.554  0.00  0.00    +0.181 C 
BRANCH  24  25
ATOM     25  O   UNL     1       1.676   3.289   1.640  0.00  0.00    -0.381 OA
ATOM     26  C   UNL     1       0.809   4.424   1.691  0.00  0.00    +0.194 C 
ENDBRANCH  24  25
ENDBRANCH  23  24
ENDBRANCH  22  23
ENDBRANCH  11  12
ENDBRANCH   1  11
BRANCH   1  27
ATOM     27  C   UNL     1       0.587  -3.637   0.179  0.00  0.00    +0.109 C 
BRANCH  27  28
ATOM     28  C   UNL     1       1.516  -4.345   1.166  0.00  0.00    +0.019 C 
BRANCH  28  29
ATOM     29  C   UNL     1       1.990  -5.668   0.561  0.00  0.00    +0.001 C 
BRANCH  29  30
ATOM     30  C   UNL     1       2.920  -6.377   1.548  0.00  0.00    -0.002 C 
BRANCH  30  31
ATOM     31  C   UNL     1       3.394  -7.700   0.943  0.00  0.00    -0.020 C 
BRANCH  31  32
ATOM     32  C   UNL     1       4.324  -8.408   1.931  0.00  0.00    -0.086 C 
BRANCH  32  33
ATOM     33  N   UNL     1       4.779  -9.678   1.350  0.00  0.00    +0.378 N 
ATOM     34  H   UNL     1       5.392 -10.145   2.001  0.00  0.00    -0.090 HD
ATOM     35  H   UNL     1       3.981 -10.266   1.159  0.00  0.00    -0.090 HD
ATOM     36  H   UNL     1       5.276  -9.496   0.491  0.00  0.00    -0.090 HD
ENDBRANCH  32  33
ENDBRANCH  31  32
ENDBRANCH  30  31
ENDBRANCH  29  30
ENDBRANCH  28  29
ENDBRANCH  27  28
ENDBRANCH   1  27
TORSDOF 13
