REMARK  Name = ZINC09782984
REMARK  7 active torsions:
REMARK  status: ('A' for Active; 'I' for Inactive)
REMARK    1  A    between atoms: C_6  and  C_7
REMARK    2  A    between atoms: C_8  and  C_18
REMARK    3  A    between atoms: C_18  and  C_19
REMARK    4  A    between atoms: C_19  and  C_20
REMARK    5  A    between atoms: C_27  and  C_28
REMARK    6  A    between atoms: C_27  and  N_62
REMARK    7  A    between atoms: N_30  and  C_31
REMARK                            x       y       z     vdW  Elec       q    Type
REMARK                         _______ _______ _______ _____ _____    ______ ____
ROOT
ATOM      1  C   UNL     1      -0.729   1.579   1.267  0.00  0.00    +0.047 C 
ENDROOT
BRANCH   1   3
ATOM      2  C   UNL     1      -0.230  -0.083   3.146  0.00  0.00    +0.051 A 
ATOM      3  C   UNL     1       0.000   1.080   2.488  0.00  0.00    -0.014 A 
ATOM      4  C   UNL     1       1.086   1.760   3.192  0.00  0.00    +0.006 A 
ATOM      5  C   UNL     1       1.751   2.975   3.000  0.00  0.00    +0.048 A 
ATOM      6  C   UNL     1       2.761   3.343   3.862  0.00  0.00    +0.124 A 
ATOM      7  C   UNL     1       3.118   2.513   4.920  0.00  0.00    +0.040 A 
ATOM      8  C   UNL     1       2.471   1.313   5.121  0.00  0.00    +0.029 A 
ATOM      9  C   UNL     1       1.449   0.922   4.262  0.00  0.00    +0.047 A 
ATOM     10  N   UNL     1       0.637  -0.191   4.208  0.00  0.00    -0.354 N 
ATOM     11  H   UNL     1       0.670  -0.936   4.828  0.00  0.00    +0.166 HD
ATOM     12  F   UNL     1       3.406   4.515   3.681  0.00  0.00    -0.205 F 
BRANCH   2  18
ATOM     13  C   UNL     1      -2.548  -0.674   2.449  0.00  0.00    +0.013 A 
ATOM     14  C   UNL     1      -3.497  -1.612   2.098  0.00  0.00    +0.039 A 
ATOM     15  C   UNL     1      -3.172  -2.959   2.083  0.00  0.00    +0.123 A 
ATOM     16  C   UNL     1      -1.891  -3.371   2.412  0.00  0.00    +0.039 A 
ATOM     17  C   UNL     1      -0.932  -2.442   2.758  0.00  0.00    +0.013 A 
ATOM     18  C   UNL     1      -1.254  -1.084   2.776  0.00  0.00    -0.001 A 
ATOM     19  F   UNL     1      -4.107  -3.873   1.745  0.00  0.00    -0.205 F 
ENDBRANCH   2  18
ENDBRANCH   1   3
BRANCH   1  20
ATOM     20  C   UNL     1      -0.013   1.086   0.008  0.00  0.00    +0.101 C 
BRANCH  20  21
ATOM     21  C   UNL     1      -0.742   1.585  -1.213  0.00  0.00    +0.216 C 
ATOM     22  O   UNL     1      -1.736   2.268  -1.088  0.00  0.00    -0.276 OA
ATOM     23  N   UNL     1      -0.288   1.272  -2.443  0.00  0.00    -0.305 N 
ATOM     24  C   UNL     1       0.919   0.450  -2.616  0.00  0.00    +0.089 C 
ATOM     25  C   UNL     1       0.584  -0.702  -3.577  0.00  0.00    -0.059 C 
ATOM     26  C   UNL     1      -1.242   0.551  -4.568  0.00  0.00    -0.059 C 
ATOM     27  C   UNL     1      -0.985   1.749  -3.648  0.00  0.00    +0.089 C 
ATOM     28  N   UNL     1       0.045  -0.130  -4.830  0.00  0.00    +0.387 N 
ATOM     29  H   UNL     1       0.715   0.555  -5.199  0.00  0.00    -0.081 HD
BRANCH  28  30
ATOM     30  C   UNL     1      -0.147  -1.201  -5.831  0.00  0.00    +0.019 C 
BRANCH  30  31
ATOM     31  C   UNL     1       1.204  -1.729  -6.241  0.00  0.00    +0.197 C 
ATOM     32  O   UNL     1       2.211  -1.275  -5.739  0.00  0.00    -0.278 OA
ATOM     33  N   UNL     1       1.294  -2.706  -7.165  0.00  0.00    -0.314 N 
ATOM     34  H   UNL     1       0.489  -3.069  -7.566  0.00  0.00    +0.149 HD
BRANCH  33  35
ATOM     35  C   UNL     1       2.607  -3.219  -7.563  0.00  0.00    +0.073 C 
ATOM     36  C   UNL     1       2.855  -3.442  -9.056  0.00  0.00    +0.024 C 
ATOM     37  C   UNL     1       2.669  -4.641  -8.123  0.00  0.00    +0.024 C 
ENDBRANCH  33  35
ENDBRANCH  30  31
ENDBRANCH  28  30
ENDBRANCH  20  21
ENDBRANCH   1  20
TORSDOF 7
