REMARK  Name = ZINC18707190
REMARK  6 active torsions:
REMARK  status: ('A' for Active; 'I' for Inactive)
REMARK    1  A    between atoms: C_1  and  C_2
REMARK    2  A    between atoms: C_3  and  N_22
REMARK    3  A    between atoms: C_5  and  S_9
REMARK    4  A    between atoms: S_9  and  N_12
REMARK    5  A    between atoms: N_12  and  C_13
REMARK    6  A    between atoms: C_16  and  C_19
REMARK                            x       y       z     vdW  Elec       q    Type
REMARK                         _______ _______ _______ _____ _____    ______ ____
ROOT
ATOM      1  S   UNL     1       2.367  -2.950  -1.008  0.00  0.00    +0.072 S 
ATOM      2  O   UNL     1       2.365  -4.370  -1.066  0.00  0.00    -0.150 OA
ATOM      3  O   UNL     1       2.107  -2.141  -2.147  0.00  0.00    -0.150 OA
ENDROOT
BRANCH   1   8
ATOM      4  C   UNL     1       7.793  -1.320   1.068  0.00  0.00    +0.047 C 
ATOM      5  C   UNL     1       6.438  -1.727   0.549  0.00  0.00    -0.002 A 
ATOM      6  C   UNL     1       5.989  -3.022   0.729  0.00  0.00    +0.132 A 
ATOM      7  C   UNL     1       4.746  -3.395   0.253  0.00  0.00    +0.062 A 
ATOM      8  C   UNL     1       3.951  -2.474  -0.402  0.00  0.00    +0.112 A 
ATOM      9  C   UNL     1       4.401  -1.180  -0.588  0.00  0.00    +0.049 A 
ATOM     10  C   UNL     1       5.643  -0.804  -0.107  0.00  0.00    +0.048 A 
ATOM     11 CL   UNL     1       6.206   0.822  -0.334  0.00  0.00    -0.083 Cl
BRANCH   6  12
ATOM     12  N   UNL     1       6.840  -4.009   1.431  0.00  0.00    +0.057 N 
ATOM     13  O   UNL     1       8.047  -3.995   1.271  0.00  0.00    -0.126 OA
ATOM     14  O   UNL     1       6.333  -4.835   2.168  0.00  0.00    -0.126 OA
ENDBRANCH   6  12
ENDBRANCH   1   8
BRANCH   1  15
ATOM     15  N   UNL     1       1.254  -2.522   0.141  0.00  0.00    -0.216 N 
ATOM     16  H   UNL     1       0.555  -1.884  -0.074  0.00  0.00    +0.174 HD
BRANCH  15  17
ATOM     17  C   UNL     1       1.320  -3.077   1.414  0.00  0.00    +0.048 A 
ATOM     18  C   UNL     1       1.198  -2.261   2.535  0.00  0.00    +0.025 A 
ATOM     19  C   UNL     1       1.263  -2.807   3.796  0.00  0.00    +0.015 A 
ATOM     20  C   UNL     1       1.452  -4.183   3.952  0.00  0.00    +0.037 A 
ATOM     21  C   UNL     1       1.575  -5.000   2.824  0.00  0.00    +0.015 A 
ATOM     22  C   UNL     1       1.509  -4.448   1.565  0.00  0.00    +0.025 A 
BRANCH  20  23
ATOM     23  C   UNL     1       1.523  -4.772   5.302  0.00  0.00    +0.242 C 
ATOM     24  O   UNL     1       1.416  -4.060   6.282  0.00  0.00    -0.270 OA
ATOM     25  N   UNL     1       1.705  -6.099   5.450  0.00  0.00    -0.325 N 
ATOM     26  H   UNL     1       1.790  -6.667   4.669  0.00  0.00    +0.145 HD
ATOM     27  H   UNL     1       1.751  -6.486   6.338  0.00  0.00    +0.145 HD
ENDBRANCH  20  23
ENDBRANCH  15  17
ENDBRANCH   1  15
TORSDOF 5
