REMARK  Name = ZINC40366902
REMARK  7 active torsions:
REMARK  status: ('A' for Active; 'I' for Inactive)
REMARK    1  A    between atoms: C_1  and  C_2
REMARK    2  A    between atoms: C_3  and  S_9
REMARK    3  A    between atoms: C_4  and  C_8
REMARK    4  A    between atoms: S_9  and  N_12
REMARK    5  A    between atoms: N_12  and  C_13
REMARK    6  A    between atoms: C_13  and  C_20
REMARK    7  A    between atoms: N_16  and  C_19
REMARK                            x       y       z     vdW  Elec       q    Type
REMARK                         _______ _______ _______ _____ _____    ______ ____
ROOT
ATOM      1  S   UNL     1      -0.008  -0.247  -2.770  0.00  0.00    +0.063 S 
ATOM      2  O   UNL     1      -0.548  -1.312  -3.541  0.00  0.00    -0.153 OA
ATOM      3  O   UNL     1      -0.578   1.055  -2.765  0.00  0.00    -0.153 OA
ENDROOT
BRANCH   1   6
ATOM      4  C   UNL     1      -0.018   1.503   0.010  0.00  0.00    +0.067 C 
ATOM      5  C   UNL     1       0.002  -0.004   0.002  0.00  0.00    +0.060 A 
ATOM      6  C   UNL     1       0.008  -0.796  -1.095  0.00  0.00    +0.148 A 
ATOM      7  C   UNL     1       0.028  -2.127  -0.666  0.00  0.00    +0.086 A 
ATOM      8  N   UNL     1       0.035  -2.134   0.643  0.00  0.00    -0.177 NA
ATOM      9  N   UNL     1       0.024  -0.805   1.088  0.00  0.00    -0.280 N 
ATOM     10  H   UNL     1       0.029  -0.513   2.013  0.00  0.00    +0.189 HD
ATOM     11  C   UNL     1       0.040  -3.343  -1.556  0.00  0.00    +0.069 C 
ENDBRANCH   1   6
BRANCH   1  12
ATOM     12  N   UNL     1       1.569  -0.072  -3.243  0.00  0.00    -0.170 NA
ATOM     13  H   UNL     1       1.914   0.806  -3.466  0.00  0.00    +0.150 HD
BRANCH  12  14
ATOM     14  C   UNL     1       2.444  -1.245  -3.324  0.00  0.00    +0.128 C 
ATOM     15  C   UNL     1       1.870  -2.242  -4.335  0.00  0.00    +0.054 C 
ATOM     16  C   UNL     1       2.819  -3.436  -4.460  0.00  0.00    +0.087 C 
ATOM     17  N   UNL     1       4.139  -2.969  -4.902  0.00  0.00    -0.305 NA
ATOM     18  C   UNL     1       4.731  -2.047  -3.924  0.00  0.00    +0.087 C 
ATOM     19  C   UNL     1       3.839  -0.811  -3.782  0.00  0.00    +0.054 C 
ATOM     20  C   UNL     1       5.037  -4.102  -5.167  0.00  0.00    +0.104 C 
BRANCH  14  21
ATOM     21  C   UNL     1       2.537  -1.882  -2.001  0.00  0.00    +0.086 C 
ATOM     22  N   UNL     1       2.608  -2.374  -0.979  0.00  0.00    -0.195 NA
ENDBRANCH  14  21
ENDBRANCH  12  14
ENDBRANCH   1  12
TORSDOF 4
