REMARK  Name = ZINC39992688
REMARK  10 active torsions:
REMARK  status: ('A' for Active; 'I' for Inactive)
REMARK    1  A    between atoms: C_3  and  O_33
REMARK    2  A    between atoms: C_6  and  C_7
REMARK    3  A    between atoms: C_8  and  C_9
REMARK    4  A    between atoms: C_8  and  C_11
REMARK    5  A    between atoms: N_13  and  C_14
REMARK    6  A    between atoms: C_15  and  C_23
REMARK    7  A    between atoms: N_25  and  C_26
REMARK    8  A    between atoms: C_26  and  C_27
REMARK    9  A    between atoms: O_33  and  C_34
REMARK   10  A    between atoms: C_34  and  C_35
REMARK                            x       y       z     vdW  Elec       q    Type
REMARK                         _______ _______ _______ _____ _____    ______ ____
ROOT
ATOM      1  C   UNL     1      -2.499  -2.876  -0.203  0.00  0.00    +0.259 C 
ATOM      2  O   UNL     1      -3.560  -2.281  -0.190  0.00  0.00    -0.269 OA
ATOM      3  N   UNL     1      -2.481  -4.220  -0.312  0.00  0.00    -0.275 N 
ATOM      4  H   UNL     1      -1.635  -4.694  -0.324  0.00  0.00    +0.156 HD
ENDROOT
BRANCH   3   5
ATOM      5  C   UNL     1      -3.670  -4.923  -0.409  0.00  0.00    +0.085 A 
ATOM      6  C   UNL     1      -3.843  -6.294  -0.521  0.00  0.00    +0.069 A 
ATOM      7  C   UNL     1      -5.207  -6.786  -0.607  0.00  0.00    -0.023 A 
ATOM      8  C   UNL     1      -6.147  -5.817  -0.566  0.00  0.00    -0.004 A 
ATOM      9  S   UNL     1      -5.234  -4.311  -0.409  0.00  0.00    -0.077 S 
ATOM     10  C   UNL     1      -7.632  -6.002  -0.635  0.00  0.00    +0.043 C 
ATOM     11  C   UNL     1      -7.919  -7.424  -1.138  0.00  0.00    +0.005 C 
ATOM     12  C   UNL     1      -7.060  -8.413  -0.345  0.00  0.00    +0.005 C 
ATOM     13  C   UNL     1      -5.588  -8.254  -0.733  0.00  0.00    +0.037 C 
BRANCH   6  14
ATOM     14  C   UNL     1      -2.698  -7.208  -0.551  0.00  0.00    +0.247 C 
ATOM     15  O   UNL     1      -2.260  -7.670   0.486  0.00  0.00    -0.270 OA
ATOM     16  N   UNL     1      -2.130  -7.538  -1.728  0.00  0.00    -0.309 N 
ATOM     17  H   UNL     1      -2.480  -7.171  -2.555  0.00  0.00    +0.149 HD
BRANCH  16  18
ATOM     18  C   UNL     1      -0.986  -8.452  -1.759  0.00  0.00    +0.136 C 
BRANCH  18  19
ATOM     19  C   UNL     1      -0.536  -8.659  -3.207  0.00  0.00    +0.135 C 
ATOM     20  C   UNL     1       0.653  -9.651  -3.264  0.00  0.00    +0.035 C 
ATOM     21  C   UNL     1       0.512 -10.196  -4.712  0.00  0.00    +0.031 C 
ATOM     22  C   UNL     1      -1.019 -10.201  -4.913  0.00  0.00    +0.160 C 
ATOM     23  O   UNL     1      -1.583  -9.280  -3.970  0.00  0.00    -0.375 OA
ENDBRANCH  18  19
ENDBRANCH  16  18
ENDBRANCH   6  14
ENDBRANCH   3   5
BRANCH   1  25
ATOM     24  C   UNL     1      -1.254  -0.756   0.011  0.00  0.00    +0.032 C 
ATOM     25  C   UNL     1      -1.236  -2.130  -0.101  0.00  0.00    +0.114 C 
BRANCH  24  31
ATOM     26  C   UNL     1       0.971  -0.590   1.104  0.00  0.00    +0.011 A 
ATOM     27  C   UNL     1       2.127   0.095   1.349  0.00  0.00    +0.046 A 
ATOM     28  C   UNL     1       2.329   1.349   0.782  0.00  0.00    +0.121 A 
ATOM     29  C   UNL     1       1.357   1.914  -0.037  0.00  0.00    +0.046 A 
ATOM     30  C   UNL     1       0.196   1.238  -0.290  0.00  0.00    +0.011 A 
ATOM     31  C   UNL     1      -0.013  -0.027   0.278  0.00  0.00    -0.023 A 
BRANCH  28  32
ATOM     32  O   UNL     1       3.479   2.026   1.031  0.00  0.00    -0.483 OA
BRANCH  32  33
ATOM     33  C   UNL     1       3.622   3.308   0.417  0.00  0.00    +0.324 C 
BRANCH  33  34
ATOM     34  C   UNL     1       4.952   3.904   0.804  0.00  0.00    +0.248 C 
ATOM     35  O   UNL     1       5.702   3.290   1.533  0.00  0.00    -0.272 OA
ATOM     36  N   UNL     1       5.306   5.118   0.340  0.00  0.00    -0.327 N 
ATOM     37  H   UNL     1       4.706   5.609  -0.243  0.00  0.00    +0.145 HD
ATOM     38  H   UNL     1       6.162   5.502   0.589  0.00  0.00    +0.145 HD
ENDBRANCH  33  34
ENDBRANCH  32  33
ENDBRANCH  28  32
ENDBRANCH  24  31
BRANCH  25  39
ATOM     39  C   UNL     1       0.013  -2.830  -0.117  0.00  0.00    +0.104 C 
ATOM     40  N   UNL     1       1.004  -3.385  -0.131  0.00  0.00    -0.191 NA
ENDBRANCH  25  39
ENDBRANCH   1  25
TORSDOF 10
