REMARK  Name = ZINC17410168
REMARK  11 active torsions:
REMARK  status: ('A' for Active; 'I' for Inactive)
REMARK    1  A    between atoms: C_1  and  C_2
REMARK    2  A    between atoms: C_2  and  N_3
REMARK    3  A    between atoms: N_3  and  C_4
REMARK    4  A    between atoms: N_3  and  S_6
REMARK    5  A    between atoms: C_4  and  C_5
REMARK    6  A    between atoms: S_6  and  C_9
REMARK    7  A    between atoms: C_15  and  C_20
REMARK    8  A    between atoms: C_17  and  O_19
REMARK    9  A    between atoms: N_22  and  C_23
REMARK   10  A    between atoms: C_26  and  C_30
REMARK   11  A    between atoms: C_28  and  O_29
REMARK                            x       y       z     vdW  Elec       q    Type
REMARK                         _______ _______ _______ _____ _____    ______ ____
ROOT
ATOM      1  C   UNL     1       1.464  -1.123  -2.150  0.00  0.00    +0.106 A 
ATOM      2  C   UNL     1       2.023  -0.173  -3.001  0.00  0.00    +0.030 A 
ATOM      3  C   UNL     1       3.293  -0.312  -3.470  0.00  0.00    +0.030 A 
ATOM      4  C   UNL     1       4.054  -1.436  -3.101  0.00  0.00    +0.076 A 
ATOM      5  C   UNL     1       3.480  -2.402  -2.240  0.00  0.00    +0.015 A 
ATOM      6  C   UNL     1       2.172  -2.224  -1.771  0.00  0.00    +0.039 A 
ATOM      7  C   UNL     1       4.248  -3.536  -1.867  0.00  0.00    +0.051 A 
ATOM      8  C   UNL     1       5.535  -3.641  -2.371  0.00  0.00    +0.080 A 
ATOM      9  C   UNL     1       6.028  -2.642  -3.218  0.00  0.00    +0.214 A 
ATOM     10  N   UNL     1       5.302  -1.598  -3.552  0.00  0.00    -0.213 NA
ENDROOT
BRANCH   7  11
ATOM     11  C   UNL     1       3.693  -4.573  -0.970  0.00  0.00    +0.249 C 
ATOM     12  O   UNL     1       2.602  -4.412  -0.457  0.00  0.00    -0.270 OA
ATOM     13  N   UNL     1       4.396  -5.696  -0.722  0.00  0.00    -0.279 N 
ATOM     14  H   UNL     1       5.299  -5.788  -1.063  0.00  0.00    +0.155 HD
BRANCH  13  15
ATOM     15  C   UNL     1       3.822  -6.729   0.029  0.00  0.00    +0.076 A 
ATOM     16  C   UNL     1       2.461  -6.983  -0.063  0.00  0.00    +0.027 A 
ATOM     17  C   UNL     1       1.897  -8.003   0.680  0.00  0.00    +0.005 A 
ATOM     18  C   UNL     1       2.686  -8.773   1.515  0.00  0.00    -0.047 A 
ATOM     19  C   UNL     1       4.043  -8.525   1.612  0.00  0.00    +0.050 A 
ATOM     20  C   UNL     1       4.617  -7.508   0.868  0.00  0.00    +0.138 A 
ATOM     21  C   UNL     1       2.066  -9.884   2.322  0.00  0.00    +0.044 C 
BRANCH  20  22
ATOM     22  O   UNL     1       5.952  -7.267   0.958  0.00  0.00    -0.505 OA
ATOM     23  H   UNL     1       6.192  -6.633   1.647  0.00  0.00    +0.292 HD
ENDBRANCH  20  22
ENDBRANCH  13  15
ENDBRANCH   7  11
BRANCH   1  24
ATOM     24  S   UNL     1      -0.181  -0.901  -1.559  0.00  0.00    +0.061 S 
ATOM     25  O   UNL     1      -0.671  -2.192  -1.226  0.00  0.00    -0.153 OA
ATOM     26  O   UNL     1      -0.837  -0.055  -2.494  0.00  0.00    -0.153 OA
BRANCH  24  27
ATOM     27  N   UNL     1      -0.082  -0.051  -0.141  0.00  0.00    -0.177 NA
BRANCH  27  29
ATOM     28  C   UNL     1       1.304   1.964  -0.165  0.00  0.00    +0.022 C 
ATOM     29  C   UNL     1      -0.123   1.413  -0.160  0.00  0.00    +0.106 C 
ENDBRANCH  27  29
BRANCH  27  30
ATOM     30  C   UNL     1       0.047  -0.764   1.132  0.00  0.00    +0.106 C 
ATOM     31  C   UNL     1      -1.337  -0.941   1.760  0.00  0.00    +0.022 C 
ENDBRANCH  27  30
ENDBRANCH  24  27
ENDBRANCH   1  24
BRANCH   9  32
ATOM     32  O   UNL     1       7.288  -2.752  -3.707  0.00  0.00    -0.492 OA
ATOM     33  H   UNL     1       7.343  -3.225  -4.549  0.00  0.00    +0.294 HD
ENDBRANCH   9  32
TORSDOF 8
