REMARK  Name = ZINC61444305
REMARK  4 active torsions:
REMARK  status: ('A' for Active; 'I' for Inactive)
REMARK    1  A    between atoms: C_3  and  O_10
REMARK    2  A    between atoms: C_6  and  C_7
REMARK    3  A    between atoms: O_10  and  C_11
REMARK    4  A    between atoms: C_11  and  C_13
REMARK                            x       y       z     vdW  Elec       q    Type
REMARK                         _______ _______ _______ _____ _____    ______ ____
ROOT
ATOM      1  C   UNL     1       3.479   3.460  -0.116  0.00  0.00    +0.345 C 
ATOM      2  O   UNL     1       2.399   4.017  -0.101  0.00  0.00    -0.245 OA
ENDROOT
BRANCH   1   3
ATOM      3  C   UNL     1       4.715   4.252  -0.239  0.00  0.00    +0.061 A 
ATOM      4  C   UNL     1       5.957   3.609  -0.262  0.00  0.00    +0.016 A 
ATOM      5  C   UNL     1       7.110   4.353  -0.380  0.00  0.00    +0.017 A 
ATOM      6  C   UNL     1       7.039   5.736  -0.474  0.00  0.00    +0.030 A 
ATOM      7  C   UNL     1       5.804   6.393  -0.449  0.00  0.00    +0.048 A 
ATOM      8  C   UNL     1       4.644   5.644  -0.339  0.00  0.00    +0.039 A 
ATOM      9  N   UNL     1       5.715   7.781  -0.532  0.00  0.00    -0.284 N 
ATOM     10  C   UNL     1       6.636   8.599  -1.033  0.00  0.00    +0.227 C 
ATOM     11  O   UNL     1       6.401   9.789  -1.042  0.00  0.00    -0.275 OA
ATOM     12  C   UNL     1       7.953   8.131  -1.589  0.00  0.00    +0.170 C 
ATOM     13  S   UNL     1       8.515   6.692  -0.630  0.00  0.00    -0.114 S 
ATOM     14  H   UNL     1       4.904   8.189  -0.192  0.00  0.00    +0.155 HD
ENDBRANCH   1   3
BRANCH   1  15
ATOM     15  O   UNL     1       3.546   2.117  -0.020  0.00  0.00    -0.421 OA
BRANCH  15  18
ATOM     16  C   UNL     1       0.641   0.288   1.178  0.00  0.00    +0.022 A 
ATOM     17  C   UNL     1       1.823   0.997   1.176  0.00  0.00    +0.049 A 
ATOM     18  C   UNL     1       2.381   1.419  -0.024  0.00  0.00    +0.150 A 
ATOM     19  C   UNL     1       1.750   1.128  -1.228  0.00  0.00    +0.084 A 
ATOM     20  C   UNL     1       0.568   0.419  -1.236  0.00  0.00    +0.042 A 
ATOM     21  C   UNL     1       0.004  -0.007  -0.030  0.00  0.00    +0.053 A 
ATOM     22 CL   UNL     1       2.452   1.659  -2.725  0.00  0.00    -0.080 Cl
BRANCH  21  23
ATOM     23  C   UNL     1      -1.224  -0.743  -0.033  0.00  0.00    +0.099 C 
ATOM     24  N   UNL     1      -2.199  -1.328  -0.035  0.00  0.00    -0.191 NA
ENDBRANCH  21  23
ENDBRANCH  15  18
ENDBRANCH   1  15
TORSDOF 4
