REMARK  Name = ZINC13095475
REMARK  7 active torsions:
REMARK  status: ('A' for Active; 'I' for Inactive)
REMARK    1  A    between atoms: C_10  and  N_11
REMARK    2  A    between atoms: N_11  and  C_12
REMARK    3  A    between atoms: C_12  and  C_13
REMARK    4  A    between atoms: C_13  and  N_14
REMARK    5  A    between atoms: C_17  and  C_31
REMARK    6  A    between atoms: C_22  and  C_24
REMARK    7  A    between atoms: C_24  and  N_25
REMARK                            x       y       z     vdW  Elec       q    Type
REMARK                         _______ _______ _______ _____ _____    ______ ____
ROOT
ATOM      1  N   UNL     1      -3.166   4.209  -0.629  0.00  0.00    -0.327 N 
ATOM      2  C   UNL     1      -1.808   4.470  -0.579  0.00  0.00    +0.131 A 
ATOM      3  C   UNL     1      -0.889   3.435  -0.260  0.00  0.00    +0.056 A 
ATOM      4  C   UNL     1      -1.138   2.029   0.045  0.00  0.00    +0.008 A 
ATOM      5  C   UNL     1      -0.083   1.227   0.327  0.00  0.00    +0.057 A 
ATOM      6  S   UNL     1       1.319   2.320   0.184  0.00  0.00    -0.076 S 
ATOM      7  C   UNL     1       0.468   3.816  -0.238  0.00  0.00    +0.114 A 
ATOM      8  N   UNL     1       0.838   5.055  -0.501  0.00  0.00    -0.223 NA
ATOM      9  C   UNL     1      -0.062   5.974  -0.791  0.00  0.00    +0.146 A 
ATOM     10  N   UNL     1      -1.351   5.686  -0.829  0.00  0.00    -0.216 NA
ATOM     11  H   UNL     1      -3.532   3.177  -0.518  0.00  0.00    +0.148 HD
ENDROOT
BRANCH   4  12
ATOM     12  C   UNL     1      -2.515   1.492   0.051  0.00  0.00    +0.021 A 
ATOM     13  C   UNL     1      -3.046   0.470  -0.690  0.00  0.00    +0.016 A 
ATOM     14  C   UNL     1      -4.373   0.142  -0.511  0.00  0.00    +0.008 A 
ATOM     15  C   UNL     1      -5.110   0.839   0.390  0.00  0.00    +0.046 A 
ATOM     16  S   UNL     1      -3.917   2.002   1.031  0.00  0.00    -0.097 S 
ENDBRANCH   4  12
BRANCH   1  17
ATOM     17  C   UNL     1      -4.116   5.306  -0.829  0.00  0.00    +0.121 C 
BRANCH  17  18
ATOM     18  C   UNL     1      -5.542   4.750  -0.845  0.00  0.00    +0.120 C 
BRANCH  18  19
ATOM     19  N   UNL     1      -6.492   5.847  -1.045  0.00  0.00    -0.342 N 
ATOM     20  H   UNL     1      -6.125   6.878  -1.156  0.00  0.00    +0.146 HD
BRANCH  19  30
ATOM     21  C   UNL     1     -10.629   8.668  -1.665  0.00  0.00    +0.001 A 
ATOM     22  C   UNL     1      -9.265   8.953  -1.617  0.00  0.00    +0.001 A 
ATOM     23  C   UNL     1      -8.349   7.964  -1.432  0.00  0.00    +0.010 A 
ATOM     24  C   UNL     1      -8.780   6.636  -1.281  0.00  0.00    +0.003 A 
ATOM     25  C   UNL     1     -10.166   6.345  -1.335  0.00  0.00    -0.016 A 
ATOM     26  C   UNL     1     -11.083   7.393  -1.527  0.00  0.00    +0.008 A 
ATOM     27  C   UNL     1     -10.599   5.016  -1.189  0.00  0.00    +0.008 A 
ATOM     28  C   UNL     1      -9.688   4.020  -1.004  0.00  0.00    +0.002 A 
ATOM     29  C   UNL     1      -8.325   4.293  -0.956  0.00  0.00    +0.023 A 
ATOM     30  C   UNL     1      -7.859   5.584  -1.095  0.00  0.00    +0.035 A 
ENDBRANCH  19  30
ENDBRANCH  18  19
ENDBRANCH  17  18
ENDBRANCH   1  17
BRANCH   9  31
ATOM     31  C   UNL     1       0.388   7.381  -1.085  0.00  0.00    +0.160 C 
BRANCH  31  32
ATOM     32  N   UNL     1       0.424   8.155   0.163  0.00  0.00    -0.291 NA
ATOM     33  C   UNL     1      -0.928   8.336   0.710  0.00  0.00    +0.113 C 
ATOM     34  C   UNL     1      -0.839   9.094   2.037  0.00  0.00    +0.175 C 
ATOM     35  O   UNL     1      -0.170  10.340   1.825  0.00  0.00    -0.377 OA
ATOM     36  C   UNL     1       1.150  10.202   1.292  0.00  0.00    +0.175 C 
ATOM     37  C   UNL     1       1.081   9.455  -0.042  0.00  0.00    +0.113 C 
ENDBRANCH  31  32
ENDBRANCH   9  31
TORSDOF 7
