REMARK  Name = ZINC39967477
REMARK  10 active torsions:
REMARK  status: ('A' for Active; 'I' for Inactive)
REMARK    1  A    between atoms: C_1  and  C_2
REMARK    2  A    between atoms: C_2  and  C_3
REMARK    3  A    between atoms: C_3  and  C_5
REMARK    4  A    between atoms: C_3  and  N_6
REMARK    5  A    between atoms: N_9  and  C_10
REMARK    6  A    between atoms: C_11  and  C_22
REMARK    7  A    between atoms: C_12  and  C_15
REMARK    8  A    between atoms: C_22  and  O_24
REMARK    9  A    between atoms: O_24  and  C_25
REMARK   10  A    between atoms: C_25  and  C_26
REMARK                            x       y       z     vdW  Elec       q    Type
REMARK                         _______ _______ _______ _____ _____    ______ ____
ROOT
ATOM      1  C   UNL     1       0.483   0.526  -5.944  0.00  0.00    +0.088 A 
ATOM      2  C   UNL     1      -0.084   0.886  -7.156  0.00  0.00    +0.095 A 
ATOM      3  C   UNL     1       0.814   0.966  -8.295  0.00  0.00    +0.005 A 
ATOM      4  C   UNL     1       2.115   0.677  -8.032  0.00  0.00    +0.056 A 
ATOM      5  S   UNL     1       2.110   0.315  -6.290  0.00  0.00    -0.080 S 
ENDROOT
BRANCH   3   6
ATOM      6  C   UNL     1       0.344   1.338  -9.650  0.00  0.00    -0.015 A 
ATOM      7  C   UNL     1      -0.765   0.700 -10.206  0.00  0.00    +0.008 A 
ATOM      8  C   UNL     1      -1.199   1.050 -11.468  0.00  0.00    +0.002 A 
ATOM      9  C   UNL     1      -0.537   2.033 -12.182  0.00  0.00    +0.015 A 
ATOM     10  C   UNL     1       0.564   2.670 -11.636  0.00  0.00    +0.018 A 
ATOM     11  C   UNL     1       1.004   2.332 -10.372  0.00  0.00    +0.023 A 
ATOM     12 BR   UNL     1       1.462   4.012 -12.621  0.00  0.00    -0.050 Br
ENDBRANCH   3   6
BRANCH   1  16
ATOM     13  N   UNL     1      -0.055  -0.114  -2.441  0.00  0.00    -0.297 N 
ATOM     14  C   UNL     1       0.561   0.028  -3.631  0.00  0.00    +0.304 C 
ATOM     15  O   UNL     1       1.758  -0.163  -3.722  0.00  0.00    -0.252 OA
ATOM     16  N   UNL     1      -0.150   0.381  -4.720  0.00  0.00    -0.263 N 
ATOM     17  H   UNL     1      -1.010   0.038  -2.368  0.00  0.00    +0.151 HD
ATOM     18  H   UNL     1      -1.105   0.533  -4.647  0.00  0.00    +0.157 HD
BRANCH  13  19
ATOM     19  C   UNL     1       0.718  -0.497  -1.257  0.00  0.00    +0.071 C 
ATOM     20  C   UNL     1       0.849  -2.021  -1.205  0.00  0.00    +0.028 C 
BRANCH  19  22
ATOM     21  C   UNL     1      -0.019   1.526   0.010  0.00  0.00    +0.005 C 
ATOM     22  C   UNL     1       0.002  -0.004   0.002  0.00  0.00    +0.019 C 
ENDBRANCH  19  22
ENDBRANCH  13  19
ENDBRANCH   1  16
BRANCH   2  23
ATOM     23  C   UNL     1      -1.514   1.169  -7.283  0.00  0.00    +0.342 C 
ATOM     24  O   UNL     1      -1.926   2.302  -7.120  0.00  0.00    -0.245 OA
BRANCH  23  25
ATOM     25  O   UNL     1      -2.375   0.174  -7.580  0.00  0.00    -0.461 OA
BRANCH  25  26
ATOM     26  C   UNL     1      -3.756   0.522  -7.688  0.00  0.00    +0.229 C 
ATOM     27  C   UNL     1      -4.572  -0.727  -8.028  0.00  0.00    +0.048 C 
ENDBRANCH  25  26
ENDBRANCH  23  25
ENDBRANCH   2  23
TORSDOF 7
