REMARK  Name = ZINC12709924
REMARK  10 active torsions:
REMARK  status: ('A' for Active; 'I' for Inactive)
REMARK    1  A    between atoms: C_1  and  C_2
REMARK    2  A    between atoms: C_2  and  C_4
REMARK    3  A    between atoms: C_2  and  N_12
REMARK    4  A    between atoms: N_6  and  C_7
REMARK    5  A    between atoms: N_12  and  C_13
REMARK    6  A    between atoms: C_20  and  C_22
REMARK    7  A    between atoms: C_22  and  S_23
REMARK    8  A    between atoms: S_23  and  C_25
REMARK    9  A    between atoms: C_25  and  C_26
REMARK   10  A    between atoms: N_28  and  C_29
REMARK                            x       y       z     vdW  Elec       q    Type
REMARK                         _______ _______ _______ _____ _____    ______ ____
ROOT
ATOM      1  N   UNL     1       3.369   2.044   1.045  0.00  0.00    -0.259 N 
ATOM      2  C   UNL     1       2.104   1.899   0.604  0.00  0.00    +0.233 C 
ATOM      3  O   UNL     1       1.234   1.536   1.367  0.00  0.00    -0.274 OA
ENDROOT
BRANCH   1   4
ATOM      4  C   UNL     1       4.352   2.559   0.192  0.00  0.00    +0.037 A 
ATOM      5  C   UNL     1       4.321   3.898  -0.176  0.00  0.00    +0.025 A 
ATOM      6  C   UNL     1       5.295   4.406  -1.013  0.00  0.00    +0.022 A 
ATOM      7  C   UNL     1       6.295   3.579  -1.494  0.00  0.00    +0.041 A 
ATOM      8  C   UNL     1       6.326   2.243  -1.133  0.00  0.00    +0.022 A 
ATOM      9  C   UNL     1       5.357   1.732  -0.291  0.00  0.00    +0.025 A 
ATOM     10 CL   UNL     1       7.514   4.219  -2.551  0.00  0.00    -0.084 Cl
ENDBRANCH   1   4
BRANCH   1  12
ATOM     11  C   UNL     1       4.733   0.518   2.384  0.00  0.00    +0.038 C 
ATOM     12  C   UNL     1       3.716   1.661   2.416  0.00  0.00    +0.164 C 
BRANCH  12  13
ATOM     13  C   UNL     1       4.312   2.845   3.132  0.00  0.00    +0.234 C 
ATOM     14  O   UNL     1       4.435   3.904   2.555  0.00  0.00    -0.274 OA
ATOM     15  N   UNL     1       4.708   2.726   4.415  0.00  0.00    -0.311 N 
ATOM     16  H   UNL     1       4.610   1.879   4.877  0.00  0.00    +0.149 HD
BRANCH  15  17
ATOM     17  C   UNL     1       5.288   3.877   5.112  0.00  0.00    +0.073 C 
ATOM     18  C   UNL     1       6.811   3.927   4.874  0.00  0.00    +0.022 C 
ATOM     19  C   UNL     1       7.392   4.415   6.224  0.00  0.00    +0.002 C 
ATOM     20  C   UNL     1       6.492   3.697   7.261  0.00  0.00    +0.002 C 
ATOM     21  C   UNL     1       5.085   3.731   6.630  0.00  0.00    +0.022 C 
ENDBRANCH  15  17
ENDBRANCH  12  13
ENDBRANCH   1  12
BRANCH   2  22
ATOM     22  C   UNL     1       1.769   2.190  -0.836  0.00  0.00    +0.200 C 
BRANCH  22  23
ATOM     23  S   UNL     1       0.040   1.747  -1.157  0.00  0.00    +0.040 S 
ATOM     24  O   UNL     1      -0.134   0.350  -0.966  0.00  0.00    -0.256 OA
BRANCH  23  25
ATOM     25  C   UNL     1      -0.200   2.152  -2.909  0.00  0.00    +0.200 C 
BRANCH  25  26
ATOM     26  C   UNL     1      -1.615   1.827  -3.311  0.00  0.00    +0.230 C 
ATOM     27  O   UNL     1      -2.387   1.368  -2.495  0.00  0.00    -0.274 OA
ATOM     28  N   UNL     1      -2.024   2.047  -4.576  0.00  0.00    -0.285 N 
ATOM     29  H   UNL     1      -1.389   2.344  -5.246  0.00  0.00    +0.155 HD
BRANCH  28  30
ATOM     30  C   UNL     1      -3.366   1.848  -4.923  0.00  0.00    +0.034 A 
ATOM     31  C   UNL     1      -3.695   1.397  -6.194  0.00  0.00    +0.026 A 
ATOM     32  C   UNL     1      -5.019   1.196  -6.533  0.00  0.00    +0.040 A 
ATOM     33  C   UNL     1      -6.018   1.453  -5.609  0.00  0.00    +0.124 A 
ATOM     34  C   UNL     1      -5.692   1.908  -4.342  0.00  0.00    +0.040 A 
ATOM     35  C   UNL     1      -4.369   2.106  -3.998  0.00  0.00    +0.026 A 
ATOM     36  F   UNL     1      -7.312   1.260  -5.944  0.00  0.00    -0.205 F 
ENDBRANCH  28  30
ENDBRANCH  25  26
ENDBRANCH  23  25
ENDBRANCH  22  23
ENDBRANCH   2  22
TORSDOF 9
