REMARK  Name = ZINC18386670
REMARK  8 active torsions:
REMARK  status: ('A' for Active; 'I' for Inactive)
REMARK    1  A    between atoms: C_1  and  C_2
REMARK    2  A    between atoms: C_2  and  C_4
REMARK    3  A    between atoms: C_2  and  S_16
REMARK    4  A    between atoms: S_16  and  C_17
REMARK    5  A    between atoms: C_20  and  C_23
REMARK    6  A    between atoms: N_21  and  N_22
REMARK    7  A    between atoms: C_23  and  O_24
REMARK    8  A    between atoms: O_24  and  C_25
REMARK                            x       y       z     vdW  Elec       q    Type
REMARK                         _______ _______ _______ _____ _____    ______ ____
ROOT
ATOM      1  C   UNL     1      -0.275   5.809  -0.902  0.00  0.00    +0.209 A 
ATOM      2  N   UNL     1       0.688   6.469  -0.300  0.00  0.00    -0.121 NA
ATOM      3  N   UNL     1       0.523   7.732  -0.470  0.00  0.00    -0.128 NA
ATOM      4  C   UNL     1      -0.549   7.952  -1.177  0.00  0.00    +0.189 A 
ATOM      5  N   UNL     1      -1.096   6.736  -1.477  0.00  0.00    -0.225 N 
ENDROOT
BRANCH   5   6
ATOM      6  N   UNL     1      -2.229   6.497  -2.203  0.00  0.00    -0.295 N 
ATOM      7  H   UNL     1      -3.041   6.470  -1.605  0.00  0.00    +0.163 HD
ATOM      8  H   UNL     1      -2.340   7.182  -2.935  0.00  0.00    +0.163 HD
ENDBRANCH   5   6
BRANCH   1   9
ATOM      9  S   UNL     1      -0.474   4.059  -0.951  0.00  0.00    -0.074 S 
BRANCH   9  11
ATOM     10  C   UNL     1       0.825   4.043   1.453  0.00  0.00    +0.027 C 
ATOM     11  C   UNL     1       0.973   3.551   0.012  0.00  0.00    +0.117 C 
BRANCH  11  12
ATOM     12  C   UNL     1       1.080   2.048   0.003  0.00  0.00    +0.124 A 
ATOM     13  N   UNL     1       2.319   1.490  -0.012  0.00  0.00    -0.309 N 
ATOM     14  H   UNL     1       3.103   2.061  -0.017  0.00  0.00    +0.170 HD
ATOM     15  C   UNL     1       2.469   0.145  -0.021  0.00  0.00    +0.259 A 
ATOM     16  O   UNL     1       3.572  -0.368  -0.034  0.00  0.00    -0.267 OA
ATOM     17  C   UNL     1       1.246  -0.672  -0.013  0.00  0.00    +0.065 A 
ATOM     18  C   UNL     1       1.291  -2.065  -0.022  0.00  0.00    +0.015 A 
ATOM     19  C   UNL     1       0.114  -2.782  -0.015  0.00  0.00    +0.001 A 
ATOM     20  C   UNL     1      -1.111  -2.128   0.000  0.00  0.00    +0.002 A 
ATOM     21  C   UNL     1      -1.177  -0.753   0.009  0.00  0.00    +0.028 A 
ATOM     22  C   UNL     1       0.002  -0.004   0.002  0.00  0.00    +0.078 A 
ATOM     23  N   UNL     1      -0.016   1.352   0.009  0.00  0.00    -0.233 NA
ENDBRANCH  11  12
ENDBRANCH   9  11
ENDBRANCH   1   9
BRANCH   4  24
ATOM     24  C   UNL     1      -1.086   9.299  -1.588  0.00  0.00    +0.306 C 
BRANCH  24  25
ATOM     25  O   UNL     1      -1.990   9.776  -0.589  0.00  0.00    -0.484 OA
BRANCH  25  26
ATOM     26  C   UNL     1      -2.568  10.987  -0.806  0.00  0.00    +0.121 A 
ATOM     27  C   UNL     1      -2.266  11.703  -1.956  0.00  0.00    +0.048 A 
ATOM     28  C   UNL     1      -2.859  12.931  -2.179  0.00  0.00    +0.042 A 
ATOM     29  C   UNL     1      -3.744  13.452  -1.250  0.00  0.00    +0.124 A 
ATOM     30  C   UNL     1      -4.041  12.741  -0.100  0.00  0.00    +0.042 A 
ATOM     31  C   UNL     1      -3.455  11.510   0.123  0.00  0.00    +0.048 A 
ATOM     32  F   UNL     1      -4.319  14.655  -1.467  0.00  0.00    -0.205 F 
ENDBRANCH  25  26
ENDBRANCH  24  25
ENDBRANCH   4  24
TORSDOF 7
