REMARK  Name = ZINC59717307
REMARK  9 active torsions:
REMARK  status: ('A' for Active; 'I' for Inactive)
REMARK    1  A    between atoms: C_1  and  C_2
REMARK    2  A    between atoms: C_9  and  C_11
REMARK    3  A    between atoms: C_13  and  N_18
REMARK    4  A    between atoms: C_19  and  C_21
REMARK    5  A    between atoms: C_21  and  O_22
REMARK    6  A    between atoms: O_22  and  C_23
REMARK    7  A    between atoms: C_24  and  C_33
REMARK    8  A    between atoms: C_26  and  C_32
REMARK    9  A    between atoms: C_28  and  N_29
REMARK                            x       y       z     vdW  Elec       q    Type
REMARK                         _______ _______ _______ _____ _____    ______ ____
ROOT
ATOM      1  C   UNL     1       0.866  -6.556   4.177  0.00  0.00    +0.057 A 
ATOM      2  C   UNL     1       0.881  -7.766   3.484  0.00  0.00    +0.038 A 
ATOM      3  C   UNL     1       0.132  -7.907   2.326  0.00  0.00    +0.034 A 
ATOM      4  C   UNL     1      -0.632  -6.844   1.859  0.00  0.00    +0.025 A 
ATOM      5  C   UNL     1      -0.648  -5.644   2.544  0.00  0.00    +0.022 A 
ATOM      6  C   UNL     1       0.090  -5.495   3.702  0.00  0.00    +0.053 A 
ATOM      7 CL   UNL     1       0.060  -3.988   4.564  0.00  0.00    -0.083 Cl
ENDROOT
BRANCH   1  16
ATOM      8  C   UNL     1       4.285  -4.415  10.357  0.00  0.00    +0.044 C 
ATOM      9  C   UNL     1       3.830  -5.263   9.198  0.00  0.00    -0.048 A 
ATOM     10  C   UNL     1       4.289  -6.566   9.076  0.00  0.00    +0.007 A 
ATOM     11  C   UNL     1       3.883  -7.356   8.020  0.00  0.00    +0.049 A 
ATOM     12  C   UNL     1       3.008  -6.846   7.072  0.00  0.00    +0.156 A 
ATOM     13  C   UNL     1       2.541  -5.527   7.192  0.00  0.00    +0.110 A 
ATOM     14  C   UNL     1       2.957  -4.742   8.270  0.00  0.00    +0.035 A 
ATOM     15  N   UNL     1       1.714  -5.310   6.137  0.00  0.00    -0.209 NA
ATOM     16  C   UNL     1       1.662  -6.398   5.412  0.00  0.00    +0.230 A 
ATOM     17  O   UNL     1       2.441  -7.352   5.955  0.00  0.00    -0.435 OA
ENDBRANCH   1  16
BRANCH   3  18
ATOM     18  N   UNL     1       0.144  -9.120   1.628  0.00  0.00    -0.283 N 
ATOM     19  C   UNL     1       0.265 -10.283   2.299  0.00  0.00    +0.255 C 
ATOM     20  O   UNL     1       0.267 -10.286   3.511  0.00  0.00    -0.272 OA
ATOM     21  H   UNL     1       0.066  -9.124   0.661  0.00  0.00    +0.155 HD
BRANCH  19  22
ATOM     22  C   UNL     1       0.398 -11.579   1.542  0.00  0.00    +0.325 C 
BRANCH  22  23
ATOM     23  O   UNL     1       0.511 -12.662   2.467  0.00  0.00    -0.480 OA
BRANCH  23  24
ATOM     24  C   UNL     1       0.640 -13.909   1.944  0.00  0.00    +0.154 A 
ATOM     25  C   UNL     1      -0.489 -14.669   1.673  0.00  0.00    -0.006 A 
ATOM     26  C   UNL     1      -0.356 -15.937   1.141  0.00  0.00    +0.010 A 
ATOM     27  C   UNL     1       0.901 -16.449   0.879  0.00  0.00    -0.048 A 
ATOM     28  C   UNL     1       2.028 -15.695   1.149  0.00  0.00    +0.039 A 
ATOM     29  C   UNL     1       1.900 -14.424   1.676  0.00  0.00    +0.168 A 
ATOM     30  C   UNL     1       1.044 -17.833   0.299  0.00  0.00    +0.044 C 
ATOM     31  C   UNL     1      -1.860 -14.111   1.959  0.00  0.00    +0.047 C 
BRANCH  29  32
ATOM     32  N   UNL     1       3.106 -13.614   1.959  0.00  0.00    +0.060 N 
ATOM     33  O   UNL     1       4.204 -14.063   1.724  0.00  0.00    -0.126 OA
ATOM     34  O   UNL     1       2.994 -12.504   2.424  0.00  0.00    -0.126 OA
ENDBRANCH  29  32
ENDBRANCH  23  24
ENDBRANCH  22  23
ENDBRANCH  19  22
ENDBRANCH   3  18
TORSDOF 6
