REMARK  Name = ZINC38603927
REMARK  8 active torsions:
REMARK  status: ('A' for Active; 'I' for Inactive)
REMARK    1  A    between atoms: C_1  and  C_2
REMARK    2  A    between atoms: C_5  and  C_29
REMARK    3  A    between atoms: N_8  and  C_10
REMARK    4  A    between atoms: C_10  and  C_11
REMARK    5  A    between atoms: N_13  and  C_14
REMARK    6  A    between atoms: C_22  and  C_24
REMARK    7  A    between atoms: C_24  and  O_26
REMARK    8  A    between atoms: O_26  and  C_27
REMARK                            x       y       z     vdW  Elec       q    Type
REMARK                         _______ _______ _______ _____ _____    ______ ____
ROOT
ATOM      1  C   UNL     1       6.052  -1.673   2.819  0.00  0.00    +0.053 C 
ATOM      2  C   UNL     1       7.412  -1.883   2.963  0.00  0.00    +0.019 A 
ATOM      3  C   UNL     1       8.182  -2.497   3.980  0.00  0.00    +0.026 A 
ATOM      4  C   UNL     1       9.531  -2.563   3.856  0.00  0.00    +0.019 A 
ATOM      5  C   UNL     1      10.190  -2.037   2.740  0.00  0.00    +0.017 A 
ATOM      6  C   UNL     1       9.518  -1.435   1.729  0.00  0.00    +0.027 A 
ATOM      7  C   UNL     1       8.104  -1.327   1.787  0.00  0.00    +0.045 A 
ATOM      8  N   UNL     1       7.235  -0.798   0.950  0.00  0.00    -0.367 N 
ATOM      9  C   UNL     1       5.884  -0.962   1.495  0.00  0.00    +0.234 C 
ATOM     10 BR   UNL     1      10.545  -3.386   5.223  0.00  0.00    -0.050 Br
ATOM     11  H   UNL     1       7.454  -0.373   0.106  0.00  0.00    +0.161 HD
ENDROOT
BRANCH   1  14
ATOM     12  C   UNL     1       3.776  -1.968   3.310  0.00  0.00    +0.200 C 
ATOM     13  O   UNL     1       3.487  -1.542   2.212  0.00  0.00    -0.278 OA
ATOM     14  N   UNL     1       5.067  -2.036   3.688  0.00  0.00    -0.288 N 
ATOM     15  H   UNL     1       5.296  -2.344   4.579  0.00  0.00    +0.155 HD
BRANCH  12  16
ATOM     16  C   UNL     1       2.690  -2.422   4.251  0.00  0.00    +0.019 C 
BRANCH  16  22
ATOM     17  C   UNL     1      -0.166   1.352   3.000  0.00  0.00    +0.005 C 
ATOM     18  C   UNL     1      -0.057  -0.173   3.032  0.00  0.00    -0.031 C 
ATOM     19  C   UNL     1      -1.211  -0.751   3.857  0.00  0.00    +0.003 C 
ATOM     20  C   UNL     1      -1.048  -2.271   3.949  0.00  0.00    -0.031 C 
ATOM     21  C   UNL     1       0.319  -2.597   4.556  0.00  0.00    -0.075 C 
ATOM     22  N   UNL     1       1.379  -2.040   3.708  0.00  0.00    +0.386 N 
ATOM     23  C   UNL     1       1.273  -0.577   3.672  0.00  0.00    -0.075 C 
ATOM     24  C   UNL     1      -2.152  -2.850   4.836  0.00  0.00    +0.005 C 
ATOM     25  H   UNL     1       1.286  -2.406   2.772  0.00  0.00    -0.081 HD
ENDBRANCH  16  22
ENDBRANCH  12  16
ENDBRANCH   1  14
BRANCH   9  26
ATOM     26  C   UNL     1       5.246   0.387   1.707  0.00  0.00    +0.335 C 
ATOM     27  O   UNL     1       5.901   1.302   2.149  0.00  0.00    -0.248 OA
BRANCH  26  28
ATOM     28  O   UNL     1       3.952   0.573   1.405  0.00  0.00    -0.466 OA
ATOM     29  C   UNL     1       3.445   1.905   1.512  0.00  0.00    +0.280 C 
ENDBRANCH  26  28
ENDBRANCH   9  26
TORSDOF 5
