REMARK  Name = ZINC38717066
REMARK  6 active torsions:
REMARK  status: ('A' for Active; 'I' for Inactive)
REMARK    1  A    between atoms: C_13  and  S_15
REMARK    2  A    between atoms: S_15  and  C_16
REMARK    3  A    between atoms: C_16  and  C_17
REMARK    4  A    between atoms: N_19  and  C_20
REMARK    5  A    between atoms: C_24  and  N_26
REMARK    6  A    between atoms: C_27  and  C_29
REMARK                            x       y       z     vdW  Elec       q    Type
REMARK                         _______ _______ _______ _____ _____    ______ ____
ROOT
ATOM      1  C   UNL     1       7.746  -4.763   3.103  0.00  0.00    +0.227 C 
ATOM      2  O   UNL     1       8.939  -4.972   3.036  0.00  0.00    -0.275 OA
ATOM      3  N   UNL     1       7.007  -5.371   4.052  0.00  0.00    -0.285 N 
ATOM      4  H   UNL     1       6.067  -5.154   4.148  0.00  0.00    +0.155 HD
ENDROOT
BRANCH   3   5
ATOM      5  C   UNL     1       7.597  -6.316   4.899  0.00  0.00    +0.035 A 
ATOM      6  C   UNL     1       6.867  -7.419   5.324  0.00  0.00    +0.023 A 
ATOM      7  C   UNL     1       7.449  -8.353   6.160  0.00  0.00    +0.004 A 
ATOM      8  C   UNL     1       8.757  -8.193   6.576  0.00  0.00    +0.023 A 
ATOM      9  C   UNL     1       9.491  -7.091   6.154  0.00  0.00    +0.035 A 
ATOM     10  C   UNL     1       8.912  -6.155   5.310  0.00  0.00    +0.046 A 
BRANCH   9  11
ATOM     11  N   UNL     1      10.816  -6.930   6.576  0.00  0.00    -0.285 N 
ATOM     12  C   UNL     1      11.605  -8.009   6.747  0.00  0.00    +0.223 C 
ATOM     13  O   UNL     1      11.145  -9.123   6.616  0.00  0.00    -0.275 OA
ATOM     14  H   UNL     1      11.165  -6.041   6.746  0.00  0.00    +0.155 HD
BRANCH  12  15
ATOM     15  C   UNL     1      13.059  -7.830   7.100  0.00  0.00    +0.048 C 
ATOM     16  C   UNL     1      13.173  -7.076   8.426  0.00  0.00    +0.019 C 
ATOM     17  C   UNL     1      14.649  -6.895   8.784  0.00  0.00    -0.009 C 
ATOM     18  C   UNL     1      15.314  -8.266   8.919  0.00  0.00    +0.007 C 
ATOM     19  C   UNL     1      15.200  -9.021   7.593  0.00  0.00    -0.009 C 
ATOM     20  C   UNL     1      13.723  -9.202   7.234  0.00  0.00    +0.019 C 
ATOM     21  C   UNL     1      15.898  -8.222   6.490  0.00  0.00    +0.007 C 
ATOM     22  C   UNL     1      15.234  -6.851   6.355  0.00  0.00    -0.009 C 
ATOM     23  C   UNL     1      15.348  -6.096   7.681  0.00  0.00    +0.007 C 
ATOM     24  C   UNL     1      13.757  -7.032   5.997  0.00  0.00    +0.019 C 
ENDBRANCH  12  15
ENDBRANCH   9  11
ENDBRANCH   3   5
BRANCH   1  25
ATOM     25  C   UNL     1       7.090  -3.824   2.123  0.00  0.00    +0.173 C 
BRANCH  25  26
ATOM     26  S   UNL     1       8.339  -3.171   0.981  0.00  0.00    -0.075 S 
BRANCH  26  38
ATOM     27  C   UNL     1       4.136  -1.174  -5.163  0.00  0.00    +0.001 A 
ATOM     28  C   UNL     1       2.897  -1.475  -4.581  0.00  0.00    +0.002 A 
ATOM     29  C   UNL     1       2.747  -1.584  -3.241  0.00  0.00    +0.026 A 
ATOM     30  C   UNL     1       3.911  -1.383  -2.370  0.00  0.00    +0.046 A 
ATOM     31  N   UNL     1       4.052  -1.460  -1.068  0.00  0.00    -0.358 N 
ATOM     32  C   UNL     1       5.399  -1.042  -0.717  0.00  0.00    +0.252 C 
ATOM     33  C   UNL     1       6.158  -0.947  -2.029  0.00  0.00    +0.117 C 
ATOM     34  C   UNL     1       5.212  -1.077  -3.018  0.00  0.00    +0.025 A 
ATOM     35  C   UNL     1       5.255  -0.980  -4.428  0.00  0.00    +0.012 A 
ATOM     36  N   UNL     1       7.492  -0.898  -2.068  0.00  0.00    -0.147 NA
ATOM     37  N   UNL     1       8.101  -1.457  -1.066  0.00  0.00    -0.122 NA
ATOM     38  C   UNL     1       7.427  -2.106  -0.085  0.00  0.00    +0.208 C 
ATOM     39  N   UNL     1       6.136  -1.985   0.122  0.00  0.00    -0.227 NA
ATOM     40  H   UNL     1       3.370  -1.748  -0.442  0.00  0.00    +0.162 HD
ENDBRANCH  26  38
ENDBRANCH  25  26
ENDBRANCH   1  25
TORSDOF 6
