REMARK  Name = ZINC39867565
REMARK  6 active torsions:
REMARK  status: ('A' for Active; 'I' for Inactive)
REMARK    1  A    between atoms: C_9  and  C_11
REMARK    2  A    between atoms: C_13  and  C_22
REMARK    3  A    between atoms: C_22  and  C_23
REMARK    4  A    between atoms: C_23  and  C_24
REMARK    5  A    between atoms: C_24  and  C_25
REMARK    6  A    between atoms: N_27  and  C_28
REMARK                            x       y       z     vdW  Elec       q    Type
REMARK                         _______ _______ _______ _____ _____    ______ ____
ROOT
ATOM      1  C   UNL     1       5.002  -2.558  -0.070  0.00  0.00    +0.069 A 
ATOM      2  H   UNL     1       4.600  -4.419   0.794  0.00  0.00    +0.166 HD
ATOM      3  C   UNL     1       6.149  -2.006  -0.539  0.00  0.00    -0.013 A 
ATOM      4  C   UNL     1       7.206  -2.998  -0.352  0.00  0.00    +0.006 A 
ATOM      5  C   UNL     1       8.576  -3.016  -0.632  0.00  0.00    +0.048 A 
ATOM      6  C   UNL     1       9.319  -4.135  -0.327  0.00  0.00    +0.124 A 
ATOM      7  C   UNL     1       8.713  -5.242   0.257  0.00  0.00    +0.040 A 
ATOM      8  C   UNL     1       7.365  -5.239   0.539  0.00  0.00    +0.029 A 
ATOM      9  C   UNL     1       6.595  -4.120   0.240  0.00  0.00    +0.047 A 
ATOM     10  N   UNL     1       5.260  -3.824   0.405  0.00  0.00    -0.353 N 
ATOM     11  F   UNL     1      10.643  -4.157  -0.596  0.00  0.00    -0.205 F 
ENDROOT
BRANCH   1  20
ATOM     12  C   UNL     1      -0.014   1.355  -0.041  0.00  0.00    +0.001 A 
ATOM     13  C   UNL     1       1.171   2.087  -0.041  0.00  0.00    +0.002 A 
ATOM     14  C   UNL     1       2.381   1.463  -0.046  0.00  0.00    +0.028 A 
ATOM     15  C   UNL     1       2.442   0.058  -0.053  0.00  0.00    +0.072 A 
ATOM     16  C   UNL     1       1.234  -0.684  -0.053  0.00  0.00    +0.000 A 
ATOM     17  C   UNL     1       0.005  -0.007  -0.047  0.00  0.00    +0.010 A 
ATOM     18  C   UNL     1       1.292  -2.093  -0.059  0.00  0.00    +0.012 A 
ATOM     19  C   UNL     1       2.517  -2.689  -0.064  0.00  0.00    +0.030 A 
ATOM     20  C   UNL     1       3.680  -1.898  -0.064  0.00  0.00    +0.088 A 
ATOM     21  N   UNL     1       3.616  -0.579  -0.058  0.00  0.00    -0.245 NA
ENDBRANCH   1  20
BRANCH   3  22
ATOM     22  C   UNL     1       6.305  -0.632  -1.139  0.00  0.00    +0.038 C 
BRANCH  22  23
ATOM     23  C   UNL     1       6.633   0.373  -0.033  0.00  0.00    +0.014 C 
BRANCH  23  24
ATOM     24  C   UNL     1       6.790   1.768  -0.641  0.00  0.00    +0.096 C 
BRANCH  24  25
ATOM     25  C   UNL     1       7.113   2.757   0.448  0.00  0.00    +0.217 C 
ATOM     26  O   UNL     1       7.208   2.384   1.598  0.00  0.00    -0.275 OA
ATOM     27  N   UNL     1       7.297   4.058   0.144  0.00  0.00    -0.285 N 
ATOM     28  H   UNL     1       7.287   4.345  -0.782  0.00  0.00    +0.155 HD
BRANCH  27  29
ATOM     29  C   UNL     1       7.501   4.993   1.166  0.00  0.00    +0.035 A 
ATOM     30  C   UNL     1       6.987   6.278   1.045  0.00  0.00    +0.025 A 
ATOM     31  C   UNL     1       7.189   7.199   2.054  0.00  0.00    +0.023 A 
ATOM     32  C   UNL     1       7.902   6.843   3.185  0.00  0.00    +0.059 A 
ATOM     33  C   UNL     1       8.416   5.563   3.308  0.00  0.00    +0.061 A 
ATOM     34  C   UNL     1       8.212   4.636   2.303  0.00  0.00    +0.044 A 
ATOM     35 CL   UNL     1       9.312   5.121   4.728  0.00  0.00    -0.082 Cl
ATOM     36 CL   UNL     1       8.154   8.004   4.451  0.00  0.00    -0.082 Cl
ENDBRANCH  27  29
ENDBRANCH  24  25
ENDBRANCH  23  24
ENDBRANCH  22  23
ENDBRANCH   3  22
TORSDOF 6
