REMARK  Name = ZINC09779567
REMARK  9 active torsions:
REMARK  status: ('A' for Active; 'I' for Inactive)
REMARK    1  A    between atoms: C_1  and  C_2
REMARK    2  A    between atoms: C_4  and  O_10
REMARK    3  A    between atoms: C_6  and  C_9
REMARK    4  A    between atoms: O_10  and  C_11
REMARK    5  A    between atoms: C_11  and  C_12
REMARK    6  A    between atoms: N_14  and  N_15
REMARK    7  A    between atoms: C_16  and  C_18
REMARK    8  A    between atoms: C_18  and  O_19
REMARK    9  A    between atoms: O_19  and  C_20
REMARK                            x       y       z     vdW  Elec       q    Type
REMARK                         _______ _______ _______ _____ _____    ______ ____
ROOT
ATOM      1  C   UNL     1      -6.836  -0.943   3.057  0.00  0.00    +0.267 C 
ATOM      2  O   UNL     1      -6.433  -0.713   4.177  0.00  0.00    -0.271 OA
ATOM      3  N   UNL     1      -6.135  -0.518   1.987  0.00  0.00    -0.231 N 
ATOM      4  H   UNL     1      -6.458  -0.702   1.091  0.00  0.00    +0.173 HD
ENDROOT
BRANCH   3   5
ATOM      5  N   UNL     1      -4.940   0.190   2.170  0.00  0.00    -0.231 N 
ATOM      6  C   UNL     1      -4.239   0.616   1.100  0.00  0.00    +0.267 C 
ATOM      7  O   UNL     1      -4.643   0.385  -0.020  0.00  0.00    -0.271 OA
ATOM      8  H   UNL     1      -4.617   0.374   3.066  0.00  0.00    +0.173 HD
BRANCH   6   9
ATOM      9  C   UNL     1      -2.954   1.377   1.296  0.00  0.00    +0.326 C 
BRANCH   9  10
ATOM     10  O   UNL     1      -2.402   1.716   0.022  0.00  0.00    -0.480 OA
BRANCH  10  11
ATOM     11  C   UNL     1      -1.233   2.410   0.021  0.00  0.00    +0.153 A 
ATOM     12  C   UNL     1      -0.021   1.732   0.012  0.00  0.00    +0.085 A 
ATOM     13  C   UNL     1       1.166   2.440   0.004  0.00  0.00    +0.043 A 
ATOM     14  C   UNL     1       1.147   3.823   0.011  0.00  0.00    +0.044 A 
ATOM     15  C   UNL     1      -0.058   4.501   0.026  0.00  0.00    +0.039 A 
ATOM     16  C   UNL     1      -1.248   3.797   0.035  0.00  0.00    +0.062 A 
ATOM     17 BR   UNL     1      -2.896   4.724   0.055  0.00  0.00    -0.046 Br
ATOM     18 CL   UNL     1       2.640   4.710   0.001  0.00  0.00    -0.083 Cl
ATOM     19 CL   UNL     1       0.002  -0.004   0.002  0.00  0.00    -0.080 Cl
ENDBRANCH  10  11
ENDBRANCH   9  10
ENDBRANCH   6   9
ENDBRANCH   3   5
BRANCH   1  20
ATOM     20  C   UNL     1      -8.122  -1.705   2.861  0.00  0.00    +0.326 C 
BRANCH  20  21
ATOM     21  O   UNL     1      -8.674  -2.044   4.135  0.00  0.00    -0.483 OA
BRANCH  21  25
ATOM     22  C   UNL     1     -12.266  -4.197   6.642  0.00  0.00    +0.045 C 
ATOM     23  C   UNL     1     -11.622  -3.804   5.337  0.00  0.00    -0.028 A 
ATOM     24  C   UNL     1     -10.434  -3.099   5.337  0.00  0.00    +0.050 A 
ATOM     25  C   UNL     1      -9.843  -2.738   4.136  0.00  0.00    +0.122 A 
ATOM     26  C   UNL     1     -10.448  -3.080   2.936  0.00  0.00    +0.050 A 
ATOM     27  C   UNL     1     -11.634  -3.790   2.939  0.00  0.00    -0.028 A 
ATOM     28  C   UNL     1     -12.222  -4.149   4.138  0.00  0.00    +0.047 A 
ATOM     29 CL   UNL     1     -13.715  -5.036   4.140  0.00  0.00    -0.083 Cl
ATOM     30  C   UNL     1     -12.289  -4.167   1.636  0.00  0.00    +0.045 C 
ENDBRANCH  21  25
ENDBRANCH  20  21
ENDBRANCH   1  20
TORSDOF 7
