REMARK  Name = ZINC63614926
REMARK  6 active torsions:
REMARK  status: ('A' for Active; 'I' for Inactive)
REMARK    1  A    between atoms: C_1  and  C_2
REMARK    2  A    between atoms: C_5  and  C_9
REMARK    3  A    between atoms: C_7  and  C_8
REMARK    4  A    between atoms: N_16  and  C_17
REMARK    5  A    between atoms: C_17  and  C_18
REMARK    6  A    between atoms: C_17  and  C_19
REMARK                            x       y       z     vdW  Elec       q    Type
REMARK                         _______ _______ _______ _____ _____    ______ ____
ROOT
ATOM      1  C   UNL     1       0.059  -4.275  -0.021  0.00  0.00    +0.108 C 
ATOM      2  C   UNL     1       1.490  -4.780  -0.302  0.00  0.00    +0.029 C 
ATOM      3  C   UNL     1       1.251  -6.011  -1.216  0.00  0.00    +0.021 C 
ATOM      4  C   UNL     1       0.028  -5.549  -2.047  0.00  0.00    +0.110 C 
ATOM      5  N   UNL     1      -0.802  -4.780  -1.101  0.00  0.00    -0.279 N 
ATOM      6  C   UNL     1      -2.129  -4.575  -1.208  0.00  0.00    +0.303 C 
ATOM      7  O   UNL     1      -2.713  -3.922  -0.364  0.00  0.00    -0.253 OA
ATOM      8  N   UNL     1      -2.810  -5.094  -2.249  0.00  0.00    -0.294 N 
ATOM      9  H   UNL     1      -2.344  -5.615  -2.922  0.00  0.00    +0.151 HD
ENDROOT
BRANCH   1  14
ATOM     10  C   UNL     1      -0.018   1.503   0.010  0.00  0.00    +0.044 C 
ATOM     11  C   UNL     1       0.002  -0.004   0.002  0.00  0.00    -0.048 A 
ATOM     12  C   UNL     1       0.006  -0.689  -1.199  0.00  0.00    +0.004 A 
ATOM     13  C   UNL     1       0.025  -2.071  -1.207  0.00  0.00    +0.006 A 
ATOM     14  C   UNL     1       0.040  -2.768  -0.013  0.00  0.00    -0.027 A 
ATOM     15  C   UNL     1       0.037  -2.084   1.188  0.00  0.00    +0.009 A 
ATOM     16  C   UNL     1       0.023  -0.702   1.195  0.00  0.00    -0.047 A 
ATOM     17  C   UNL     1       0.025   0.045   2.504  0.00  0.00    +0.044 C 
ENDBRANCH   1  14
BRANCH   8  18
ATOM     18  C   UNL     1      -4.253  -4.871  -2.365  0.00  0.00    +0.100 C 
ATOM     19  C   UNL     1      -4.508  -3.529  -3.056  0.00  0.00    +0.030 C 
BRANCH  18  20
ATOM     20  C   UNL     1      -4.878  -5.996  -3.192  0.00  0.00    +0.138 C 
ATOM     21  C   UNL     1      -6.414  -5.809  -3.281  0.00  0.00    +0.035 C 
ATOM     22  C   UNL     1      -6.728  -6.576  -4.594  0.00  0.00    +0.031 C 
ATOM     23  C   UNL     1      -5.470  -6.298  -5.445  0.00  0.00    +0.160 C 
ATOM     24  O   UNL     1      -4.413  -5.936  -4.549  0.00  0.00    -0.375 OA
ENDBRANCH  18  20
ENDBRANCH   8  18
TORSDOF 3
