REMARK  Name = ZINC58292398
REMARK  6 active torsions:
REMARK  status: ('A' for Active; 'I' for Inactive)
REMARK    1  A    between atoms: C_1  and  C_2
REMARK    2  A    between atoms: C_4  and  C_5
REMARK    3  A    between atoms: N_7  and  C_8
REMARK    4  A    between atoms: C_11  and  C_14
REMARK    5  A    between atoms: N_16  and  C_17
REMARK    6  A    between atoms: C_20  and  C_23
REMARK                            x       y       z     vdW  Elec       q    Type
REMARK                         _______ _______ _______ _____ _____    ______ ____
ROOT
ATOM      1  C   UNL     1       4.772   2.659   7.106  0.00  0.00    +0.248 C 
ATOM      2  O   UNL     1       4.858   3.867   6.995  0.00  0.00    -0.270 OA
ATOM      3  N   UNL     1       5.322   2.039   8.168  0.00  0.00    -0.282 N 
ATOM      4  H   UNL     1       5.319   1.070   8.220  0.00  0.00    +0.155 HD
ENDROOT
BRANCH   1   8
ATOM      5  C   UNL     1       2.738   0.396   4.144  0.00  0.00    +0.033 A 
ATOM      6  C   UNL     1       2.835   1.778   4.016  0.00  0.00    +0.024 A 
ATOM      7  C   UNL     1       3.493   2.515   4.974  0.00  0.00    +0.015 A 
ATOM      8  C   UNL     1       4.065   1.873   6.077  0.00  0.00    +0.037 A 
ATOM      9  C   UNL     1       3.966   0.484   6.202  0.00  0.00    +0.015 A 
ATOM     10  C   UNL     1       3.301  -0.246   5.242  0.00  0.00    +0.024 A 
BRANCH   5  13
ATOM     11  C   UNL     1       2.148   0.013   1.875  0.00  0.00    +0.221 C 
ATOM     12  O   UNL     1       2.730   1.031   1.563  0.00  0.00    -0.275 OA
ATOM     13  N   UNL     1       2.070  -0.348   3.171  0.00  0.00    -0.285 N 
ATOM     14  H   UNL     1       1.549  -1.125   3.427  0.00  0.00    +0.155 HD
BRANCH  11  18
ATOM     15  C   UNL     1       2.396   0.919  -0.903  0.00  0.00    +0.008 C 
ATOM     16  C   UNL     1       1.637  -0.383  -0.640  0.00  0.00    -0.002 C 
ATOM     17  C   UNL     1       0.293  -0.283   0.084  0.00  0.00    +0.017 C 
ATOM     18  C   UNL     1       1.514  -0.847   0.813  0.00  0.00    +0.078 C 
ENDBRANCH  11  18
ENDBRANCH   5  13
ENDBRANCH   1   8
BRANCH   3  19
ATOM     19  C   UNL     1       5.898   2.791   9.194  0.00  0.00    +0.034 A 
ATOM     20  C   UNL     1       5.360   4.027   9.535  0.00  0.00    +0.024 A 
ATOM     21  C   UNL     1       5.926   4.771  10.547  0.00  0.00    +0.015 A 
ATOM     22  C   UNL     1       7.040   4.282  11.232  0.00  0.00    +0.039 A 
ATOM     23  C   UNL     1       7.577   3.040  10.888  0.00  0.00    +0.015 A 
ATOM     24  C   UNL     1       7.004   2.298   9.878  0.00  0.00    +0.024 A 
BRANCH  22  25
ATOM     25  C   UNL     1       7.649   5.077  12.318  0.00  0.00    +0.248 A 
ATOM     26  N   UNL     1       7.245   6.251  12.745  0.00  0.00    -0.108 NA
ATOM     27  N   UNL     1       8.012   6.642  13.700  0.00  0.00    -0.116 NA
ATOM     28  C   UNL     1       8.929   5.742  13.920  0.00  0.00    +0.332 A 
ATOM     29  O   UNL     1       8.721   4.731  13.059  0.00  0.00    -0.423 OA
ENDBRANCH  22  25
ENDBRANCH   3  19
TORSDOF 5
