REMARK  Name = ZINC02253070
REMARK  18 active torsions:
REMARK  status: ('A' for Active; 'I' for Inactive)
REMARK    1  A    between atoms: C_1  and  C_2
REMARK    2  A    between atoms: C_2  and  N_69
REMARK    3  A    between atoms: C_3  and  C_4
REMARK    4  A    between atoms: C_3  and  N_69
REMARK    5  A    between atoms: C_5  and  C_6
REMARK    6  A    between atoms: C_5  and  N_69
REMARK    7  A    between atoms: C_6  and  C_7
REMARK    8  A    between atoms: C_7  and  N_8
REMARK    9  A    between atoms: C_9  and  C_35
REMARK   10  A    between atoms: C_15  and  C_23
REMARK   11  A    between atoms: C_17  and  C_21
REMARK   12  A    between atoms: C_18  and  N_20
REMARK   13  A    between atoms: C_26  and  O_33
REMARK   14  A    between atoms: C_27  and  O_31
REMARK   15  A    between atoms: C_28  and  O_29
REMARK   16  A    between atoms: O_29  and  C_30
REMARK   17  A    between atoms: O_31  and  C_32
REMARK   18  A    between atoms: O_33  and  C_34
REMARK                            x       y       z     vdW  Elec       q    Type
REMARK                         _______ _______ _______ _____ _____    ______ ____
ROOT
ATOM      1  N   UNL     1      -1.564   1.306   0.381  0.00  0.00    -0.312 N 
ATOM      2  C   UNL     1      -1.855   2.618   0.580  0.00  0.00    +0.022 A 
ATOM      3  C   UNL     1      -0.881   3.553   0.584  0.00  0.00    +0.068 A 
ATOM      4  C   UNL     1       0.461   3.166   0.385  0.00  0.00    +0.141 A 
ATOM      5  C   UNL     1       0.749   1.832   0.187  0.00  0.00    +0.072 A 
ATOM      6  C   UNL     1      -0.295   0.898   0.191  0.00  0.00    +0.259 A 
ATOM      7  O   UNL     1      -0.055  -0.286   0.018  0.00  0.00    -0.267 OA
ATOM      8  C   UNL     1       2.165   1.375  -0.031  0.00  0.00    +0.107 C 
ATOM      9  C   UNL     1       3.127   2.449   0.397  0.00  0.00    +0.098 C 
ATOM     10  C   UNL     1       2.716   3.726   0.580  0.00  0.00    +0.199 C 
ATOM     11  O   UNL     1       1.438   4.097   0.390  0.00  0.00    -0.441 OA
ATOM     12  C   UNL     1      -3.287   3.038   0.793  0.00  0.00    +0.064 C 
ENDROOT
BRANCH   8  13
ATOM     13  C   UNL     1       2.373   1.072  -1.492  0.00  0.00    +0.011 A 
ATOM     14  C   UNL     1       2.305   2.090  -2.425  0.00  0.00    +0.012 A 
ATOM     15  C   UNL     1       2.501   1.818  -3.766  0.00  0.00    +0.050 A 
ATOM     16  C   UNL     1       2.754   0.520  -4.182  0.00  0.00    +0.165 A 
ATOM     17  C   UNL     1       2.818  -0.507  -3.248  0.00  0.00    +0.204 A 
ATOM     18  C   UNL     1       2.626  -0.229  -1.900  0.00  0.00    +0.169 A 
BRANCH  18  19
ATOM     19  O   UNL     1       2.688  -1.230  -0.983  0.00  0.00    -0.491 OA
ATOM     20  C   UNL     1       3.972  -1.526  -0.429  0.00  0.00    +0.277 C 
ENDBRANCH  18  19
BRANCH  17  21
ATOM     21  O   UNL     1       3.066  -1.783  -3.653  0.00  0.00    -0.488 OA
ATOM     22  C   UNL     1       1.943  -2.560  -4.074  0.00  0.00    +0.277 C 
ENDBRANCH  17  21
BRANCH  16  23
ATOM     23  O   UNL     1       2.942   0.253  -5.503  0.00  0.00    -0.491 OA
ATOM     24  C   UNL     1       2.862   1.357  -6.406  0.00  0.00    +0.277 C 
ENDBRANCH  16  23
ENDBRANCH   8  13
BRANCH  10  25
ATOM     25  N   UNL     1       3.632   4.671   0.972  0.00  0.00    -0.328 N 
ATOM     26  H   UNL     1       4.559   4.419   1.113  0.00  0.00    +0.145 HD
ATOM     27  H   UNL     1       3.354   5.590   1.107  0.00  0.00    +0.145 HD
ENDBRANCH  10  25
BRANCH   9  28
ATOM     28  C   UNL     1       4.502   2.115   0.616  0.00  0.00    +0.101 C 
ATOM     29  N   UNL     1       5.593   1.849   0.789  0.00  0.00    -0.191 NA
ENDBRANCH   9  28
BRANCH   1  30
ATOM     30  C   UNL     1      -2.647   0.319   0.377  0.00  0.00    +0.123 C 
BRANCH  30  31
ATOM     31  C   UNL     1      -2.868  -0.200   1.799  0.00  0.00    +0.003 C 
BRANCH  31  32
ATOM     32  C   UNL     1      -3.999  -1.231   1.796  0.00  0.00    -0.077 C 
BRANCH  32  33
ATOM     33  N   UNL     1      -4.255  -1.659   3.187  0.00  0.00    +0.379 N 
ATOM     34  H   UNL     1      -3.356  -1.824   3.656  0.00  0.00    -0.082 HD
BRANCH  33  36
ATOM     35  C   UNL     1      -5.042  -0.970   5.398  0.00  0.00    -0.017 C 
ATOM     36  C   UNL     1      -4.988  -0.602   3.914  0.00  0.00    -0.082 C 
ENDBRANCH  33  36
BRANCH  33  37
ATOM     37  C   UNL     1      -5.037  -2.913   3.194  0.00  0.00    -0.082 C 
ATOM     38  C   UNL     1      -4.106  -4.074   2.843  0.00  0.00    -0.017 C 
ENDBRANCH  33  37
ENDBRANCH  32  33
ENDBRANCH  31  32
ENDBRANCH  30  31
ENDBRANCH   1  30
TORSDOF 12
