REMARK  Name = ZINC11202287
REMARK  8 active torsions:
REMARK  status: ('A' for Active; 'I' for Inactive)
REMARK    1  A    between atoms: C_1  and  C_2
REMARK    2  A    between atoms: C_8  and  C_10
REMARK    3  A    between atoms: C_11  and  C_30
REMARK    4  A    between atoms: N_12  and  C_26
REMARK    5  A    between atoms: C_16  and  C_18
REMARK    6  A    between atoms: C_26  and  C_27
REMARK    7  A    between atoms: C_27  and  O_28
REMARK    8  A    between atoms: O_28  and  C_29
REMARK                            x       y       z     vdW  Elec       q    Type
REMARK                         _______ _______ _______ _____ _____    ______ ____
ROOT
ATOM      1  C   UNL     1       5.845   0.171   0.113  0.00  0.00    +0.056 C 
ATOM      2  C   UNL     1       6.906  -0.658   0.026  0.00  0.00    +0.022 C 
ATOM      3  N   UNL     1       8.172  -0.170  -0.128  0.00  0.00    -0.257 N 
ATOM      4  C   UNL     1       8.460   1.136  -0.205  0.00  0.00    +0.307 C 
ATOM      5  O   UNL     1       9.619   1.476  -0.343  0.00  0.00    -0.252 OA
ATOM      6  N   UNL     1       7.506   2.085  -0.136  0.00  0.00    -0.288 N 
ATOM      7  C   UNL     1       6.105   1.661   0.025  0.00  0.00    +0.144 C 
ATOM      8  C   UNL     1       6.690  -2.148   0.102  0.00  0.00    +0.061 C 
ATOM      9  H   UNL     1       7.737   3.026  -0.194  0.00  0.00    +0.151 HD
ENDROOT
BRANCH   1  17
ATOM     10  C   UNL     1      -0.695  -1.874   0.755  0.00  0.00    +0.089 C 
ATOM     11  C   UNL     1       0.666  -1.597   1.338  0.00  0.00    +0.136 A 
ATOM     12  C   UNL     1       1.762  -1.175   0.667  0.00  0.00    +0.091 A 
ATOM     13  C   UNL     1       2.760  -1.072   1.673  0.00  0.00    +0.168 A 
ATOM     14  N   UNL     1       2.188  -1.425   2.793  0.00  0.00    -0.063 NA
ATOM     15  O   UNL     1       1.027  -1.719   2.624  0.00  0.00    -0.358 OA
ATOM     16  N   UNL     1       4.085  -0.672   1.499  0.00  0.00    -0.264 N 
ATOM     17  C   UNL     1       4.532  -0.335   0.273  0.00  0.00    +0.249 C 
ATOM     18  O   UNL     1       3.806  -0.464  -0.696  0.00  0.00    -0.270 OA
ATOM     19  H   UNL     1       4.684  -0.637   2.261  0.00  0.00    +0.157 HD
ENDBRANCH   1  17
BRANCH   7  20
ATOM     20  C   UNL     1       5.573   2.300   1.282  0.00  0.00    +0.013 A 
ATOM     21  C   UNL     1       6.408   2.494   2.366  0.00  0.00    +0.011 A 
ATOM     22  C   UNL     1       5.923   3.084   3.517  0.00  0.00    +0.039 A 
ATOM     23  C   UNL     1       4.595   3.473   3.590  0.00  0.00    +0.126 A 
ATOM     24  C   UNL     1       3.756   3.275   2.507  0.00  0.00    +0.077 A 
ATOM     25  C   UNL     1       4.245   2.688   1.352  0.00  0.00    +0.131 A 
ATOM     26  F   UNL     1       3.428   2.493   0.295  0.00  0.00    -0.205 F 
ATOM     27  F   UNL     1       4.120   4.046   4.717  0.00  0.00    -0.205 F 
ENDBRANCH   7  20
BRANCH   3  28
ATOM     28  C   UNL     1       9.278  -1.127  -0.214  0.00  0.00    +0.143 C 
BRANCH  28  29
ATOM     29  C   UNL     1       9.435  -1.596  -1.662  0.00  0.00    +0.179 C 
BRANCH  29  30
ATOM     30  O   UNL     1       9.827  -0.491  -2.480  0.00  0.00    -0.381 OA
ATOM     31  C   UNL     1      10.002  -0.823  -3.859  0.00  0.00    +0.194 C 
ENDBRANCH  29  30
ENDBRANCH  28  29
ENDBRANCH   3  28
TORSDOF 5
