REMARK  Name = ZINC26992502
REMARK  12 active torsions:
REMARK  status: ('A' for Active; 'I' for Inactive)
REMARK    1  A    between atoms: C_1  and  C_2
REMARK    2  A    between atoms: C_2  and  C_4
REMARK    3  A    between atoms: C_2  and  O_17
REMARK    4  A    between atoms: C_4  and  O_6
REMARK    5  A    between atoms: O_6  and  C_7
REMARK    6  A    between atoms: C_10  and  C_13
REMARK    7  A    between atoms: N_15  and  C_16
REMARK    8  A    between atoms: O_17  and  C_18
REMARK    9  A    between atoms: C_21  and  C_24
REMARK   10  A    between atoms: C_24  and  C_25
REMARK   11  A    between atoms: C_24  and  C_26
REMARK   12  A    between atoms: C_24  and  C_27
REMARK                            x       y       z     vdW  Elec       q    Type
REMARK                         _______ _______ _______ _____ _____    ______ ____
ROOT
ATOM      1  C   UNL     1       2.441  -2.624  -0.173  0.00  0.00    +0.353 C 
ATOM      2  O   UNL     1       3.453  -1.967  -0.237  0.00  0.00    -0.246 OA
ENDROOT
BRANCH   1   4
ATOM      3  C   UNL     1       1.815  -4.614  -1.514  0.00  0.00    +0.064 C 
ATOM      4  C   UNL     1       2.514  -4.128  -0.243  0.00  0.00    +0.279 C 
BRANCH   4   5
ATOM      5  O   UNL     1       3.882  -4.539  -0.264  0.00  0.00    -0.478 OA
BRANCH   5   6
ATOM      6  C   UNL     1       4.153  -5.806   0.146  0.00  0.00    +0.122 A 
ATOM      7  C   UNL     1       3.135  -6.609   0.638  0.00  0.00    +0.046 A 
ATOM      8  C   UNL     1       3.411  -7.899   1.049  0.00  0.00    +0.008 A 
ATOM      9  C   UNL     1       4.704  -8.385   0.981  0.00  0.00    -0.042 A 
ATOM     10  C   UNL     1       5.721  -7.584   0.495  0.00  0.00    +0.008 A 
ATOM     11  C   UNL     1       5.449  -6.296   0.078  0.00  0.00    +0.046 A 
BRANCH   9  12
ATOM     12  C   UNL     1       5.004  -9.790   1.435  0.00  0.00    -0.013 C 
ATOM     13  C   UNL     1       6.021  -9.750   2.578  0.00  0.00    +0.015 C 
ATOM     14  C   UNL     1       3.715 -10.455   1.923  0.00  0.00    +0.015 C 
ATOM     15  C   UNL     1       5.581 -10.592   0.267  0.00  0.00    +0.015 C 
ENDBRANCH   9  12
ENDBRANCH   5   6
ENDBRANCH   4   5
ENDBRANCH   1   4
BRANCH   1  16
ATOM     16  O   UNL     1       1.252  -2.015  -0.042  0.00  0.00    -0.423 OA
BRANCH  16  17
ATOM     17  C   UNL     1       1.245  -0.658  -0.100  0.00  0.00    +0.132 A 
ATOM     18  C   UNL     1       1.552  -0.015  -1.293  0.00  0.00    +0.047 A 
ATOM     19  C   UNL     1       1.546   1.361  -1.357  0.00  0.00    +0.016 A 
ATOM     20  C   UNL     1       1.231   2.110  -0.220  0.00  0.00    +0.037 A 
ATOM     21  C   UNL     1       0.923   1.459   0.977  0.00  0.00    +0.016 A 
ATOM     22  C   UNL     1       0.931   0.083   1.033  0.00  0.00    +0.047 A 
BRANCH  20  23
ATOM     23  C   UNL     1       1.224   3.585  -0.284  0.00  0.00    +0.244 C 
ATOM     24  O   UNL     1       1.493   4.150  -1.326  0.00  0.00    -0.270 OA
ATOM     25  N   UNL     1       0.920   4.305   0.814  0.00  0.00    -0.314 N 
ATOM     26  C   UNL     1       0.913   5.769   0.751  0.00  0.00    +0.128 C 
ATOM     27  H   UNL     1       0.677   3.795   1.757  0.00  0.00    +0.149 HD
ENDBRANCH  20  23
ENDBRANCH  16  17
ENDBRANCH   1  16
TORSDOF 7
