REMARK  Name = ZINC20467901
REMARK  8 active torsions:
REMARK  status: ('A' for Active; 'I' for Inactive)
REMARK    1  A    between atoms: C_1  and  C_2
REMARK    2  A    between atoms: C_2  and  C_3
REMARK    3  A    between atoms: C_2  and  C_4
REMARK    4  A    between atoms: C_2  and  C_5
REMARK    5  A    between atoms: C_12  and  N_27
REMARK    6  A    between atoms: C_13  and  C_14
REMARK    7  A    between atoms: N_16  and  C_17
REMARK    8  A    between atoms: C_28  and  C_30
REMARK                            x       y       z     vdW  Elec       q    Type
REMARK                         _______ _______ _______ _____ _____    ______ ____
ROOT
ATOM      1  C   UNL     1      -7.576  -4.128   0.433  0.00  0.00    -0.000 C 
ATOM      2  C   UNL     1      -8.072  -2.938  -0.393  0.00  0.00    +0.009 C 
ATOM      3  C   UNL     1      -7.368  -1.659   0.063  0.00  0.00    +0.037 C 
ATOM      4  C   UNL     1      -5.862  -1.895   0.048  0.00  0.00    -0.023 A 
ATOM      5  C   UNL     1      -5.355  -3.147   0.037  0.00  0.00    -0.004 A 
ATOM      6  S   UNL     1      -3.599  -2.924   0.022  0.00  0.00    -0.077 S 
ATOM      7  C   UNL     1      -3.537  -1.192   0.030  0.00  0.00    +0.085 A 
ATOM      8  C   UNL     1      -4.876  -0.828   0.050  0.00  0.00    +0.069 A 
ATOM      9  C   UNL     1      -6.123  -4.433   0.039  0.00  0.00    +0.046 C 
ENDROOT
BRANCH   1  11
ATOM     10  C   UNL     1      -7.943  -6.542   0.962  0.00  0.00    +0.011 C 
ATOM     11  C   UNL     1      -8.451  -5.350   0.149  0.00  0.00    -0.035 C 
ATOM     12  C   UNL     1      -9.898  -5.044   0.542  0.00  0.00    +0.011 C 
ATOM     13  C   UNL     1      -8.389  -5.686  -1.342  0.00  0.00    +0.011 C 
ENDBRANCH   1  11
BRANCH   8  14
ATOM     14  C   UNL     1      -5.281   0.581   0.069  0.00  0.00    +0.251 C 
ATOM     15  O   UNL     1      -5.462   1.175  -0.978  0.00  0.00    -0.270 OA
ATOM     16  N   UNL     1      -5.452   1.217   1.244  0.00  0.00    -0.281 N 
ATOM     17  H   UNL     1      -5.361   0.661   2.189  0.00  0.00    +0.155 HD
BRANCH  16  18
ATOM     18  C   UNL     1      -5.744   2.581   1.263  0.00  0.00    +0.041 A 
ATOM     19  C   UNL     1      -6.529   3.138   0.276  0.00  0.00    +0.024 A 
ATOM     20  C   UNL     1      -6.831   4.496   0.288  0.00  0.00    +0.002 A 
ATOM     21  C   UNL     1      -6.352   5.314   1.266  0.00  0.00    +0.008 A 
ATOM     22  C   UNL     1      -5.544   4.787   2.288  0.00  0.00    -0.016 A 
ATOM     23  C   UNL     1      -5.235   3.405   2.289  0.00  0.00    +0.003 A 
ATOM     24  C   UNL     1      -4.428   2.880   3.311  0.00  0.00    +0.010 A 
ATOM     25  C   UNL     1      -3.954   3.704   4.286  0.00  0.00    +0.001 A 
ATOM     26  C   UNL     1      -4.257   5.064   4.285  0.00  0.00    +0.001 A 
ATOM     27  C   UNL     1      -5.036   5.607   3.310  0.00  0.00    +0.008 A 
ENDBRANCH  16  18
ENDBRANCH   8  14
BRANCH   7  28
ATOM     28  N   UNL     1      -2.421  -0.371   0.024  0.00  0.00    -0.273 N 
ATOM     29  C   UNL     1      -1.187  -0.912   0.009  0.00  0.00    +0.284 C 
ATOM     30  O   UNL     1      -1.052  -2.121   0.002  0.00  0.00    -0.266 OA
ATOM     31  H   UNL     1      -2.543   0.722   0.031  0.00  0.00    +0.156 HD
BRANCH  29  32
ATOM     32  C   UNL     1      -0.006  -0.043   0.003  0.00  0.00    +0.189 A 
ATOM     33  C   UNL     1       1.295  -0.457  -0.011  0.00  0.00    +0.054 A 
ATOM     34  C   UNL     1       2.087   0.702  -0.012  0.00  0.00    +0.042 A 
ATOM     35  C   UNL     1       1.245   1.759   0.002  0.00  0.00    +0.196 A 
ATOM     36  O   UNL     1      -0.015   1.307   0.011  0.00  0.00    -0.458 OA
ENDBRANCH  29  32
ENDBRANCH   7  28
TORSDOF 5
