REMARK  Name = ZINC09477758
REMARK  5 active torsions:
REMARK  status: ('A' for Active; 'I' for Inactive)
REMARK    1  A    between atoms: C_4  and  N_7
REMARK    2  A    between atoms: N_7  and  C_8
REMARK    3  A    between atoms: C_16  and  C_18
REMARK    4  A    between atoms: C_18  and  N_19
REMARK    5  A    between atoms: C_23  and  C_25
REMARK                            x       y       z     vdW  Elec       q    Type
REMARK                         _______ _______ _______ _____ _____    ______ ____
ROOT
ATOM      1  N   UNL     1       2.402   1.107  -0.014  0.00  0.00    -0.265 N 
ATOM      2  C   UNL     1       2.459  -0.235   0.096  0.00  0.00    +0.242 C 
ATOM      3  O   UNL     1       1.436  -0.887   0.103  0.00  0.00    -0.273 OA
ENDROOT
BRANCH   1   4
ATOM      4  C   UNL     1       3.637   1.884  -0.143  0.00  0.00    +0.104 C 
ATOM      5  C   UNL     1       3.808   2.795   1.084  0.00  0.00    +0.047 C 
ATOM      6  C   UNL     1       4.919   3.839   0.816  0.00  0.00    +0.168 C 
ATOM      7  S   UNL     1       4.857   4.033  -1.012  0.00  0.00    -0.029 S 
ATOM      8  O   UNL     1       6.095   3.606  -1.565  0.00  0.00    -0.174 OA
ATOM      9  O   UNL     1       4.363   5.329  -1.323  0.00  0.00    -0.174 OA
ATOM     10  C   UNL     1       3.561   2.786  -1.408  0.00  0.00    +0.188 C 
ENDBRANCH   1   4
BRANCH   1  14
ATOM     11  C   UNL     1      -1.286   3.045   0.015  0.00  0.00    +0.000 A 
ATOM     12  C   UNL     1      -1.232   1.663  -0.014  0.00  0.00    +0.002 A 
ATOM     13  C   UNL     1      -0.011   1.018  -0.019  0.00  0.00    +0.023 A 
ATOM     14  C   UNL     1       1.164   1.758  -0.004  0.00  0.00    +0.037 A 
ATOM     15  C   UNL     1       1.107   3.145   0.020  0.00  0.00    +0.023 A 
ATOM     16  C   UNL     1      -0.117   3.785   0.030  0.00  0.00    +0.002 A 
ENDBRANCH   1  14
BRANCH   2  17
ATOM     17  C   UNL     1       3.793  -0.926   0.209  0.00  0.00    +0.246 C 
BRANCH  17  18
ATOM     18  N   UNL     1       3.584  -2.358   0.435  0.00  0.00    -0.186 N 
ATOM     19  C   UNL     1       3.467  -3.314  -0.511  0.00  0.00    +0.439 A 
ATOM     20  O   UNL     1       3.516  -3.144  -1.715  0.00  0.00    -0.221 OA
ATOM     21  O   UNL     1       3.289  -4.486   0.119  0.00  0.00    -0.388 OA
ATOM     22  C   UNL     1       3.286  -4.269   1.453  0.00  0.00    +0.250 A 
ATOM     23  N   UNL     1       3.461  -2.999   1.677  0.00  0.00    -0.126 NA
BRANCH  22  24
ATOM     24  C   UNL     1       3.110  -5.308   2.491  0.00  0.00    +0.039 A 
ATOM     25  C   UNL     1       3.131  -4.958   3.841  0.00  0.00    +0.016 A 
ATOM     26  C   UNL     1       2.961  -5.930   4.806  0.00  0.00    +0.039 A 
ATOM     27  C   UNL     1       2.782  -7.253   4.435  0.00  0.00    +0.123 A 
ATOM     28  C   UNL     1       2.766  -7.606   3.095  0.00  0.00    +0.039 A 
ATOM     29  C   UNL     1       2.929  -6.642   2.123  0.00  0.00    +0.016 A 
ATOM     30  F   UNL     1       2.622  -8.202   5.383  0.00  0.00    -0.205 F 
ENDBRANCH  22  24
ENDBRANCH  17  18
ENDBRANCH   2  17
TORSDOF 5
