REMARK  Name = ZINC13033383
REMARK  13 active torsions:
REMARK  status: ('A' for Active; 'I' for Inactive)
REMARK    1  A    between atoms: C_1  and  C_2
REMARK    2  A    between atoms: C_5  and  C_8
REMARK    3  A    between atoms: C_8  and  N_70
REMARK    4  A    between atoms: C_9  and  C_10
REMARK    5  A    between atoms: C_9  and  N_70
REMARK    6  A    between atoms: C_13  and  C_23
REMARK    7  A    between atoms: C_16  and  C_22
REMARK    8  A    between atoms: C_24  and  C_25
REMARK    9  A    between atoms: C_24  and  N_70
REMARK   10  A    between atoms: N_29  and  C_30
REMARK   11  A    between atoms: C_30  and  C_31
REMARK   12  A    between atoms: C_34  and  O_37
REMARK   13  A    between atoms: O_37  and  C_38
REMARK                            x       y       z     vdW  Elec       q    Type
REMARK                         _______ _______ _______ _____ _____    ______ ____
ROOT
ATOM      1  N   UNL     1       1.599  -2.185  -0.657  0.00  0.00    +0.390 N 
ATOM      2  H   UNL     1       0.900  -1.956  -1.373  0.00  0.00    -0.080 HD
ENDROOT
BRANCH   1   3
ATOM      3  C   UNL     1       2.950  -2.019  -1.233  0.00  0.00    -0.042 C 
BRANCH   3   8
ATOM      4  C   UNL     1       3.070  -4.530  -6.437  0.00  0.00    +0.044 C 
ATOM      5  C   UNL     1       3.039  -3.875  -5.080  0.00  0.00    -0.050 A 
ATOM      6  C   UNL     1       2.559  -2.586  -4.946  0.00  0.00    +0.003 A 
ATOM      7  C   UNL     1       2.531  -1.985  -3.701  0.00  0.00    +0.002 A 
ATOM      8  C   UNL     1       2.981  -2.674  -2.590  0.00  0.00    -0.064 A 
ATOM      9  C   UNL     1       3.464  -3.962  -2.725  0.00  0.00    +0.002 A 
ATOM     10  C   UNL     1       3.489  -4.564  -3.969  0.00  0.00    +0.003 A 
ENDBRANCH   3   8
ENDBRANCH   1   3
BRANCH   1  11
ATOM     11  C   UNL     1       1.402  -3.585  -0.225  0.00  0.00    -0.036 C 
BRANCH  11  12
ATOM     12  C   UNL     1      -0.076  -3.847  -0.097  0.00  0.00    +0.001 A 
ATOM     13  C   UNL     1      -0.764  -4.367  -1.143  0.00  0.00    +0.017 A 
ATOM     14  C   UNL     1      -2.199  -4.609  -0.986  0.00  0.00    +0.002 A 
ATOM     15  C   UNL     1      -2.962  -5.144  -2.030  0.00  0.00    -0.041 A 
ATOM     16  C   UNL     1      -4.299  -5.358  -1.851  0.00  0.00    +0.004 A 
ATOM     17  C   UNL     1      -4.908  -5.051  -0.642  0.00  0.00    +0.005 A 
ATOM     18  C   UNL     1      -4.177  -4.524   0.401  0.00  0.00    -0.026 A 
ATOM     19  C   UNL     1      -2.813  -4.297   0.242  0.00  0.00    +0.052 A 
ATOM     20  N   UNL     1      -2.057  -3.771   1.268  0.00  0.00    -0.322 N 
ATOM     21  H   UNL     1      -2.482  -3.557   2.113  0.00  0.00    +0.169 HD
ATOM     22  C   UNL     1      -0.739  -3.557   1.115  0.00  0.00    +0.251 A 
ATOM     23  O   UNL     1      -0.101  -3.095   2.046  0.00  0.00    -0.268 OA
ATOM     24  C   UNL     1      -4.851  -4.195   1.707  0.00  0.00    +0.046 C 
ATOM     25  C   UNL     1      -2.311  -5.480  -3.347  0.00  0.00    +0.044 C 
ENDBRANCH  11  12
ENDBRANCH   1  11
BRANCH   1  26
ATOM     26  C   UNL     1       1.425  -1.273   0.493  0.00  0.00    +0.001 C 
BRANCH  26  27
ATOM     27  C   UNL     1       1.480   0.150  -0.001  0.00  0.00    +0.135 A 
ATOM     28  N   UNL     1       2.558   0.873  -0.183  0.00  0.00    -0.115 NA
ATOM     29  N   UNL     1       2.192   2.031  -0.613  0.00  0.00    -0.023 NA
ATOM     30  N   UNL     1       0.908   2.065  -0.709  0.00  0.00    -0.044 NA
ATOM     31  N   UNL     1       0.433   0.924  -0.340  0.00  0.00    -0.227 N 
BRANCH  31  32
ATOM     32  C   UNL     1      -0.981   0.542  -0.299  0.00  0.00    +0.182 C 
BRANCH  32  33
ATOM     33  C   UNL     1      -1.425   0.112  -1.673  0.00  0.00    -0.026 A 
ATOM     34  C   UNL     1      -1.844   1.057  -2.591  0.00  0.00    +0.009 A 
ATOM     35  C   UNL     1      -2.246   0.666  -3.853  0.00  0.00    +0.046 A 
ATOM     36  C   UNL     1      -2.241  -0.678  -4.196  0.00  0.00    +0.120 A 
ATOM     37  C   UNL     1      -1.825  -1.626  -3.272  0.00  0.00    +0.046 A 
ATOM     38  C   UNL     1      -1.419  -1.229  -2.013  0.00  0.00    +0.009 A 
BRANCH  36  39
ATOM     39  O   UNL     1      -2.641  -1.067  -5.435  0.00  0.00    -0.495 OA
ATOM     40  C   UNL     1      -3.055  -0.037  -6.335  0.00  0.00    +0.277 C 
ENDBRANCH  36  39
ENDBRANCH  32  33
ENDBRANCH  31  32
ENDBRANCH  26  27
ENDBRANCH   1  26
TORSDOF 9
