REMARK  Name = ZINC06974949
REMARK  8 active torsions:
REMARK  status: ('A' for Active; 'I' for Inactive)
REMARK    1  A    between atoms: C_1  and  N_2
REMARK    2  A    between atoms: C_3  and  C_23
REMARK    3  A    between atoms: C_6  and  S_7
REMARK    4  A    between atoms: S_7  and  C_8
REMARK    5  A    between atoms: C_8  and  C_9
REMARK    6  A    between atoms: C_9  and  C_11
REMARK    7  A    between atoms: C_11  and  C_21
REMARK    8  A    between atoms: C_23  and  C_24
REMARK                            x       y       z     vdW  Elec       q    Type
REMARK                         _______ _______ _______ _____ _____    ______ ____
ROOT
ATOM      1  C   UNL     1      -4.443   5.897  -7.177  0.00  0.00    +0.187 C 
ATOM      2  O   UNL     1      -3.896   6.975  -7.308  0.00  0.00    -0.290 OA
ENDROOT
BRANCH   1   3
ATOM      3  C   UNL     1      -5.190   5.355  -8.236  0.00  0.00    +0.131 C 
ATOM      4  C   UNL     1      -5.304   6.059  -9.449  0.00  0.00    +0.114 C 
ATOM      5  N   UNL     1      -4.745   7.269  -9.711  0.00  0.00    -0.300 N 
ATOM      6  C   UNL     1      -5.081   7.631 -11.011  0.00  0.00    +0.054 A 
ATOM      7  C   UNL     1      -4.788   8.742 -11.791  0.00  0.00    +0.025 A 
ATOM      8  C   UNL     1      -5.280   8.827 -13.078  0.00  0.00    +0.002 A 
ATOM      9  C   UNL     1      -6.064   7.809 -13.595  0.00  0.00    +0.002 A 
ATOM     10  C   UNL     1      -6.362   6.701 -12.827  0.00  0.00    +0.025 A 
ATOM     11  C   UNL     1      -5.872   6.605 -11.532  0.00  0.00    +0.054 A 
ATOM     12  N   UNL     1      -5.996   5.640 -10.540  0.00  0.00    -0.300 N 
ATOM     13  H   UNL     1      -4.203   7.790  -9.098  0.00  0.00    +0.153 HD
ATOM     14  H   UNL     1      -6.491   4.809 -10.614  0.00  0.00    +0.153 HD
BRANCH   3  15
ATOM     15  C   UNL     1      -5.835   4.086  -8.082  0.00  0.00    +0.106 C 
ATOM     16  N   UNL     1      -6.346   3.079  -7.959  0.00  0.00    -0.191 NA
ENDBRANCH   3  15
ENDBRANCH   1   3
BRANCH   1  17
ATOM     17  C   UNL     1      -4.321   5.143  -5.878  0.00  0.00    +0.157 C 
BRANCH  17  18
ATOM     18  S   UNL     1      -3.304   6.095  -4.721  0.00  0.00    -0.078 S 
BRANCH  18  24
ATOM     19  C   UNL     1      -1.909   6.379  -1.737  0.00  0.00    +0.152 C 
ATOM     20  N   UNL     1      -2.714   5.220  -2.130  0.00  0.00    -0.309 N 
ATOM     21  C   UNL     1      -3.004   4.120  -1.370  0.00  0.00    +0.138 A 
ATOM     22  N   UNL     1      -3.748   3.334  -2.095  0.00  0.00    -0.133 NA
ATOM     23  N   UNL     1      -3.943   3.854  -3.254  0.00  0.00    -0.122 NA
ATOM     24  C   UNL     1      -3.328   5.012  -3.331  0.00  0.00    +0.192 A 
BRANCH  21  25
ATOM     25  C   UNL     1      -2.553   3.869   0.045  0.00  0.00    +0.111 C 
BRANCH  25  26
ATOM     26  C   UNL     1      -1.238   3.133   0.030  0.00  0.00    -0.040 A 
ATOM     27  C   UNL     1      -1.219   1.751   0.017  0.00  0.00    +0.004 A 
ATOM     28  C   UNL     1      -0.013   1.076   0.008  0.00  0.00    +0.000 A 
ATOM     29  C   UNL     1       1.175   1.783   0.000  0.00  0.00    +0.000 A 
ATOM     30  C   UNL     1       1.156   3.165   0.008  0.00  0.00    +0.000 A 
ATOM     31  C   UNL     1      -0.050   3.840   0.022  0.00  0.00    +0.004 A 
ENDBRANCH  25  26
ENDBRANCH  21  25
ENDBRANCH  18  24
ENDBRANCH  17  18
ENDBRANCH   1  17
TORSDOF 7
