REMARK  Name = ZINC19790688
REMARK  13 active torsions:
REMARK  status: ('A' for Active; 'I' for Inactive)
REMARK    1  A    between atoms: C_1  and  C_2
REMARK    2  A    between atoms: C_6  and  C_40
REMARK    3  A    between atoms: C_8  and  O_11
REMARK    4  A    between atoms: O_11  and  C_12
REMARK    5  A    between atoms: C_12  and  C_13
REMARK    6  A    between atoms: C_13  and  C_15
REMARK    7  A    between atoms: C_13  and  O_39
REMARK    8  A    between atoms: C_15  and  N_16
REMARK    9  A    between atoms: N_19  and  C_22
REMARK   10  A    between atoms: C_22  and  C_23
REMARK   11  A    between atoms: C_23  and  N_24
REMARK   12  A    between atoms: C_40  and  C_41
REMARK   13  A    between atoms: C_40  and  C_42
REMARK                            x       y       z     vdW  Elec       q    Type
REMARK                         _______ _______ _______ _____ _____    ______ ____
ROOT
ATOM      1  N   UNL     1       0.592   1.474  -0.132  0.00  0.00    -0.303 NA
ATOM      2  C   UNL     1       1.938   2.009  -0.382  0.00  0.00    +0.066 C 
ATOM      3  C   UNL     1       2.894   1.505   0.702  0.00  0.00    -0.063 C 
ATOM      4  N   UNL     1       2.905   0.035   0.697  0.00  0.00    +0.382 N 
ATOM      5  C   UNL     1       1.559  -0.499   0.947  0.00  0.00    -0.063 C 
ATOM      6  C   UNL     1       0.603   0.005  -0.137  0.00  0.00    +0.066 C 
ATOM      7  H   UNL     1       3.223  -0.299  -0.302  0.00  0.00    -0.082 HD
ENDROOT
BRANCH   1   8
ATOM      8  C   UNL     1      -0.372   1.997  -1.109  0.00  0.00    +0.117 C 
BRANCH   8   9
ATOM      9  C   UNL     1      -0.539   3.504  -0.905  0.00  0.00    +0.154 C 
BRANCH   9  10
ATOM     10  O   UNL     1      -1.017   3.756   0.418  0.00  0.00    -0.388 OA
ATOM     11  H   UNL     1      -0.425   3.434   1.288  0.00  0.00    +0.210 HD
ENDBRANCH   9  10
BRANCH   9  12
ATOM     12  C   UNL     1      -1.543   4.049  -1.923  0.00  0.00    +0.192 C 
BRANCH  12  13
ATOM     13  O   UNL     1      -1.612   5.472  -1.809  0.00  0.00    -0.374 OA
BRANCH  13  19
ATOM     14  C   UNL     1      -6.271   6.919  -2.400  0.00  0.00    +0.007 C 
ATOM     15  C   UNL     1      -4.889   6.829  -3.049  0.00  0.00    -0.012 C 
ATOM     16  C   UNL     1      -4.397   8.235  -3.398  0.00  0.00    +0.004 C 
ATOM     17  C   UNL     1      -3.014   8.145  -4.046  0.00  0.00    +0.006 C 
ATOM     18  C   UNL     1      -2.034   7.490  -3.070  0.00  0.00    +0.020 C 
ATOM     19  C   UNL     1      -2.526   6.084  -2.721  0.00  0.00    +0.122 C 
ATOM     20  C   UNL     1      -3.909   6.174  -2.073  0.00  0.00    +0.035 C 
BRANCH  18  21
ATOM     21  C   UNL     1      -0.652   7.400  -3.719  0.00  0.00    -0.012 C 
ATOM     22  C   UNL     1      -0.759   6.649  -5.047  0.00  0.00    +0.007 C 
ATOM     23  C   UNL     1      -0.115   8.810  -3.972  0.00  0.00    +0.007 C 
ENDBRANCH  18  21
ENDBRANCH  13  19
ENDBRANCH  12  13
ENDBRANCH   9  12
ENDBRANCH   8   9
ENDBRANCH   1   8
BRANCH   4  24
ATOM     24  C   UNL     1       3.869  -0.487   1.674  0.00  0.00    -0.059 C 
BRANCH  24  25
ATOM     25  C   UNL     1       5.288  -0.115   1.239  0.00  0.00    +0.098 C 
BRANCH  25  26
ATOM     26  N   UNL     1       6.250  -0.636   2.214  0.00  0.00    -0.236 N 
ATOM     27  C   UNL     1       6.603   0.141   3.255  0.00  0.00    +0.254 C 
ATOM     28  O   UNL     1       6.124   1.252   3.371  0.00  0.00    -0.270 OA
ATOM     29  C   UNL     1       7.562  -0.350   4.257  0.00  0.00    +0.046 A 
ATOM     30  C   UNL     1       7.951   0.415   5.347  0.00  0.00    +0.014 A 
ATOM     31  C   UNL     1       8.864  -0.091   6.264  0.00  0.00    +0.001 A 
ATOM     32  C   UNL     1       9.402  -1.338   6.125  0.00  0.00    +0.008 A 
ATOM     33  C   UNL     1       9.034  -2.145   5.034  0.00  0.00    -0.016 A 
ATOM     34  C   UNL     1       8.108  -1.643   4.096  0.00  0.00    +0.006 A 
ATOM     35  C   UNL     1       7.719  -2.430   2.989  0.00  0.00    +0.046 A 
ATOM     36  C   UNL     1       8.261  -3.698   2.840  0.00  0.00    +0.014 A 
ATOM     37  C   UNL     1       9.172  -4.182   3.771  0.00  0.00    +0.001 A 
ATOM     38  C   UNL     1       9.560  -3.436   4.847  0.00  0.00    +0.008 A 
ATOM     39  C   UNL     1       6.752  -1.873   2.032  0.00  0.00    +0.254 C 
ATOM     40  O   UNL     1       6.403  -2.532   1.071  0.00  0.00    -0.270 OA
ENDBRANCH  25  26
ENDBRANCH  24  25
ENDBRANCH   4  24
TORSDOF 10
