REMARK  Name = ZINC17195134
REMARK  4 active torsions:
REMARK  status: ('A' for Active; 'I' for Inactive)
REMARK    1  A    between atoms: C_7  and  C_13
REMARK    2  A    between atoms: N_15  and  N_16
REMARK    3  A    between atoms: C_17  and  C_19
REMARK    4  A    between atoms: C_23  and  N_28
REMARK                            x       y       z     vdW  Elec       q    Type
REMARK                         _______ _______ _______ _____ _____    ______ ____
ROOT
ATOM      1  C   UNL     1      -1.187   1.624   0.017  0.00  0.00    +0.281 C 
ATOM      2  O   UNL     1      -1.204   2.840   0.023  0.00  0.00    -0.267 OA
ATOM      3  N   UNL     1      -0.011   0.966   0.007  0.00  0.00    -0.229 N 
ATOM      4  H   UNL     1       0.002  -0.004   0.002  0.00  0.00    +0.173 HD
ENDROOT
BRANCH   1  11
ATOM      5  C   UNL     1      -5.087   3.557   0.046  0.00  0.00    +0.001 A 
ATOM      6  C   UNL     1      -6.241   2.785   0.047  0.00  0.00    +0.001 A 
ATOM      7  C   UNL     1      -6.168   1.408   0.038  0.00  0.00    +0.014 A 
ATOM      8  C   UNL     1      -4.921   0.792   0.029  0.00  0.00    +0.050 A 
ATOM      9  C   UNL     1      -3.745   1.578   0.035  0.00  0.00    +0.020 A 
ATOM     10  C   UNL     1      -3.841   2.965   0.037  0.00  0.00    +0.011 A 
ATOM     11  C   UNL     1      -2.456   0.868   0.018  0.00  0.00    +0.155 A 
ATOM     12  N   UNL     1      -2.447  -0.443   0.011  0.00  0.00    -0.166 NA
ATOM     13  N   UNL     1      -3.499  -1.170   0.012  0.00  0.00    -0.242 N 
ATOM     14  H   UNL     1      -3.391  -2.134   0.006  0.00  0.00    +0.192 HD
ATOM     15  C   UNL     1      -4.752  -0.668   0.020  0.00  0.00    +0.272 A 
ATOM     16  O   UNL     1      -5.719  -1.407   0.021  0.00  0.00    -0.266 OA
ENDBRANCH   1  11
BRANCH   3  17
ATOM     17  N   UNL     1       1.193   1.683  -0.000  0.00  0.00    -0.230 N 
ATOM     18  C   UNL     1       2.369   1.025  -0.015  0.00  0.00    +0.267 C 
ATOM     19  O   UNL     1       2.385  -0.192  -0.022  0.00  0.00    -0.268 OA
ATOM     20  H   UNL     1       1.179   2.653   0.005  0.00  0.00    +0.173 HD
BRANCH  18  21
ATOM     21  C   UNL     1       3.632   1.777  -0.023  0.00  0.00    +0.076 A 
ATOM     22  C   UNL     1       4.904   1.297  -0.038  0.00  0.00    +0.029 A 
ATOM     23  C   UNL     1       5.990   2.190  -0.044  0.00  0.00    -0.008 A 
ATOM     24  C   UNL     1       7.376   1.886  -0.059  0.00  0.00    +0.041 A 
ATOM     25  C   UNL     1       8.305   2.877  -0.063  0.00  0.00    +0.127 A 
ATOM     26  C   UNL     1       7.939   4.218  -0.053  0.00  0.00    +0.034 A 
ATOM     27  C   UNL     1       6.602   4.558  -0.039  0.00  0.00    +0.018 A 
ATOM     28  C   UNL     1       5.648   3.563  -0.034  0.00  0.00    +0.020 A 
ATOM     29  S   UNL     1       3.873   3.545  -0.024  0.00  0.00    -0.084 S 
BRANCH  25  30
ATOM     30  N   UNL     1       9.741   2.520  -0.080  0.00  0.00    +0.056 N 
ATOM     31  O   UNL     1      10.586   3.397  -0.084  0.00  0.00    -0.126 OA
ATOM     32  O   UNL     1      10.078   1.350  -0.089  0.00  0.00    -0.126 OA
ENDBRANCH  25  30
ENDBRANCH  18  21
ENDBRANCH   3  17
TORSDOF 4
