REMARK  Name = ZINC63570049
REMARK  8 active torsions:
REMARK  status: ('A' for Active; 'I' for Inactive)
REMARK    1  A    between atoms: C_1  and  O_2
REMARK    2  A    between atoms: O_2  and  C_3
REMARK    3  A    between atoms: C_9  and  C_12
REMARK    4  A    between atoms: C_12  and  C_13
REMARK    5  A    between atoms: C_13  and  N_14
REMARK    6  A    between atoms: C_15  and  C_17
REMARK    7  A    between atoms: N_20  and  C_29
REMARK    8  A    between atoms: C_21  and  C_23
REMARK                            x       y       z     vdW  Elec       q    Type
REMARK                         _______ _______ _______ _____ _____    ______ ____
ROOT
ATOM      1  C   UNL     1      -2.353  -8.717  -1.166  0.00  0.00    +0.051 C 
ATOM      2  C   UNL     1      -3.442  -9.504  -1.255  0.00  0.00    +0.098 C 
ATOM      3  N   UNL     1      -3.429 -10.487  -0.317  0.00  0.00    -0.270 N 
ATOM      4  N   UNL     1      -2.281 -10.403   0.481  0.00  0.00    -0.246 N 
ATOM      5  C   UNL     1      -1.513  -9.254  -0.027  0.00  0.00    +0.133 C 
ATOM      6  H   UNL     1      -4.123 -11.157  -0.213  0.00  0.00    +0.169 HD
ENDROOT
BRANCH   5   7
ATOM      7  C   UNL     1      -0.144  -9.707  -0.539  0.00  0.00    +0.012 C 
ATOM      8  C   UNL     1       0.642  -8.492  -1.042  0.00  0.00    -0.014 C 
ATOM      9  C   UNL     1       1.977  -8.961  -1.625  0.00  0.00    -0.082 C 
ATOM     10  N   UNL     1       1.731  -9.883  -2.740  0.00  0.00    +0.379 N 
ATOM     11  C   UNL     1       1.041 -11.083  -2.251  0.00  0.00    -0.082 C 
ATOM     12  C   UNL     1      -0.330 -10.696  -1.692  0.00  0.00    -0.014 C 
ATOM     13  H   UNL     1       1.158  -9.426  -3.433  0.00  0.00    -0.086 HD
ATOM     14  H   UNL     1       2.611 -10.149  -3.156  0.00  0.00    -0.086 HD
ENDBRANCH   5   7
BRANCH   4  15
ATOM     15  C   UNL     1      -1.932 -11.244   1.543  0.00  0.00    +0.048 A 
ATOM     16  C   UNL     1      -0.843 -10.934   2.346  0.00  0.00    +0.027 A 
ATOM     17  C   UNL     1      -0.500 -11.766   3.394  0.00  0.00    +0.040 A 
ATOM     18  C   UNL     1      -1.240 -12.909   3.643  0.00  0.00    +0.124 A 
ATOM     19  C   UNL     1      -2.327 -13.220   2.843  0.00  0.00    +0.040 A 
ATOM     20  C   UNL     1      -2.677 -12.388   1.798  0.00  0.00    +0.027 A 
ATOM     21  F   UNL     1      -0.903 -13.722   4.668  0.00  0.00    -0.205 F 
ENDBRANCH   4  15
BRANCH   1  23
ATOM     22  N   UNL     1      -1.099  -6.727  -1.605  0.00  0.00    -0.311 N 
ATOM     23  C   UNL     1      -2.048  -7.605  -1.985  0.00  0.00    +0.243 C 
ATOM     24  O   UNL     1      -2.644  -7.441  -3.035  0.00  0.00    -0.270 OA
ATOM     25  H   UNL     1      -0.676  -6.817  -0.737  0.00  0.00    +0.149 HD
BRANCH  22  26
ATOM     26  C   UNL     1      -0.708  -5.637  -2.502  0.00  0.00    +0.109 C 
BRANCH  26  27
ATOM     27  C   UNL     1       0.379  -4.793  -1.833  0.00  0.00    +0.052 C 
BRANCH  27  34
ATOM     28  C   UNL     1      -0.974  -0.416  -2.165  0.00  0.00    +0.121 A 
ATOM     29  C   UNL     1      -0.337   0.316  -3.183  0.00  0.00    +0.047 A 
ATOM     30  C   UNL     1       0.595  -0.228  -3.995  0.00  0.00    +0.029 A 
ATOM     31  C   UNL     1       0.974  -1.635  -3.827  0.00  0.00    +0.043 A 
ATOM     32  N   UNL     1       1.830  -2.393  -4.466  0.00  0.00    -0.380 N 
ATOM     33  C   UNL     1       1.802  -3.734  -3.871  0.00  0.00    +0.144 C 
ATOM     34  C   UNL     1       0.782  -3.671  -2.756  0.00  0.00    -0.040 C 
ATOM     35  C   UNL     1       0.305  -2.406  -2.755  0.00  0.00    +0.002 A 
ATOM     36  C   UNL     1      -0.690  -1.718  -1.925  0.00  0.00    +0.055 A 
ATOM     37  H   UNL     1       2.389  -2.115  -5.208  0.00  0.00    +0.160 HD
BRANCH  28  39
ATOM     38  C   UNL     1      -2.169   1.581  -1.678  0.00  0.00    +0.277 C 
ATOM     39  O   UNL     1      -1.901   0.207  -1.391  0.00  0.00    -0.495 OA
ENDBRANCH  28  39
ENDBRANCH  27  34
ENDBRANCH  26  27
ENDBRANCH  22  26
ENDBRANCH   1  23
TORSDOF 7
