REMARK  Name = ZINC02304964
REMARK  7 active torsions:
REMARK  status: ('A' for Active; 'I' for Inactive)
REMARK    1  A    between atoms: C_1  and  C_2
REMARK    2  A    between atoms: N_12  and  C_13
REMARK    3  A    between atoms: C_13  and  C_14
REMARK    4  A    between atoms: N_16  and  C_17
REMARK    5  A    between atoms: C_26  and  C_27
REMARK    6  A    between atoms: C_27  and  O_29
REMARK    7  A    between atoms: O_29  and  C_30
REMARK                            x       y       z     vdW  Elec       q    Type
REMARK                         _______ _______ _______ _____ _____    ______ ____
ROOT
ATOM      1  C   UNL     1       3.780  -1.925   0.204  0.00  0.00    +0.235 C 
ATOM      2  O   UNL     1       3.736  -1.030  -0.613  0.00  0.00    -0.274 OA
ATOM      3  N   UNL     1       4.930  -2.597   0.406  0.00  0.00    -0.282 N 
ATOM      4  H   UNL     1       4.946  -3.363   1.002  0.00  0.00    +0.155 HD
ENDROOT
BRANCH   3   5
ATOM      5  C   UNL     1       6.095  -2.192  -0.238  0.00  0.00    +0.073 A 
ATOM      6  C   UNL     1       6.206  -1.679  -1.605  0.00  0.00    +0.023 A 
ATOM      7  C   UNL     1       5.277  -1.447  -2.624  0.00  0.00    +0.027 A 
ATOM      8  C   UNL     1       5.697  -0.950  -3.825  0.00  0.00    +0.019 A 
ATOM      9  C   UNL     1       7.041  -0.673  -4.043  0.00  0.00    +0.017 A 
ATOM     10  C   UNL     1       7.973  -0.894  -3.054  0.00  0.00    +0.027 A 
ATOM     11  C   UNL     1       7.568  -1.400  -1.821  0.00  0.00    +0.049 A 
ATOM     12  N   UNL     1       8.253  -1.717  -0.670  0.00  0.00    -0.348 N 
ATOM     13  H   UNL     1       9.210  -1.620  -0.547  0.00  0.00    +0.166 HD
ATOM     14  C   UNL     1       7.370  -2.190   0.289  0.00  0.00    +0.147 A 
ATOM     15 BR   UNL     1       4.439  -0.638  -5.203  0.00  0.00    -0.050 Br
BRANCH  14  16
ATOM     16  C   UNL     1       7.721  -2.606   1.599  0.00  0.00    +0.357 C 
ATOM     17  O   UNL     1       6.879  -3.094   2.329  0.00  0.00    -0.243 OA
BRANCH  16  18
ATOM     18  O   UNL     1       8.990  -2.462   2.035  0.00  0.00    -0.463 OA
ATOM     19  C   UNL     1       9.274  -2.903   3.365  0.00  0.00    +0.280 C 
ENDBRANCH  16  18
ENDBRANCH  14  16
ENDBRANCH   3   5
BRANCH   1  20
ATOM     20  C   UNL     1       2.547  -2.286   0.992  0.00  0.00    +0.201 C 
BRANCH  20  31
ATOM     21  C   UNL     1       1.585   0.062   2.366  0.00  0.00    +0.028 C 
ATOM     22  C   UNL     1       1.543  -0.092   0.844  0.00  0.00    +0.071 C 
ATOM     23  C   UNL     1       0.339   0.672   0.280  0.00  0.00    +0.027 C 
ATOM     24  C   UNL     1       0.448   0.662  -1.247  0.00  0.00    +0.039 C 
ATOM     25  C   UNL     1       0.751  -0.735  -1.725  0.00  0.00    -0.024 A 
ATOM     26  C   UNL     1       0.568  -1.020  -3.070  0.00  0.00    +0.043 A 
ATOM     27  C   UNL     1       0.843  -2.281  -3.563  0.00  0.00    +0.124 A 
ATOM     28  C   UNL     1       1.304  -3.269  -2.710  0.00  0.00    +0.040 A 
ATOM     29  C   UNL     1       1.486  -2.992  -1.372  0.00  0.00    +0.026 A 
ATOM     30  C   UNL     1       1.208  -1.721  -0.868  0.00  0.00    +0.034 A 
ATOM     31  N   UNL     1       1.404  -1.508   0.497  0.00  0.00    -0.318 N 
ATOM     32  F   UNL     1       0.661  -2.550  -4.875  0.00  0.00    -0.205 F 
ENDBRANCH  20  31
ENDBRANCH   1  20
TORSDOF 5
