REMARK  Name = ZINC03340465
REMARK  8 active torsions:
REMARK  status: ('A' for Active; 'I' for Inactive)
REMARK    1  A    between atoms: C_1  and  S_2
REMARK    2  A    between atoms: S_2  and  C_3
REMARK    3  A    between atoms: C_3  and  C_4
REMARK    4  A    between atoms: C_4  and  C_5
REMARK    5  A    between atoms: C_5  and  C_7
REMARK    6  A    between atoms: C_5  and  N_17
REMARK    7  A    between atoms: C_18  and  C_20
REMARK    8  A    between atoms: N_25  and  C_27
REMARK                            x       y       z     vdW  Elec       q    Type
REMARK                         _______ _______ _______ _____ _____    ______ ____
ROOT
ATOM      1  N   UNL     1      -1.974   2.407  -3.592  0.00  0.00    -0.300 N 
ATOM      2  C   UNL     1      -2.262   3.013  -2.423  0.00  0.00    +0.260 C 
ATOM      3  O   UNL     1      -3.067   3.924  -2.392  0.00  0.00    -0.269 OA
ATOM      4  H   UNL     1      -1.332   1.681  -3.617  0.00  0.00    +0.150 HD
ENDROOT
BRANCH   2   5
ATOM      5  C   UNL     1      -1.600   2.571  -1.180  0.00  0.00    +0.103 C 
ATOM      6  C   UNL     1      -0.721   1.574  -1.221  0.00  0.00    +0.012 C 
ATOM      7  C   UNL     1      -0.013   1.086   0.008  0.00  0.00    +0.127 C 
ATOM      8  C   UNL     1      -0.697   1.561   1.256  0.00  0.00    +0.240 C 
ATOM      9  O   UNL     1      -0.451   1.014   2.310  0.00  0.00    -0.273 OA
ATOM     10  N   UNL     1      -1.575   2.577   1.238  0.00  0.00    -0.184 N 
ATOM     11  N   UNL     1      -1.903   3.204   0.029  0.00  0.00    -0.253 N 
ATOM     12  H   UNL     1      -2.338   4.071   0.031  0.00  0.00    +0.171 HD
BRANCH  10  13
ATOM     13  C   UNL     1      -2.166   3.011   2.433  0.00  0.00    +0.132 A 
ATOM     14  C   UNL     1      -1.557   4.005   3.190  0.00  0.00    +0.184 A 
ATOM     15  C   UNL     1      -2.146   4.435   4.367  0.00  0.00    +0.163 A 
ATOM     16  C   UNL     1      -3.335   3.869   4.795  0.00  0.00    +0.082 A 
ATOM     17  C   UNL     1      -3.941   2.876   4.045  0.00  0.00    +0.163 A 
ATOM     18  C   UNL     1      -3.359   2.445   2.865  0.00  0.00    +0.184 A 
ATOM     19  F   UNL     1      -3.950   1.474   2.134  0.00  0.00    -0.200 F 
ATOM     20  F   UNL     1      -5.101   2.325   4.466  0.00  0.00    -0.202 F 
ATOM     21  F   UNL     1      -1.558   5.405   5.101  0.00  0.00    -0.202 F 
ATOM     22  F   UNL     1      -0.394   4.554   2.775  0.00  0.00    -0.200 F 
ENDBRANCH  10  13
ENDBRANCH   2   5
BRANCH   1  23
ATOM     23  C   UNL     1      -2.632   2.846  -4.826  0.00  0.00    +0.140 C 
BRANCH  23  24
ATOM     24  C   UNL     1      -2.648   1.712  -5.817  0.00  0.00    +0.129 A 
ATOM     25  N   UNL     1      -2.214   0.448  -5.563  0.00  0.00    -0.340 N 
ATOM     26  H   UNL     1      -1.832   0.115  -4.701  0.00  0.00    +0.167 HD
ATOM     27  C   UNL     1      -2.397  -0.289  -6.716  0.00  0.00    +0.066 A 
ATOM     28  C   UNL     1      -2.152  -1.610  -7.068  0.00  0.00    +0.028 A 
ATOM     29  C   UNL     1      -2.453  -2.043  -8.341  0.00  0.00    +0.002 A 
ATOM     30  C   UNL     1      -2.998  -1.169  -9.272  0.00  0.00    +0.002 A 
ATOM     31  C   UNL     1      -3.245   0.133  -8.943  0.00  0.00    +0.030 A 
ATOM     32  C   UNL     1      -2.949   0.595  -7.658  0.00  0.00    +0.089 A 
ATOM     33  N   UNL     1      -3.076   1.799  -7.043  0.00  0.00    -0.231 NA
ENDBRANCH  23  24
BRANCH  23  34
ATOM     34  C   UNL     1      -1.865   4.030  -5.419  0.00  0.00    +0.041 C 
BRANCH  34  35
ATOM     35  C   UNL     1      -1.953   5.224  -4.466  0.00  0.00    +0.071 C 
BRANCH  35  37
ATOM     36  C   UNL     1      -1.244   7.942  -3.935  0.00  0.00    +0.084 C 
ATOM     37  S   UNL     1      -1.044   6.628  -5.169  0.00  0.00    -0.164 S 
ENDBRANCH  35  37
ENDBRANCH  34  35
ENDBRANCH  23  34
ENDBRANCH   1  23
TORSDOF 7
