REMARK  Name = ZINC09257299
REMARK  7 active torsions:
REMARK  status: ('A' for Active; 'I' for Inactive)
REMARK    1  A    between atoms: C_1  and  C_2
REMARK    2  A    between atoms: C_2  and  C_30
REMARK    3  A    between atoms: N_5  and  C_9
REMARK    4  A    between atoms: C_9  and  N_67
REMARK    5  A    between atoms: N_12  and  S_15
REMARK    6  A    between atoms: S_15  and  C_18
REMARK    7  A    between atoms: C_21  and  C_24
REMARK                            x       y       z     vdW  Elec       q    Type
REMARK                         _______ _______ _______ _____ _____    ______ ____
ROOT
ATOM      1  C   UNL     1      -2.375  -0.064   1.966  0.00  0.00    -0.059 C 
ATOM      2  C   UNL     1      -2.712  -0.142   3.459  0.00  0.00    +0.091 C 
ATOM      3  N   UNL     1      -4.166   0.013   3.618  0.00  0.00    -0.180 NA
ATOM      4  C   UNL     1      -4.820   1.158   2.966  0.00  0.00    +0.091 C 
ATOM      5  C   UNL     1      -4.399   1.185   1.493  0.00  0.00    -0.059 C 
ATOM      6  N   UNL     1      -2.922   1.197   1.421  0.00  0.00    +0.392 N 
ATOM      7  H   UNL     1      -2.568   1.983   1.980  0.00  0.00    -0.079 HD
ENDROOT
BRANCH   3   8
ATOM      8  S   UNL     1      -5.044  -1.074   4.507  0.00  0.00    +0.061 S 
ATOM      9  O   UNL     1      -4.138  -1.678   5.420  0.00  0.00    -0.153 OA
ATOM     10  O   UNL     1      -6.218  -0.396   4.934  0.00  0.00    -0.153 OA
BRANCH   8  11
ATOM     11  C   UNL     1      -5.570  -2.345   3.405  0.00  0.00    +0.105 A 
ATOM     12  C   UNL     1      -6.778  -2.229   2.743  0.00  0.00    +0.029 A 
ATOM     13  C   UNL     1      -7.188  -3.224   1.874  0.00  0.00    +0.006 A 
ATOM     14  C   UNL     1      -6.394  -4.338   1.676  0.00  0.00    -0.044 A 
ATOM     15  C   UNL     1      -5.189  -4.456   2.342  0.00  0.00    +0.006 A 
ATOM     16  C   UNL     1      -4.776  -3.459   3.206  0.00  0.00    +0.029 A 
BRANCH  14  17
ATOM     17  C   UNL     1      -6.844  -5.425   0.734  0.00  0.00    +0.019 C 
ATOM     18  C   UNL     1      -7.020  -4.842  -0.670  0.00  0.00    +0.008 C 
ATOM     19  C   UNL     1      -7.477  -5.946  -1.627  0.00  0.00    +0.001 C 
ATOM     20  C   UNL     1      -8.809  -6.522  -1.142  0.00  0.00    +0.000 C 
ATOM     21  C   UNL     1      -8.633  -7.104   0.261  0.00  0.00    +0.001 C 
ATOM     22  C   UNL     1      -8.176  -6.001   1.218  0.00  0.00    +0.008 C 
ENDBRANCH  14  17
ENDBRANCH   8  11
ENDBRANCH   3   8
BRANCH   6  23
ATOM     23  C   UNL     1      -2.487   1.371   0.020  0.00  0.00    +0.043 C 
BRANCH  23  28
ATOM     24  C   UNL     1       1.140   4.093   1.270  0.00  0.00    +0.042 C 
ATOM     25  C   UNL     1       0.640   3.376   0.014  0.00  0.00    +0.112 C 
ATOM     26  C   UNL     1      -0.871   3.261   0.028  0.00  0.00    +0.245 C 
ATOM     27  O   UNL     1      -1.675   4.169   0.040  0.00  0.00    -0.273 OA
ATOM     28  N   UNL     1      -1.137   1.940   0.018  0.00  0.00    -0.241 N 
ATOM     29  C   UNL     1      -0.014   1.211   0.009  0.00  0.00    +0.308 C 
ATOM     30  O   UNL     1       0.002  -0.004   0.002  0.00  0.00    -0.252 OA
ATOM     31  N   UNL     1       1.094   1.974   0.002  0.00  0.00    -0.285 N 
ATOM     32  H   UNL     1       2.012   1.662  -0.009  0.00  0.00    +0.151 HD
BRANCH  25  33
ATOM     33  C   UNL     1       1.113   4.105  -1.245  0.00  0.00    +0.021 C 
ATOM     34  C   UNL     1       1.788   3.269  -2.334  0.00  0.00    +0.006 C 
ATOM     35  C   UNL     1       2.622   4.218  -1.471  0.00  0.00    +0.006 C 
ENDBRANCH  25  33
ENDBRANCH  23  28
ENDBRANCH   6  23
TORSDOF 6
