REMARK  Name = ZINC13403856
REMARK  7 active torsions:
REMARK  status: ('A' for Active; 'I' for Inactive)
REMARK    1  A    between atoms: C_1  and  C_2
REMARK    2  A    between atoms: C_9  and  N_21
REMARK    3  A    between atoms: C_10  and  C_13
REMARK    4  A    between atoms: N_21  and  C_22
REMARK    5  A    between atoms: C_22  and  C_23
REMARK    6  A    between atoms: C_23  and  C_24
REMARK    7  A    between atoms: C_24  and  N_25
REMARK                            x       y       z     vdW  Elec       q    Type
REMARK                         _______ _______ _______ _____ _____    ______ ____
ROOT
ATOM      1  C   UNL     1       0.342   1.536   0.046  0.00  0.00    +0.047 C 
ATOM      2  C   UNL     1       0.081   0.052   0.034  0.00  0.00    -0.007 A 
ATOM      3  C   UNL     1      -0.150  -0.595  -1.144  0.00  0.00    +0.008 A 
ATOM      4  C   UNL     1      -0.391  -1.976  -1.139  0.00  0.00    +0.019 A 
ATOM      5  C   UNL     1      -0.394  -2.659   0.028  0.00  0.00    +0.096 A 
ATOM      6  N   UNL     1      -0.165  -2.021   1.211  0.00  0.00    -0.267 N 
ATOM      7  C   UNL     1       0.079  -0.676   1.237  0.00  0.00    +0.145 A 
ATOM      8  N   UNL     1       0.311  -0.035   2.383  0.00  0.00    -0.214 NA
ATOM      9  C   UNL     1       0.321  -0.669   3.546  0.00  0.00    +0.134 A 
ATOM     10  C   UNL     1       0.081  -2.065   3.581  0.00  0.00    +0.081 A 
ATOM     11  C   UNL     1      -0.176  -2.734   2.358  0.00  0.00    +0.267 A 
ATOM     12  O   UNL     1      -0.389  -3.933   2.340  0.00  0.00    -0.267 OA
ENDROOT
BRANCH  10  13
ATOM     13  C   UNL     1       0.085  -2.769   4.803  0.00  0.00    +0.037 C 
ATOM     14  C   UNL     1      -0.756  -2.381   5.826  0.00  0.00    +0.079 C 
ATOM     15  C   UNL     1      -0.837  -2.853   7.162  0.00  0.00    +0.275 C 
ATOM     16  O   UNL     1      -0.009  -3.829   7.602  0.00  0.00    -0.267 OA
ATOM     17  N   UNL     1      -1.722  -2.327   7.954  0.00  0.00    -0.161 NA
ATOM     18  C   UNL     1      -2.552  -1.359   7.538  0.00  0.00    +0.139 C 
ATOM     19  S   UNL     1      -3.776  -0.540   8.411  0.00  0.00    -0.026 S 
ATOM     20  S   UNL     1      -2.043  -1.138   5.838  0.00  0.00    -0.059 S 
ENDBRANCH  10  13
BRANCH   9  21
ATOM     21  N   UNL     1       0.564   0.022   4.711  0.00  0.00    -0.328 N 
ATOM     22  H   UNL     1       0.571  -0.446   5.561  0.00  0.00    +0.147 HD
BRANCH  21  23
ATOM     23  C   UNL     1       0.812   1.466   4.668  0.00  0.00    +0.104 C 
BRANCH  23  24
ATOM     24  C   UNL     1       1.052   1.984   6.088  0.00  0.00    +0.040 C 
BRANCH  24  25
ATOM     25  C   UNL     1       1.311   3.491   6.043  0.00  0.00    +0.124 C 
BRANCH  25  26
ATOM     26  N   UNL     1       1.540   3.988   7.402  0.00  0.00    -0.338 N 
ATOM     27  C   UNL     1       0.587   4.447   8.270  0.00  0.00    +0.104 A 
ATOM     28  C   UNL     1       1.228   4.801   9.400  0.00  0.00    +0.101 A 
ATOM     29  N   UNL     1       2.537   4.565   9.227  0.00  0.00    -0.352 N 
ATOM     30  C   UNL     1       2.731   4.073   8.034  0.00  0.00    +0.173 A 
ATOM     31  H   UNL     1       3.229   4.730   9.886  0.00  0.00    +0.166 HD
ENDBRANCH  25  26
ENDBRANCH  24  25
ENDBRANCH  23  24
ENDBRANCH  21  23
ENDBRANCH   9  21
TORSDOF 6
