REMARK  Name = ZINC44319316
REMARK  13 active torsions:
REMARK  status: ('A' for Active; 'I' for Inactive)
REMARK    1  A    between atoms: C_1  and  C_2
REMARK    2  A    between atoms: C_3  and  C_14
REMARK    3  A    between atoms: C_4  and  O_13
REMARK    4  A    between atoms: C_6  and  C_11
REMARK    5  A    between atoms: C_7  and  N_8
REMARK    6  A    between atoms: C_14  and  CA_15
REMARK    7  A    between atoms: CA_15  and  C_17
REMARK    8  A    between atoms: CA_15  and  N_20
REMARK    9  A    between atoms: C_21  and  O_23
REMARK   10  A    between atoms: O_23  and  C_24
REMARK   11  A    between atoms: C_24  and  C_25
REMARK   12  A    between atoms: C_24  and  C_26
REMARK   13  A    between atoms: C_24  and  C_27
REMARK                            x       y       z     vdW  Elec       q    Type
REMARK                         _______ _______ _______ _____ _____    ______ ____
ROOT
ATOM      1  C   UNL     1       0.106   1.481   0.107  0.00  0.00    +0.046 C 
ATOM      2  C   UNL     1       0.096  -0.020  -0.024  0.00  0.00    -0.013 A 
ATOM      3  C   UNL     1       0.053  -0.603  -1.276  0.00  0.00    +0.003 A 
ATOM      4  C   UNL     1       0.044  -1.985  -1.397  0.00  0.00    +0.135 A 
ATOM      5  C   UNL     1       0.079  -2.779  -0.258  0.00  0.00    +0.065 A 
ATOM      6  C   UNL     1       0.122  -2.191   0.992  0.00  0.00    -0.003 A 
ATOM      7  C   UNL     1       0.136  -0.813   1.108  0.00  0.00    +0.133 A 
ATOM      8  C   UNL     1       0.159  -3.051   2.228  0.00  0.00    +0.047 C 
ATOM      9 BR   UNL     1       0.066  -4.663  -0.417  0.00  0.00    -0.046 Br
ENDROOT
BRANCH   7  10
ATOM     10  N   UNL     1       0.188  -0.185   2.448  0.00  0.00    +0.057 N 
ATOM     11  O   UNL     1      -0.837   0.075   3.034  0.00  0.00    -0.126 OA
ATOM     12  O   UNL     1       1.256   0.068   2.956  0.00  0.00    -0.126 OA
ENDBRANCH   7  10
BRANCH   4  13
ATOM     13  O   UNL     1       0.001  -2.561  -2.627  0.00  0.00    -0.505 OA
ATOM     14  H   UNL     1       0.869  -2.804  -2.978  0.00  0.00    +0.292 HD
ENDBRANCH   4  13
BRANCH   3  15
ATOM     15  C   UNL     1       0.015   0.262  -2.510  0.00  0.00    +0.073 C 
BRANCH  15  16
ATOM     16  CA  UNL     1       1.439   0.676  -2.885  0.00  0.00    +0.193 C 
BRANCH  16  17
ATOM     17  N   UNL     1       2.204  -0.508  -3.283  0.00  0.00    -0.267 N 
ATOM     18  C   UNL     1       3.551  -0.483  -3.250  0.00  0.00    +0.401 C 
ATOM     19  O   UNL     1       4.131   0.523  -2.892  0.00  0.00    -0.226 OA
ATOM     20  H   UNL     1       1.741  -1.311  -3.569  0.00  0.00    +0.153 HD
BRANCH  18  21
ATOM     21  O   UNL     1       4.254  -1.571  -3.615  0.00  0.00    -0.445 OA
BRANCH  21  22
ATOM     22  C   UNL     1       5.678  -1.473  -3.556  0.00  0.00    +0.107 C 
ATOM     23  C   UNL     1       6.110  -1.168  -2.121  0.00  0.00    +0.055 C 
ATOM     24  C   UNL     1       6.300  -2.798  -4.005  0.00  0.00    +0.055 C 
ATOM     25  C   UNL     1       6.151  -0.350  -4.481  0.00  0.00    +0.055 C 
ENDBRANCH  21  22
ENDBRANCH  18  21
ENDBRANCH  16  17
BRANCH  16  26
ATOM     26  C   UNL     1       1.391   1.652  -4.033  0.00  0.00    +0.376 C 
ATOM     27  O   UNL     1       0.962   2.779  -3.858  0.00  0.00    -0.244 OA
ATOM     28  OXT UNL     1       1.783   1.313  -5.137  0.00  0.00    -0.244 OA
ENDBRANCH  16  26
ENDBRANCH  15  16
ENDBRANCH   3  15
TORSDOF 8
