REMARK  Name = ZINC28157640
REMARK  9 active torsions:
REMARK  status: ('A' for Active; 'I' for Inactive)
REMARK    1  A    between atoms: C_1  and  C_2
REMARK    2  A    between atoms: C_5  and  N_8
REMARK    3  A    between atoms: C_9  and  C_11
REMARK    4  A    between atoms: C_11  and  C_12
REMARK    5  A    between atoms: C_20  and  C_32
REMARK    6  A    between atoms: C_23  and  C_25
REMARK    7  A    between atoms: C_35  and  C_38
REMARK    8  A    between atoms: C_38  and  C_39
REMARK    9  A    between atoms: C_38  and  C_40
REMARK                            x       y       z     vdW  Elec       q    Type
REMARK                         _______ _______ _______ _____ _____    ______ ____
ROOT
ATOM      1  C   UNL     1       6.010   2.066  -0.359  0.00  0.00    +0.150 C 
ATOM      2  C   UNL     1       7.355   1.367  -0.510  0.00  0.00    +0.252 C 
ATOM      3  O   UNL     1       7.616   0.659  -1.463  0.00  0.00    -0.272 OA
ATOM      4  N   UNL     1       8.207   1.581   0.455  0.00  0.00    -0.157 NA
ATOM      5  C   UNL     1       7.965   2.346   1.512  0.00  0.00    +0.170 C 
ATOM      6  S   UNL     1       6.295   2.929   1.239  0.00  0.00    -0.078 S 
ATOM      7  N   UNL     1       8.793   2.622   2.560  0.00  0.00    -0.195 N 
ATOM      8  C   UNL     1      10.160   2.104   2.731  0.00  0.00    +0.136 C 
ATOM      9  C   UNL     1      10.621   2.730   4.062  0.00  0.00    +0.087 C 
ATOM     10  C   UNL     1       9.430   3.546   4.512  0.00  0.00    +0.069 C 
ATOM     11  N   UNL     1       8.482   3.437   3.647  0.00  0.00    -0.182 NA
ENDROOT
BRANCH  10  12
ATOM     12  C   UNL     1       9.365   4.343   5.750  0.00  0.00    -0.002 A 
ATOM     13  C   UNL     1      10.459   4.382   6.618  0.00  0.00    +0.012 A 
ATOM     14  C   UNL     1      10.393   5.134   7.772  0.00  0.00    +0.039 A 
ATOM     15  C   UNL     1       9.242   5.843   8.077  0.00  0.00    +0.123 A 
ATOM     16  C   UNL     1       8.151   5.804   7.222  0.00  0.00    +0.039 A 
ATOM     17  C   UNL     1       8.206   5.059   6.063  0.00  0.00    +0.012 A 
ATOM     18  F   UNL     1       9.181   6.574   9.211  0.00  0.00    -0.205 F 
ENDBRANCH  10  12
BRANCH   8  19
ATOM     19  C   UNL     1      10.149   0.600   2.824  0.00  0.00    -0.025 A 
ATOM     20  C   UNL     1       9.141  -0.042   3.519  0.00  0.00    +0.006 A 
ATOM     21  C   UNL     1       9.128  -1.422   3.601  0.00  0.00    +0.004 A 
ATOM     22  C   UNL     1      10.129  -2.159   2.997  0.00  0.00    -0.045 A 
ATOM     23  C   UNL     1      11.140  -1.518   2.307  0.00  0.00    +0.004 A 
ATOM     24  C   UNL     1      11.150  -0.138   2.221  0.00  0.00    +0.006 A 
BRANCH  22  25
ATOM     25  C   UNL     1      10.117  -3.664   3.090  0.00  0.00    +0.013 C 
ATOM     26  C   UNL     1      10.184  -4.084   4.560  0.00  0.00    +0.012 C 
ATOM     27  C   UNL     1       8.830  -4.204   2.463  0.00  0.00    +0.012 C 
ENDBRANCH  22  25
ENDBRANCH   8  19
BRANCH   1  28
ATOM     28  C   UNL     1       4.864   1.058  -0.252  0.00  0.00    +0.120 C 
BRANCH  28  30
ATOM     29  N   UNL     1       2.402   1.106  -0.014  0.00  0.00    -0.285 N 
ATOM     30  C   UNL     1       3.556   1.795  -0.123  0.00  0.00    +0.219 C 
ATOM     31  O   UNL     1       3.541   3.008  -0.117  0.00  0.00    -0.275 OA
ATOM     32  H   UNL     1       2.421   0.009   0.057  0.00  0.00    +0.155 HD
BRANCH  29  37
ATOM     33  C   UNL     1      -2.553   3.868   0.079  0.00  0.00    +0.044 C 
ATOM     34  C   UNL     1      -1.236   3.134   0.054  0.00  0.00    -0.050 A 
ATOM     35  C   UNL     1      -1.145   1.902  -0.567  0.00  0.00    +0.005 A 
ATOM     36  C   UNL     1       0.059   1.225  -0.586  0.00  0.00    +0.023 A 
ATOM     37  C   UNL     1       1.181   1.788   0.008  0.00  0.00    +0.033 A 
ATOM     38  C   UNL     1       1.087   3.028   0.625  0.00  0.00    +0.023 A 
ATOM     39  C   UNL     1      -0.121   3.698   0.646  0.00  0.00    +0.005 A 
ENDBRANCH  29  37
ENDBRANCH  28  30
ENDBRANCH   1  28
TORSDOF 6
