REMARK  Name = ZINC14360857
REMARK  8 active torsions:
REMARK  status: ('A' for Active; 'I' for Inactive)
REMARK    1  A    between atoms: C_6  and  N_7
REMARK    2  A    between atoms: N_7  and  S_8
REMARK    3  A    between atoms: S_8  and  C_11
REMARK    4  A    between atoms: C_13  and  N_23
REMARK    5  A    between atoms: C_16  and  N_17
REMARK    6  A    between atoms: N_23  and  C_24
REMARK    7  A    between atoms: C_24  and  N_26
REMARK    8  A    between atoms: N_26  and  C_27
REMARK                            x       y       z     vdW  Elec       q    Type
REMARK                         _______ _______ _______ _____ _____    ______ ____
ROOT
ATOM      1  C   UNL     1       1.180   1.927  -8.203  0.00  0.00    +0.131 A 
ATOM      2  C   UNL     1       1.249   1.050  -7.139  0.00  0.00    +0.054 A 
ATOM      3  C   UNL     1       0.624   1.362  -5.939  0.00  0.00    +0.035 A 
ATOM      4  C   UNL     1      -0.076   2.555  -5.811  0.00  0.00    +0.025 A 
ATOM      5  C   UNL     1      -0.141   3.434  -6.873  0.00  0.00    +0.027 A 
ATOM      6  C   UNL     1       0.484   3.122  -8.073  0.00  0.00    +0.057 A 
ENDROOT
BRANCH   6   7
ATOM      7  N   UNL     1       0.414   4.011  -9.151  0.00  0.00    -0.328 N 
ATOM      8  C   UNL     1       1.006   5.309  -8.802  0.00  0.00    +0.105 C 
ATOM      9  C   UNL     1       1.044   6.204 -10.043  0.00  0.00    +0.019 C 
ATOM     10  C   UNL     1      -0.380   6.397 -10.571  0.00  0.00    +0.003 C 
ATOM     11  C   UNL     1      -0.991   5.027 -10.881  0.00  0.00    +0.019 C 
ATOM     12  C   UNL     1      -0.970   4.166  -9.616  0.00  0.00    +0.105 C 
ENDBRANCH   6   7
BRANCH   1  13
ATOM     13  S   UNL     1       1.974   1.530  -9.725  0.00  0.00    +0.074 S 
ATOM     14  O   UNL     1       2.634   0.288  -9.527  0.00  0.00    -0.150 OA
ATOM     15  O   UNL     1       1.009   1.725 -10.749  0.00  0.00    -0.150 OA
BRANCH  13  16
ATOM     16  N   UNL     1       3.158   2.662  -9.969  0.00  0.00    -0.216 N 
ATOM     17  H   UNL     1       3.087   3.288 -10.707  0.00  0.00    +0.174 HD
BRANCH  16  23
ATOM     18  C   UNL     1       4.076   2.656  -7.736  0.00  0.00    +0.026 A 
ATOM     19  C   UNL     1       5.168   2.703  -6.892  0.00  0.00    +0.022 A 
ATOM     20  C   UNL     1       6.444   2.821  -7.414  0.00  0.00    +0.041 A 
ATOM     21  C   UNL     1       6.630   2.886  -8.784  0.00  0.00    +0.022 A 
ATOM     22  C   UNL     1       5.543   2.833  -9.633  0.00  0.00    +0.026 A 
ATOM     23  C   UNL     1       4.261   2.715  -9.112  0.00  0.00    +0.048 A 
ATOM     24 CL   UNL     1       7.813   2.888  -6.349  0.00  0.00    -0.084 Cl
ENDBRANCH  16  23
ENDBRANCH  13  16
ENDBRANCH   1  13
BRANCH   3  25
ATOM     25  N   UNL     1       0.695   0.472  -4.859  0.00  0.00    -0.297 N 
ATOM     26  H   UNL     1       0.837   0.809  -3.961  0.00  0.00    +0.154 HD
BRANCH  25  27
ATOM     27  C   UNL     1       0.565  -0.853  -5.069  0.00  0.00    +0.135 C 
ATOM     28  S   UNL     1       0.181  -1.439  -6.631  0.00  0.00    -0.019 S 
BRANCH  27  29
ATOM     29  N   UNL     1       0.738  -1.717  -4.049  0.00  0.00    -0.323 N 
ATOM     30  H   UNL     1       0.955  -1.385  -3.164  0.00  0.00    +0.148 HD
BRANCH  29  31
ATOM     31  C   UNL     1       0.597  -3.157  -4.276  0.00  0.00    +0.072 C 
ATOM     32  C   UNL     1       0.220  -3.846  -2.963  0.00  0.00    +0.022 C 
ATOM     33  C   UNL     1       0.072  -5.351  -3.201  0.00  0.00    +0.002 C 
ATOM     34  C   UNL     1       1.398  -5.918  -3.713  0.00  0.00    +0.000 C 
ATOM     35  C   UNL     1       1.775  -5.229  -5.026  0.00  0.00    +0.002 C 
ATOM     36  C   UNL     1       1.922  -3.725  -4.788  0.00  0.00    +0.022 C 
ENDBRANCH  29  31
ENDBRANCH  27  29
ENDBRANCH  25  27
ENDBRANCH   3  25
TORSDOF 8
