REMARK  Name = ZINC08728910
REMARK  9 active torsions:
REMARK  status: ('A' for Active; 'I' for Inactive)
REMARK    1  A    between atoms: C_1  and  C_2
REMARK    2  A    between atoms: C_11  and  S_16
REMARK    3  A    between atoms: N_12  and  C_13
REMARK    4  A    between atoms: S_16  and  C_17
REMARK    5  A    between atoms: C_17  and  C_18
REMARK    6  A    between atoms: N_23  and  C_24
REMARK    7  A    between atoms: C_24  and  C_25
REMARK    8  A    between atoms: C_25  and  C_26
REMARK    9  A    between atoms: C_25  and  C_27
REMARK                            x       y       z     vdW  Elec       q    Type
REMARK                         _______ _______ _______ _____ _____    ______ ____
ROOT
ATOM      1  C   UNL     1      -7.413  -5.688   0.811  0.00  0.00    +0.007 C 
ATOM      2  C   UNL     1      -6.602  -4.496   0.298  0.00  0.00    -0.011 C 
ATOM      3  C   UNL     1      -6.602  -3.385   1.351  0.00  0.00    +0.022 C 
ATOM      4  C   UNL     1      -5.740  -2.221   0.858  0.00  0.00    +0.108 C 
ATOM      5  N   UNL     1      -4.370  -2.692   0.618  0.00  0.00    -0.300 N 
ATOM      6  C   UNL     1      -4.339  -3.727  -0.424  0.00  0.00    +0.108 C 
ATOM      7  C   UNL     1      -5.159  -4.936   0.032  0.00  0.00    +0.022 C 
ATOM      8  C   UNL     1      -3.529  -1.635   0.295  0.00  0.00    +0.221 A 
ATOM      9  N   UNL     1      -3.876  -0.374   0.207  0.00  0.00    -0.112 NA
ATOM     10  N   UNL     1      -2.738   0.365  -0.141  0.00  0.00    -0.121 NA
ATOM     11  C   UNL     1      -1.732  -0.469  -0.253  0.00  0.00    +0.194 A 
ATOM     12  N   UNL     1      -2.197  -1.728   0.008  0.00  0.00    -0.287 N 
ENDROOT
BRANCH  12  13
ATOM     13  C   UNL     1      -1.404  -2.959  -0.012  0.00  0.00    +0.093 C 
ATOM     14  C   UNL     1       0.118  -2.821   0.060  0.00  0.00    +0.027 C 
ATOM     15  C   UNL     1      -0.552  -3.231  -1.254  0.00  0.00    +0.027 C 
ENDBRANCH  12  13
BRANCH  11  16
ATOM     16  S   UNL     1      -0.075  -0.043  -0.674  0.00  0.00    -0.077 S 
BRANCH  16  17
ATOM     17  C   UNL     1      -0.128   1.757  -0.898  0.00  0.00    +0.173 C 
BRANCH  17  18
ATOM     18  C   UNL     1       1.244   2.258  -1.266  0.00  0.00    +0.231 C 
ATOM     19  O   UNL     1       2.167   1.478  -1.368  0.00  0.00    -0.274 OA
ATOM     20  N   UNL     1       1.446   3.573  -1.483  0.00  0.00    -0.240 N 
ATOM     21  C   UNL     1       2.674   4.021  -1.812  0.00  0.00    +0.306 C 
ATOM     22  O   UNL     1       3.599   3.239  -1.914  0.00  0.00    -0.252 OA
ATOM     23  N   UNL     1       2.876   5.336  -2.029  0.00  0.00    -0.299 N 
ATOM     24  H   UNL     1       0.708   4.197  -1.401  0.00  0.00    +0.159 HD
ATOM     25  H   UNL     1       2.137   5.960  -1.947  0.00  0.00    +0.150 HD
BRANCH  23  26
ATOM     26  C   UNL     1       4.210   5.823  -2.387  0.00  0.00    +0.108 C 
BRANCH  26  27
ATOM     27  C   UNL     1       4.165   7.340  -2.575  0.00  0.00    -0.000 C 
ATOM     28  C   UNL     1       3.835   8.011  -1.240  0.00  0.00    +0.009 C 
ATOM     29  C   UNL     1       5.527   7.833  -3.070  0.00  0.00    +0.009 C 
ENDBRANCH  26  27
ENDBRANCH  23  26
ENDBRANCH  17  18
ENDBRANCH  16  17
ENDBRANCH  11  16
TORSDOF 6
