REMARK  Name = ZINC05665855
REMARK  10 active torsions:
REMARK  status: ('A' for Active; 'I' for Inactive)
REMARK    1  A    between atoms: C_1  and  C_2
REMARK    2  A    between atoms: C_2  and  C_3
REMARK    3  A    between atoms: C_3  and  C_4
REMARK    4  A    between atoms: C_8  and  C_17
REMARK    5  A    between atoms: C_8  and  C_18
REMARK    6  A    between atoms: C_9  and  C_13
REMARK    7  A    between atoms: C_13  and  O_15
REMARK    8  A    between atoms: O_15  and  C_16
REMARK    9  A    between atoms: N_19  and  C_20
REMARK   10  A    between atoms: C_25  and  O_26
REMARK                            x       y       z     vdW  Elec       q    Type
REMARK                         _______ _______ _______ _____ _____    ______ ____
ROOT
ATOM      1  C   UNL     1       2.145  -0.872   1.110  0.00  0.00    +0.082 C 
ATOM      2  C   UNL     1       2.849  -0.605  -0.039  0.00  0.00    +0.169 C 
ATOM      3  O   UNL     1       2.216   0.001  -1.057  0.00  0.00    -0.292 OA
ATOM      4  C   UNL     1       4.297  -0.964  -0.202  0.00  0.00    +0.087 C 
ATOM      5  C   UNL     1       4.698  -2.079   0.762  0.00  0.00    -0.008 C 
ATOM      6  C   UNL     1       4.312  -1.675   2.191  0.00  0.00    +0.175 C 
ATOM      7  C   UNL     1       2.805  -1.539   2.238  0.00  0.00    +0.182 C 
ATOM      8  O   UNL     1       2.166  -1.970   3.175  0.00  0.00    -0.291 OA
ATOM      9  C   UNL     1       6.210  -2.301   0.684  0.00  0.00    +0.012 C 
ATOM     10  C   UNL     1       3.971  -3.370   0.381  0.00  0.00    +0.012 C 
ENDROOT
BRANCH   1  11
ATOM     11  C   UNL     1       0.732  -0.485   1.212  0.00  0.00    +0.056 C 
ATOM     12  N   UNL     1       0.106  -0.595   2.351  0.00  0.00    -0.248 NA
BRANCH  12  13
ATOM     13  C   UNL     1      -1.245  -0.383   2.413  0.00  0.00    +0.105 A 
ATOM     14  C   UNL     1      -2.109  -1.118   1.599  0.00  0.00    +0.031 A 
ATOM     15  C   UNL     1      -3.469  -0.900   1.667  0.00  0.00    +0.002 A 
ATOM     16  C   UNL     1      -3.982   0.045   2.539  0.00  0.00    +0.004 A 
ATOM     17  C   UNL     1      -3.136   0.779   3.350  0.00  0.00    +0.047 A 
ATOM     18  C   UNL     1      -1.768   0.568   3.298  0.00  0.00    +0.142 A 
BRANCH  18  19
ATOM     19  O   UNL     1      -0.937   1.285   4.099  0.00  0.00    -0.505 OA
ATOM     20  H   UNL     1      -0.628   2.112   3.705  0.00  0.00    +0.292 HD
ENDBRANCH  18  19
ENDBRANCH  12  13
BRANCH  11  22
ATOM     21  C   UNL     1       0.217   1.550  -0.108  0.00  0.00    +0.010 C 
ATOM     22  C   UNL     1       0.005   0.038   0.000  0.00  0.00    +0.053 C 
ENDBRANCH  11  22
ENDBRANCH   1  11
BRANCH   6  23
ATOM     23  C   UNL     1       4.953  -0.357   2.542  0.00  0.00    +0.318 C 
ATOM     24  O   UNL     1       5.650   0.209   1.734  0.00  0.00    -0.250 OA
BRANCH  23  25
ATOM     25  O   UNL     1       4.749   0.188   3.751  0.00  0.00    -0.467 OA
ATOM     26  C   UNL     1       5.387   1.438   4.016  0.00  0.00    +0.280 C 
ENDBRANCH  23  25
ENDBRANCH   6  23
TORSDOF 6
