REMARK  Name = ZINC53247682
REMARK  6 active torsions:
REMARK  status: ('A' for Active; 'I' for Inactive)
REMARK    1  A    between atoms: C_1  and  C_2
REMARK    2  A    between atoms: C_7  and  N_8
REMARK    3  A    between atoms: C_9  and  C_11
REMARK    4  A    between atoms: C_11  and  N_12
REMARK    5  A    between atoms: N_12  and  C_13
REMARK    6  A    between atoms: C_19  and  C_22
REMARK                            x       y       z     vdW  Elec       q    Type
REMARK                         _______ _______ _______ _____ _____    ______ ____
ROOT
ATOM      1  C   UNL     1      -0.167   0.054   4.882  0.00  0.00    +0.205 C 
ENDROOT
BRANCH   1   2
ATOM      2  N   UNL     1      -0.240  -0.903   5.989  0.00  0.00    -0.280 N 
ATOM      3  C   UNL     1       0.988  -1.366   6.640  0.00  0.00    +0.134 C 
ATOM      4  C   UNL     1      -1.438  -1.359   6.407  0.00  0.00    +0.308 C 
ATOM      5  O   UNL     1      -2.457  -0.975   5.867  0.00  0.00    -0.252 OA
ATOM      6  N   UNL     1      -1.506  -2.239   7.426  0.00  0.00    -0.251 N 
ATOM      7  C   UNL     1      -2.745  -2.710   7.859  0.00  0.00    +0.169 A 
ATOM      8  C   UNL     1      -4.003  -2.357   7.322  0.00  0.00    +0.091 A 
ATOM      9  C   UNL     1      -4.951  -3.020   8.008  0.00  0.00    +0.136 A 
ATOM     10  O   UNL     1      -4.345  -3.767   8.944  0.00  0.00    -0.358 OA
ATOM     11  N   UNL     1      -2.948  -3.563   8.831  0.00  0.00    -0.063 NA
ATOM     12  C   UNL     1      -6.436  -2.937   7.768  0.00  0.00    +0.089 C 
ATOM     13  H   UNL     1      -0.693  -2.546   7.857  0.00  0.00    +0.158 HD
ENDBRANCH   1   2
BRANCH   1  15
ATOM     14  N   UNL     1       0.026  -0.014   2.417  0.00  0.00    -0.284 N 
ATOM     15  C   UNL     1      -0.056  -0.694   3.578  0.00  0.00    +0.235 C 
ATOM     16  O   UNL     1      -0.040  -1.906   3.574  0.00  0.00    -0.274 OA
ATOM     17  H   UNL     1       0.079   0.955   2.425  0.00  0.00    +0.155 HD
BRANCH  14  24
ATOM     18  C   UNL     1      -1.265   1.183   0.182  0.00  0.00    +0.046 C 
ATOM     19  C   UNL     1      -0.584  -0.158   0.085  0.00  0.00    -0.028 A 
ATOM     20  C   UNL     1      -0.570  -0.840  -1.116  0.00  0.00    +0.020 A 
ATOM     21  C   UNL     1       0.055  -2.071  -1.206  0.00  0.00    +0.018 A 
ATOM     22  C   UNL     1       0.666  -2.623  -0.094  0.00  0.00    +0.017 A 
ATOM     23  C   UNL     1       0.655  -1.945   1.109  0.00  0.00    +0.024 A 
ATOM     24  C   UNL     1       0.034  -0.706   1.201  0.00  0.00    +0.036 A 
ATOM     25 BR   UNL     1       0.072  -3.002  -2.852  0.00  0.00    -0.050 Br
ENDBRANCH  14  24
ENDBRANCH   1  15
TORSDOF 3
