REMARK  Name = ZINC44420744
REMARK  3 active torsions:
REMARK  status: ('A' for Active; 'I' for Inactive)
REMARK    1  A    between atoms: C_3  and  N_11
REMARK    2  A    between atoms: C_4  and  C_8
REMARK    3  A    between atoms: C_6  and  N_7
REMARK                            x       y       z     vdW  Elec       q    Type
REMARK                         _______ _______ _______ _____ _____    ______ ____
ROOT
ATOM      1  C   UNL     1      -0.017   1.387   0.010  0.00  0.00    +0.024 A 
ATOM      2  C   UNL     1       1.164   2.100   0.002  0.00  0.00    +0.026 A 
ATOM      3  C   UNL     1       2.382   1.433  -0.013  0.00  0.00    +0.042 A 
ATOM      4  C   UNL     1       2.408   0.030  -0.021  0.00  0.00    +0.059 A 
ATOM      5  C   UNL     1       1.207  -0.684  -0.013  0.00  0.00    +0.037 A 
ATOM      6  C   UNL     1       0.002  -0.004   0.002  0.00  0.00    +0.025 A 
ENDROOT
BRANCH   3   7
ATOM      7  N   UNL     1       3.572   2.153  -0.021  0.00  0.00    -0.322 N 
ATOM      8  C   UNL     1       4.191   2.549  -1.295  0.00  0.00    +0.133 C 
ATOM      9  C   UNL     1       4.508   4.048  -1.210  0.00  0.00    +0.179 C 
ATOM     10  O   UNL     1       5.313   4.276  -0.054  0.00  0.00    -0.373 OA
ATOM     11  C   UNL     1       4.686   3.993   1.197  0.00  0.00    +0.139 C 
ATOM     12  C   UNL     1       4.213   2.528   1.235  0.00  0.00    +0.102 C 
ATOM     13  C   UNL     1       5.496   1.713   1.463  0.00  0.00    +0.025 C 
ATOM     14  C   UNL     1       6.504   2.668   2.130  0.00  0.00    +0.004 C 
ATOM     15  C   UNL     1       5.793   4.016   2.286  0.00  0.00    +0.033 C 
ENDBRANCH   3   7
BRANCH   4  16
ATOM     16  C   UNL     1       3.697  -0.687  -0.037  0.00  0.00    +0.243 C 
ATOM     17  O   UNL     1       4.740  -0.062  -0.044  0.00  0.00    -0.270 OA
ATOM     18  N   UNL     1       3.718  -2.034  -0.045  0.00  0.00    -0.325 N 
ATOM     19  H   UNL     1       2.886  -2.533  -0.039  0.00  0.00    +0.145 HD
ATOM     20  H   UNL     1       4.565  -2.506  -0.056  0.00  0.00    +0.145 HD
ENDBRANCH   4  16
BRANCH   6  21
ATOM     21  N   UNL     1      -1.202  -0.719   0.010  0.00  0.00    -0.358 N 
ATOM     22  H   UNL     1      -2.048  -0.243   0.021  0.00  0.00    +0.142 HD
ATOM     23  H   UNL     1      -1.191  -1.688   0.005  0.00  0.00    +0.142 HD
ENDBRANCH   6  21
TORSDOF 3
