REMARK  Name = ZINC36557328
REMARK  8 active torsions:
REMARK  status: ('A' for Active; 'I' for Inactive)
REMARK    1  A    between atoms: C_4  and  C_7
REMARK    2  A    between atoms: C_7  and  O_8
REMARK    3  A    between atoms: O_8  and  C_9
REMARK    4  A    between atoms: C_12  and  C_15
REMARK    5  A    between atoms: C_26  and  S_31
REMARK    6  A    between atoms: S_31  and  N_34
REMARK    7  A    between atoms: N_34  and  C_35
REMARK    8  A    between atoms: C_35  and  C_36
REMARK                            x       y       z     vdW  Elec       q    Type
REMARK                         _______ _______ _______ _____ _____    ______ ____
ROOT
ATOM      1  C   UNL     1       9.022  -3.675   1.977  0.00  0.00    +0.105 C 
ATOM      2  C   UNL     1      10.148  -2.685   2.214  0.00  0.00    +0.029 C 
ATOM      3  C   UNL     1      10.335  -1.574   1.172  0.00  0.00    +0.033 C 
ATOM      4  C   UNL     1      10.927  -0.450   2.024  0.00  0.00    -0.030 C 
ATOM      5  C   UNL     1      10.553  -0.594   3.290  0.00  0.00    -0.023 C 
ATOM      6  C   UNL     1       9.681  -1.802   3.410  0.00  0.00    +0.049 C 
ATOM      7  C   UNL     1       9.649  -2.656   4.617  0.00  0.00    -0.018 A 
ATOM      8  C   UNL     1       9.973  -2.179   5.869  0.00  0.00    +0.034 A 
ATOM      9  C   UNL     1       9.914  -3.014   6.970  0.00  0.00    +0.106 A 
ATOM     10  C   UNL     1       9.528  -4.333   6.818  0.00  0.00    +0.030 A 
ATOM     11  C   UNL     1       9.206  -4.821   5.568  0.00  0.00    +0.025 A 
ATOM     12  C   UNL     1       9.268  -3.993   4.454  0.00  0.00    +0.031 A 
ATOM     13  N   UNL     1       8.971  -4.522   3.189  0.00  0.00    -0.336 N 
ATOM     14  H   UNL     1       8.729  -5.458   3.106  0.00  0.00    +0.147 HD
ENDROOT
BRANCH   1  18
ATOM     15  C   UNL     1       5.319  -1.604   1.467  0.00  0.00    +0.121 A 
ATOM     16  C   UNL     1       5.718  -2.012   2.731  0.00  0.00    +0.046 A 
ATOM     17  C   UNL     1       6.916  -2.682   2.893  0.00  0.00    +0.009 A 
ATOM     18  C   UNL     1       7.716  -2.945   1.797  0.00  0.00    -0.027 A 
ATOM     19  C   UNL     1       7.320  -2.539   0.536  0.00  0.00    +0.009 A 
ATOM     20  C   UNL     1       6.121  -1.875   0.367  0.00  0.00    +0.046 A 
BRANCH  15  21
ATOM     21  O   UNL     1       4.141  -0.946   1.304  0.00  0.00    -0.487 OA
BRANCH  21  22
ATOM     22  C   UNL     1       3.367  -0.701   2.480  0.00  0.00    +0.264 C 
BRANCH  22  26
ATOM     23  C   UNL     1      -0.210   1.382   1.425  0.00  0.00    +0.000 A 
ATOM     24  C   UNL     1      -0.194  -0.001   1.441  0.00  0.00    +0.000 A 
ATOM     25  C   UNL     1       0.964  -0.674   1.782  0.00  0.00    +0.007 A 
ATOM     26  C   UNL     1       2.106   0.034   2.107  0.00  0.00    -0.010 A 
ATOM     27  C   UNL     1       2.090   1.416   2.090  0.00  0.00    +0.007 A 
ATOM     28  C   UNL     1       0.932   2.090   1.750  0.00  0.00    +0.000 A 
ENDBRANCH  22  26
ENDBRANCH  21  22
ENDBRANCH  15  21
ENDBRANCH   1  18
BRANCH   9  29
ATOM     29  S   UNL     1      10.333  -2.397   8.567  0.00  0.00    +0.058 S 
ATOM     30  O   UNL     1      10.723  -3.519   9.346  0.00  0.00    -0.153 OA
ATOM     31  O   UNL     1      11.186  -1.280   8.360  0.00  0.00    -0.153 OA
BRANCH  29  32
ATOM     32  N   UNL     1       8.941  -1.810   9.245  0.00  0.00    -0.187 NA
ATOM     33  H   UNL     1       8.855  -0.862   9.434  0.00  0.00    +0.148 HD
BRANCH  32  34
ATOM     34  C   UNL     1       7.838  -2.722   9.560  0.00  0.00    +0.137 C 
BRANCH  34  35
ATOM     35  C   UNL     1       6.850  -2.024  10.496  0.00  0.00    +0.134 C 
ATOM     36  C   UNL     1       5.749  -3.015  10.930  0.00  0.00    +0.035 C 
ATOM     37  C   UNL     1       4.478  -2.123  10.916  0.00  0.00    +0.031 C 
ATOM     38  C   UNL     1       4.796  -1.177   9.731  0.00  0.00    +0.160 C 
ATOM     39  O   UNL     1       6.213  -0.940   9.810  0.00  0.00    -0.375 OA
ENDBRANCH  34  35
ENDBRANCH  32  34
ENDBRANCH  29  32
ENDBRANCH   9  29
TORSDOF 8
