REMARK  Name = ZINC41632948
REMARK  6 active torsions:
REMARK  status: ('A' for Active; 'I' for Inactive)
REMARK    1  A    between atoms: C_4  and  O_7
REMARK    2  A    between atoms: O_7  and  C_8
REMARK    3  A    between atoms: C_8  and  C_9
REMARK    4  A    between atoms: C_15  and  S_17
REMARK    5  A    between atoms: S_17  and  C_18
REMARK    6  A    between atoms: C_18  and  C_19
REMARK                            x       y       z     vdW  Elec       q    Type
REMARK                         _______ _______ _______ _____ _____    ______ ____
ROOT
ATOM      1  C   UNL     1       4.932  -2.615  -0.061  0.00  0.00    +0.086 A 
ATOM      2  C   UNL     1       5.390  -3.342   1.000  0.00  0.00    +0.097 A 
ATOM      3  C   UNL     1       6.700  -3.850   0.961  0.00  0.00    +0.252 A 
ATOM      4  O   UNL     1       7.141  -4.504   1.892  0.00  0.00    -0.268 OA
ATOM      5  N   UNL     1       7.461  -3.602  -0.127  0.00  0.00    -0.302 N 
ATOM      6  H   UNL     1       8.367  -3.944  -0.175  0.00  0.00    +0.171 HD
ATOM      7  C   UNL     1       6.950  -2.871  -1.156  0.00  0.00    +0.170 A 
ATOM      8  N   UNL     1       5.718  -2.402  -1.113  0.00  0.00    -0.225 NA
ENDROOT
BRANCH   1   9
ATOM      9  C   UNL     1       3.531  -2.060  -0.044  0.00  0.00    +0.284 C 
BRANCH   9  10
ATOM     10  O   UNL     1       3.586  -0.632  -0.037  0.00  0.00    -0.486 OA
BRANCH  10  14
ATOM     11  C   UNL     1      -0.017   1.378   0.010  0.00  0.00    +0.000 A 
ATOM     12  C   UNL     1       1.170   2.088   0.002  0.00  0.00    +0.004 A 
ATOM     13  C   UNL     1       2.377   1.417  -0.013  0.00  0.00    +0.045 A 
ATOM     14  C   UNL     1       2.399   0.030  -0.021  0.00  0.00    +0.121 A 
ATOM     15  C   UNL     1       1.207  -0.680  -0.013  0.00  0.00    +0.045 A 
ATOM     16  C   UNL     1       0.002  -0.004   0.002  0.00  0.00    +0.004 A 
ENDBRANCH  10  14
ENDBRANCH   9  10
ENDBRANCH   1   9
BRANCH   7  17
ATOM     17  S   UNL     1       7.950  -2.552  -2.571  0.00  0.00    -0.080 S 
BRANCH  17  18
ATOM     18  C   UNL     1       6.878  -1.567  -3.653  0.00  0.00    +0.151 C 
BRANCH  18  19
ATOM     19  C   UNL     1       7.622  -1.221  -4.917  0.00  0.00    +0.118 A 
ATOM     20  N   UNL     1       8.387  -0.110  -5.092  0.00  0.00    -0.341 N 
ATOM     21  H   UNL     1       8.548   0.586  -4.436  0.00  0.00    +0.167 HD
ATOM     22  C   UNL     1       8.893  -0.158  -6.375  0.00  0.00    +0.066 A 
ATOM     23  C   UNL     1       9.721   0.671  -7.120  0.00  0.00    +0.028 A 
ATOM     24  C   UNL     1      10.047   0.327  -8.414  0.00  0.00    +0.002 A 
ATOM     25  C   UNL     1       9.553  -0.841  -8.977  0.00  0.00    +0.002 A 
ATOM     26  C   UNL     1       8.737  -1.669  -8.260  0.00  0.00    +0.030 A 
ATOM     27  C   UNL     1       8.394  -1.341  -6.946  0.00  0.00    +0.089 A 
ATOM     28  N   UNL     1       7.630  -1.944  -5.999  0.00  0.00    -0.232 NA
ENDBRANCH  18  19
ENDBRANCH  17  18
ENDBRANCH   7  17
TORSDOF 6
