REMARK  Name = ZINC40117791
REMARK  8 active torsions:
REMARK  status: ('A' for Active; 'I' for Inactive)
REMARK    1  A    between atoms: C_1  and  C_2
REMARK    2  A    between atoms: C_7  and  O_8
REMARK    3  A    between atoms: O_8  and  C_9
REMARK    4  A    between atoms: C_9  and  C_11
REMARK    5  A    between atoms: C_9  and  C_12
REMARK    6  A    between atoms: N_14  and  C_15
REMARK    7  A    between atoms: C_19  and  C_21
REMARK    8  A    between atoms: C_21  and  C_28
REMARK                            x       y       z     vdW  Elec       q    Type
REMARK                         _______ _______ _______ _____ _____    ______ ____
ROOT
ATOM      1  C   UNL     1       1.138   0.100   7.020  0.00  0.00    +0.034 A 
ATOM      2  C   UNL     1       0.990   1.480   7.042  0.00  0.00    +0.023 A 
ATOM      3  C   UNL     1       1.455   2.207   8.120  0.00  0.00    +0.002 A 
ATOM      4  C   UNL     1       2.068   1.561   9.178  0.00  0.00    +0.006 A 
ATOM      5  C   UNL     1       2.218   0.186   9.159  0.00  0.00    -0.014 A 
ATOM      6  C   UNL     1       1.749  -0.547   8.087  0.00  0.00    +0.029 A 
ENDROOT
BRANCH   5   7
ATOM      7  C   UNL     1       2.887  -0.513  10.314  0.00  0.00    +0.135 C 
ATOM      8  C   UNL     1       1.901  -1.405  11.042  0.00  0.00    +0.248 C 
ATOM      9  O   UNL     1       1.299  -2.355  10.588  0.00  0.00    -0.273 OA
ATOM     10  N   UNL     1       1.832  -0.923  12.298  0.00  0.00    -0.238 N 
ATOM     11  C   UNL     1       2.629   0.139  12.464  0.00  0.00    +0.307 C 
ATOM     12  O   UNL     1       2.738   0.746  13.511  0.00  0.00    -0.252 OA
ATOM     13  N   UNL     1       3.298   0.459  11.341  0.00  0.00    -0.282 N 
ATOM     14  C   UNL     1       4.091  -1.322   9.826  0.00  0.00    +0.047 C 
ATOM     15  H   UNL     1       1.273  -1.298  12.996  0.00  0.00    +0.159 HD
ATOM     16  H   UNL     1       3.929   1.188  11.230  0.00  0.00    +0.152 HD
ENDBRANCH   5   7
BRANCH   1  19
ATOM     17  C   UNL     1       0.699  -0.107   4.691  0.00  0.00    +0.258 C 
ATOM     18  O   UNL     1       1.219   0.973   4.508  0.00  0.00    -0.271 OA
ATOM     19  N   UNL     1       0.668  -0.639   5.929  0.00  0.00    -0.282 N 
ATOM     20  H   UNL     1       0.320  -1.535   6.063  0.00  0.00    +0.155 HD
BRANCH  17  21
ATOM     21  C   UNL     1       0.086  -0.854   3.534  0.00  0.00    +0.256 C 
ATOM     22  C   UNL     1      -1.426  -0.968   3.745  0.00  0.00    +0.062 C 
BRANCH  21  23
ATOM     23  O   UNL     1       0.345  -0.146   2.320  0.00  0.00    -0.480 OA
BRANCH  23  30
ATOM     24  C   UNL     1       1.080   1.183  -0.061  0.00  0.00    +0.047 C 
ATOM     25  C   UNL     1       0.692  -0.273  -0.030  0.00  0.00    -0.007 A 
ATOM     26  C   UNL     1       0.692  -1.013  -1.196  0.00  0.00    +0.027 A 
ATOM     27  C   UNL     1       0.336  -2.350  -1.169  0.00  0.00    +0.041 A 
ATOM     28  C   UNL     1      -0.021  -2.947   0.027  0.00  0.00    +0.023 A 
ATOM     29  C   UNL     1      -0.023  -2.211   1.196  0.00  0.00    +0.047 A 
ATOM     30  C   UNL     1       0.340  -0.872   1.171  0.00  0.00    +0.125 A 
ATOM     31 CL   UNL     1       0.336  -3.278  -2.636  0.00  0.00    -0.084 Cl
ENDBRANCH  23  30
ENDBRANCH  21  23
ENDBRANCH  17  21
ENDBRANCH   1  19
TORSDOF 5
