REMARK  Name = ZINC57118593
REMARK  8 active torsions:
REMARK  status: ('A' for Active; 'I' for Inactive)
REMARK    1  A    between atoms: C_1  and  C_2
REMARK    2  A    between atoms: C_2  and  C_3
REMARK    3  A    between atoms: C_2  and  O_4
REMARK    4  A    between atoms: O_4  and  C_5
REMARK    5  A    between atoms: C_8  and  N_11
REMARK    6  A    between atoms: N_11  and  S_12
REMARK    7  A    between atoms: S_12  and  C_15
REMARK    8  A    between atoms: C_17  and  C_25
REMARK                            x       y       z     vdW  Elec       q    Type
REMARK                         _______ _______ _______ _____ _____    ______ ____
ROOT
ATOM      1  S   UNL     1       6.690  -2.945  -1.468  0.00  0.00    +0.072 S 
ATOM      2  O   UNL     1       6.138  -2.936  -2.778  0.00  0.00    -0.150 OA
ATOM      3  O   UNL     1       8.091  -2.927  -1.232  0.00  0.00    -0.150 OA
ENDROOT
BRANCH   1   4
ATOM      4  C   UNL     1       6.062  -4.382  -0.666  0.00  0.00    +0.113 A 
ATOM      5  C   UNL     1       6.691  -4.869   0.458  0.00  0.00    +0.047 A 
ATOM      6  C   UNL     1       6.195  -6.011   1.096  0.00  0.00    +0.110 A 
ATOM      7  C   UNL     1       5.057  -6.654   0.585  0.00  0.00    +0.176 A 
ATOM      8  C   UNL     1       4.433  -6.148  -0.549  0.00  0.00    +0.165 A 
ATOM      9  C   UNL     1       4.935  -5.013  -1.167  0.00  0.00    +0.078 A 
ATOM     10  O   UNL     1       3.323  -6.750  -1.059  0.00  0.00    -0.485 OA
ATOM     11  C   UNL     1       3.066  -8.092  -0.631  0.00  0.00    +0.270 C 
ATOM     12  C   UNL     1       3.240  -8.152   0.892  0.00  0.00    +0.270 C 
ATOM     13  O   UNL     1       4.582  -7.764   1.205  0.00  0.00    -0.484 OA
BRANCH   6  14
ATOM     14  C   UNL     1       6.863  -6.537   2.297  0.00  0.00    +0.390 C 
ATOM     15  O   UNL     1       7.856  -5.974   2.740  0.00  0.00    -0.240 OA
ATOM     16  O   UNL     1       6.427  -7.535   2.853  0.00  0.00    -0.240 OA
ENDBRANCH   6  14
ENDBRANCH   1   4
BRANCH   1  17
ATOM     17  N   UNL     1       6.061  -1.631  -0.681  0.00  0.00    -0.216 N 
ATOM     18  H   UNL     1       6.651  -1.005  -0.232  0.00  0.00    +0.174 HD
BRANCH  17  22
ATOM     19  C   UNL     1       1.939  -1.009  -0.627  0.00  0.00    +0.121 A 
ATOM     20  C   UNL     1       2.678  -0.864   0.539  0.00  0.00    +0.047 A 
ATOM     21  C   UNL     1       4.043  -1.070   0.522  0.00  0.00    +0.028 A 
ATOM     22  C   UNL     1       4.677  -1.422  -0.663  0.00  0.00    +0.048 A 
ATOM     23  C   UNL     1       3.937  -1.567  -1.829  0.00  0.00    +0.028 A 
ATOM     24  C   UNL     1       2.571  -1.366  -1.809  0.00  0.00    +0.047 A 
BRANCH  19  25
ATOM     25  O   UNL     1       0.595  -0.806  -0.609  0.00  0.00    -0.489 OA
BRANCH  25  27
ATOM     26  C   UNL     1      -0.442  -2.507  -1.978  0.00  0.00    +0.051 C 
ATOM     27  C   UNL     1      -0.110  -1.020  -1.834  0.00  0.00    +0.167 C 
ATOM     28  C   UNL     1      -1.406  -0.207  -1.825  0.00  0.00    +0.051 C 
ENDBRANCH  25  27
ENDBRANCH  19  25
ENDBRANCH  17  22
ENDBRANCH   1  17
TORSDOF 6
