REMARK  Name = ZINC09731222
REMARK  9 active torsions:
REMARK  status: ('A' for Active; 'I' for Inactive)
REMARK    1  A    between atoms: C_1  and  C_2
REMARK    2  A    between atoms: C_2  and  C_4
REMARK    3  A    between atoms: C_2  and  N_59
REMARK    4  A    between atoms: C_7  and  S_17
REMARK    5  A    between atoms: N_8  and  C_9
REMARK    6  A    between atoms: C_12  and  O_15
REMARK    7  A    between atoms: O_15  and  C_16
REMARK    8  A    between atoms: S_17  and  C_18
REMARK    9  A    between atoms: C_18  and  C_19
REMARK                            x       y       z     vdW  Elec       q    Type
REMARK                         _______ _______ _______ _____ _____    ______ ____
ROOT
ATOM      1  C   UNL     1      -4.311  -4.520  -0.175  0.00  0.00    +0.125 A 
ATOM      2  N   UNL     1      -4.528  -3.235  -0.221  0.00  0.00    -0.135 NA
ATOM      3  N   UNL     1      -3.421  -2.606  -0.401  0.00  0.00    -0.122 NA
ATOM      4  C   UNL     1      -2.429  -3.462  -0.480  0.00  0.00    +0.196 A 
ATOM      5  N   UNL     1      -2.966  -4.712  -0.344  0.00  0.00    -0.275 N 
ENDROOT
BRANCH   5   6
ATOM      6  C   UNL     1      -2.281  -5.937  -0.370  0.00  0.00    +0.050 A 
ATOM      7  C   UNL     1      -2.526  -6.848  -1.388  0.00  0.00    +0.030 A 
ATOM      8  C   UNL     1      -1.848  -8.051  -1.416  0.00  0.00    +0.047 A 
ATOM      9  C   UNL     1      -0.930  -8.353  -0.421  0.00  0.00    +0.120 A 
ATOM     10  C   UNL     1      -0.689  -7.445   0.600  0.00  0.00    +0.047 A 
ATOM     11  C   UNL     1      -1.363  -6.240   0.626  0.00  0.00    +0.030 A 
BRANCH   9  12
ATOM     12  O   UNL     1      -0.267  -9.540  -0.445  0.00  0.00    -0.495 OA
ATOM     13  C   UNL     1      -0.564 -10.427  -1.526  0.00  0.00    +0.277 C 
ENDBRANCH   9  12
ENDBRANCH   5   6
BRANCH   1  15
ATOM     14  C   UNL     1      -5.814  -5.595   1.479  0.00  0.00    -0.005 C 
ATOM     15  C   UNL     1      -5.350  -5.594   0.021  0.00  0.00    -0.002 C 
BRANCH  15  21
ATOM     16  C   UNL     1      -7.519  -6.377  -0.716  0.00  0.00    -0.078 C 
ATOM     17  C   UNL     1      -8.756  -5.997  -1.532  0.00  0.00    -0.019 C 
ATOM     18  C   UNL     1      -8.362  -5.840  -3.003  0.00  0.00    -0.004 C 
ATOM     19  C   UNL     1      -7.263  -4.780  -3.118  0.00  0.00    -0.019 C 
ATOM     20  C   UNL     1      -6.069  -5.195  -2.256  0.00  0.00    -0.078 C 
ATOM     21  N   UNL     1      -6.509  -5.306  -0.849  0.00  0.00    +0.386 N 
ATOM     22  H   UNL     1      -6.929  -4.415  -0.560  0.00  0.00    -0.081 HD
ENDBRANCH  15  21
ENDBRANCH   1  15
BRANCH   4  23
ATOM     23  S   UNL     1      -0.727  -3.073  -0.723  0.00  0.00    -0.078 S 
BRANCH  23  24
ATOM     24  C   UNL     1      -0.827  -1.268  -0.813  0.00  0.00    +0.151 C 
BRANCH  24  25
ATOM     25  C   UNL     1       0.552  -0.699  -1.025  0.00  0.00    +0.121 A 
ATOM     26  N   UNL     1       0.687   0.650  -1.119  0.00  0.00    -0.309 N 
ATOM     27  H   UNL     1      -0.091   1.226  -1.055  0.00  0.00    +0.170 HD
ATOM     28  C   UNL     1       1.918   1.183  -1.310  0.00  0.00    +0.266 A 
ATOM     29  O   UNL     1       2.072   2.389  -1.399  0.00  0.00    -0.267 OA
ATOM     30  C   UNL     1       3.004   0.312  -1.402  0.00  0.00    +0.102 A 
ATOM     31  C   UNL     1       2.838  -1.080  -1.300  0.00  0.00    +0.085 A 
ATOM     32  N   UNL     1       1.550  -1.519  -1.108  0.00  0.00    -0.232 NA
ATOM     33  C   UNL     1       4.012  -1.838  -1.409  0.00  0.00    +0.036 A 
ATOM     34  C   UNL     1       5.200  -1.226  -1.599  0.00  0.00    +0.048 A 
ATOM     35  S   UNL     1       4.751   0.502  -1.639  0.00  0.00    -0.090 S 
ENDBRANCH  24  25
ENDBRANCH  23  24
ENDBRANCH   4  23
TORSDOF 7
