REMARK  Name = ZINC01151149
REMARK  8 active torsions:
REMARK  status: ('A' for Active; 'I' for Inactive)
REMARK    1  A    between atoms: C_1  and  C_2
REMARK    2  A    between atoms: C_2  and  C_4
REMARK    3  A    between atoms: C_2  and  S_24
REMARK    4  A    between atoms: N_6  and  C_7
REMARK    5  A    between atoms: C_10  and  S_13
REMARK    6  A    between atoms: S_13  and  N_16
REMARK    7  A    between atoms: N_16  and  C_17
REMARK    8  A    between atoms: S_24  and  C_25
REMARK                            x       y       z     vdW  Elec       q    Type
REMARK                         _______ _______ _______ _____ _____    ______ ____
ROOT
ATOM      1  C   UNL     1       4.390   4.088   0.123  0.00  0.00    +0.034 A 
ATOM      2  C   UNL     1       3.593   3.758  -0.965  0.00  0.00    +0.025 A 
ATOM      3  C   UNL     1       2.376   3.137  -0.764  0.00  0.00    +0.030 A 
ATOM      4  C   UNL     1       1.950   2.844   0.518  0.00  0.00    +0.109 A 
ATOM      5  C   UNL     1       2.739   3.177   1.604  0.00  0.00    +0.030 A 
ATOM      6  C   UNL     1       3.960   3.794   1.410  0.00  0.00    +0.025 A 
ENDROOT
BRANCH   1   9
ATOM      7  C   UNL     1       5.784   5.576  -1.104  0.00  0.00    +0.230 C 
ATOM      8  O   UNL     1       4.835   5.876  -1.797  0.00  0.00    -0.274 OA
ATOM      9  N   UNL     1       5.624   4.717  -0.077  0.00  0.00    -0.285 N 
ATOM     10  H   UNL     1       6.364   4.535   0.522  0.00  0.00    +0.155 HD
BRANCH   7  12
ATOM     11  C   UNL     1       7.941   5.196  -2.266  0.00  0.00    +0.029 C 
ATOM     12  C   UNL     1       7.142   6.163  -1.390  0.00  0.00    +0.134 C 
BRANCH  12  13
ATOM     13  S   UNL     1       6.947   7.744  -2.257  0.00  0.00    -0.113 S 
BRANCH  13  14
ATOM     14  C   UNL     1       8.580   8.403  -2.315  0.00  0.00    +0.009 A 
ATOM     15  C   UNL     1       9.076   9.129  -1.239  0.00  0.00    +0.016 A 
ATOM     16  C   UNL     1      10.358   9.640  -1.285  0.00  0.00    +0.021 A 
ATOM     17  C   UNL     1      11.145   9.439  -2.406  0.00  0.00    +0.041 A 
ATOM     18  C   UNL     1      10.651   8.722  -3.481  0.00  0.00    +0.021 A 
ATOM     19  C   UNL     1       9.372   8.203  -3.439  0.00  0.00    +0.016 A 
ATOM     20 CL   UNL     1      12.754  10.088  -2.462  0.00  0.00    -0.084 Cl
ENDBRANCH  13  14
ENDBRANCH  12  13
ENDBRANCH   7  12
ENDBRANCH   1   9
BRANCH   4  21
ATOM     21  S   UNL     1       0.397   2.052   0.770  0.00  0.00    +0.072 S 
ATOM     22  O   UNL     1      -0.359   2.253  -0.416  0.00  0.00    -0.150 OA
ATOM     23  O   UNL     1      -0.067   2.465   2.049  0.00  0.00    -0.150 OA
BRANCH  21  24
ATOM     24  N   UNL     1       0.688   0.425   0.876  0.00  0.00    -0.216 N 
ATOM     25  H   UNL     1       0.324  -0.177   0.208  0.00  0.00    +0.174 HD
BRANCH  24  26
ATOM     26  C   UNL     1       1.459  -0.080   1.926  0.00  0.00    +0.048 A 
ATOM     27  C   UNL     1       2.758  -0.511   1.691  0.00  0.00    +0.026 A 
ATOM     28  C   UNL     1       3.520  -1.004   2.732  0.00  0.00    +0.022 A 
ATOM     29  C   UNL     1       2.985  -1.081   4.006  0.00  0.00    +0.041 A 
ATOM     30  C   UNL     1       1.689  -0.657   4.242  0.00  0.00    +0.022 A 
ATOM     31  C   UNL     1       0.925  -0.158   3.206  0.00  0.00    +0.026 A 
ATOM     32 CL   UNL     1       3.943  -1.709   5.311  0.00  0.00    -0.084 Cl
ENDBRANCH  24  26
ENDBRANCH  21  24
ENDBRANCH   4  21
TORSDOF 7
