REMARK  Name = ZINC20568200
REMARK  14 active torsions:
REMARK  status: ('A' for Active; 'I' for Inactive)
REMARK    1  A    between atoms: C_1  and  C_2
REMARK    2  A    between atoms: C_2  and  C_35
REMARK    3  A    between atoms: C_4  and  N_10
REMARK    4  A    between atoms: C_6  and  C_8
REMARK    5  A    between atoms: C_6  and  C_9
REMARK    6  A    between atoms: N_10  and  C_11
REMARK    7  A    between atoms: N_10  and  C_21
REMARK    8  A    between atoms: C_11  and  C_12
REMARK    9  A    between atoms: C_15  and  N_18
REMARK   10  A    between atoms: N_18  and  C_19
REMARK   11  A    between atoms: N_18  and  C_20
REMARK   12  A    between atoms: C_21  and  N_23
REMARK   13  A    between atoms: N_23  and  C_24
REMARK   14  A    between atoms: C_29  and  C_30
REMARK                            x       y       z     vdW  Elec       q    Type
REMARK                         _______ _______ _______ _____ _____    ______ ____
ROOT
ATOM      1  N   UNL     1       1.355   3.147  -3.349  0.00  0.00    -0.305 N 
ENDROOT
BRANCH   1   5
ATOM      2  C   UNL     1       3.358   2.435   1.078  0.00  0.00    -0.010 C 
ATOM      3  C   UNL     1       2.169   2.019   0.183  0.00  0.00    -0.072 C 
ATOM      4  C   UNL     1       2.388   2.646  -1.192  0.00  0.00    +0.009 C 
ATOM      5  C   UNL     1       1.125   2.517  -2.043  0.00  0.00    +0.073 C 
ATOM      6  C   UNL     1      -0.017   3.241  -1.329  0.00  0.00    +0.009 C 
ATOM      7  C   UNL     1      -0.265   2.619   0.043  0.00  0.00    -0.072 C 
ATOM      8  N   UNL     1       0.947   2.463   0.819  0.00  0.00    +0.386 N 
ATOM      9  C   UNL     1      -0.992   1.279  -0.126  0.00  0.00    -0.010 C 
ATOM     10  C   UNL     1      -1.216   3.561   0.816  0.00  0.00    -0.010 C 
ATOM     11  C   UNL     1       2.207   0.491   0.061  0.00  0.00    -0.010 C 
ATOM     12  H   UNL     1       0.664   1.750   1.608  0.00  0.00    -0.084 HD
ATOM     13  H   UNL     1       1.105   3.457   1.263  0.00  0.00    -0.084 HD
ENDBRANCH   1   5
BRANCH   1  14
ATOM     14  C   UNL     1       1.340   2.399  -4.470  0.00  0.00    +0.138 C 
ATOM     15  S   UNL     1       1.712   3.113  -5.981  0.00  0.00    -0.018 S 
BRANCH  14  16
ATOM     16  N   UNL     1       1.031   1.089  -4.401  0.00  0.00    -0.296 N 
ATOM     17  H   UNL     1       0.019   0.748  -4.665  0.00  0.00    +0.154 HD
BRANCH  16  18
ATOM     18  C   UNL     1       1.998   0.163  -3.996  0.00  0.00    +0.046 A 
ATOM     19  C   UNL     1       3.264   0.597  -3.623  0.00  0.00    +0.043 A 
ATOM     20  C   UNL     1       4.217  -0.321  -3.222  0.00  0.00    +0.043 A 
ATOM     21  C   UNL     1       3.910  -1.670  -3.192  0.00  0.00    +0.020 A 
ATOM     22  C   UNL     1       2.651  -2.104  -3.563  0.00  0.00    +0.015 A 
ATOM     23  C   UNL     1       1.693  -1.191  -3.959  0.00  0.00    +0.076 A 
ATOM     24 CL   UNL     1       5.799   0.220  -2.755  0.00  0.00    -0.083 Cl
BRANCH  23  25
ATOM     25  C   UNL     1       0.319  -1.665  -4.357  0.00  0.00    +0.419 C 
ATOM     26  F   UNL     1       0.253  -3.057  -4.239  0.00  0.00    -0.166 F 
ATOM     27  F   UNL     1      -0.637  -1.081  -3.519  0.00  0.00    -0.166 F 
ATOM     28  F   UNL     1       0.064  -1.297  -5.682  0.00  0.00    -0.166 F 
ENDBRANCH  23  25
ENDBRANCH  16  18
ENDBRANCH  14  16
ENDBRANCH   1  14
BRANCH   1  29
ATOM     29  C   UNL     1       1.602   4.589  -3.433  0.00  0.00    +0.142 C 
BRANCH  29  30
ATOM     30  C   UNL     1       3.082   4.852  -3.329  0.00  0.00    -0.030 A 
ATOM     31  C   UNL     1       3.634   5.219  -2.116  0.00  0.00    +0.007 A 
ATOM     32  C   UNL     1       4.991   5.456  -2.016  0.00  0.00    +0.023 A 
ATOM     33  C   UNL     1       5.800   5.335  -3.139  0.00  0.00    +0.029 A 
ATOM     34  C   UNL     1       5.242   4.972  -4.357  0.00  0.00    +0.023 A 
ATOM     35  C   UNL     1       3.885   4.731  -4.449  0.00  0.00    +0.007 A 
BRANCH  33  36
ATOM     36  N   UNL     1       7.172   5.580  -3.042  0.00  0.00    -0.336 N 
ATOM     37  C   UNL     1       8.004   5.572  -4.248  0.00  0.00    +0.129 C 
ATOM     38  C   UNL     1       7.779   5.843  -1.735  0.00  0.00    +0.129 C 
ENDBRANCH  33  36
ENDBRANCH  29  30
ENDBRANCH   1  29
TORSDOF 8
