REMARK  Name = ZINC09467962
REMARK  11 active torsions:
REMARK  status: ('A' for Active; 'I' for Inactive)
REMARK    1  A    between atoms: C_1  and  C_2
REMARK    2  A    between atoms: C_6  and  N_9
REMARK    3  A    between atoms: C_7  and  C_8
REMARK    4  A    between atoms: N_9  and  S_10
REMARK    5  A    between atoms: S_10  and  C_13
REMARK    6  A    between atoms: C_16  and  C_19
REMARK    7  A    between atoms: N_21  and  C_22
REMARK    8  A    between atoms: C_22  and  C_23
REMARK    9  A    between atoms: C_23  and  C_25
REMARK   10  A    between atoms: C_23  and  N_66
REMARK   11  A    between atoms: C_28  and  C_30
REMARK                            x       y       z     vdW  Elec       q    Type
REMARK                         _______ _______ _______ _____ _____    ______ ____
ROOT
ATOM      1  C   UNL     1      -0.044   1.438  -0.165  0.00  0.00    +0.109 A 
ATOM      2  C   UNL     1       1.107   2.205  -0.190  0.00  0.00    +0.029 A 
ATOM      3  C   UNL     1       2.345   1.598  -0.156  0.00  0.00    +0.015 A 
ATOM      4  C   UNL     1       2.436   0.207  -0.097  0.00  0.00    +0.037 A 
ATOM      5  C   UNL     1       1.271  -0.562  -0.072  0.00  0.00    +0.015 A 
ATOM      6  C   UNL     1       0.038   0.058  -0.106  0.00  0.00    +0.029 A 
ENDROOT
BRANCH   4   7
ATOM      7  C   UNL     1       3.759  -0.450  -0.060  0.00  0.00    +0.244 C 
ATOM      8  O   UNL     1       3.835  -1.663  -0.008  0.00  0.00    -0.270 OA
ATOM      9  N   UNL     1       4.882   0.294  -0.084  0.00  0.00    -0.312 N 
ATOM     10  H   UNL     1       4.822   1.262  -0.126  0.00  0.00    +0.149 HD
BRANCH   9  11
ATOM     11  C   UNL     1       6.194  -0.357  -0.048  0.00  0.00    +0.097 C 
BRANCH  11  12
ATOM     12  C   UNL     1       7.293   0.707  -0.086  0.00  0.00    +0.017 C 
BRANCH  12  18
ATOM     13  C   UNL     1       7.056   0.775  -2.495  0.00  0.00    -0.049 C 
ATOM     14  C   UNL     1       6.794   1.703  -3.684  0.00  0.00    +0.141 C 
ATOM     15  O   UNL     1       7.805   2.714  -3.725  0.00  0.00    -0.383 OA
ATOM     16  C   UNL     1       7.875   3.507  -2.537  0.00  0.00    +0.141 C 
ATOM     17  C   UNL     1       8.148   2.597  -1.337  0.00  0.00    -0.049 C 
ATOM     18  N   UNL     1       7.076   1.583  -1.258  0.00  0.00    +0.390 N 
ATOM     19  H   UNL     1       6.172   2.059  -1.155  0.00  0.00    -0.081 HD
ENDBRANCH  12  18
BRANCH  12  20
ATOM     20  C   UNL     1       8.639   0.036  -0.172  0.00  0.00    +0.093 A 
ATOM     21  C   UNL     1       9.537  -0.058   0.825  0.00  0.00    +0.043 A 
ATOM     22  C   UNL     1      10.649  -0.764   0.311  0.00  0.00    +0.044 A 
ATOM     23  C   UNL     1      10.368  -1.052  -0.973  0.00  0.00    +0.102 A 
ATOM     24  O   UNL     1       9.149  -0.565  -1.260  0.00  0.00    -0.466 OA
ATOM     25  C   UNL     1      11.267  -1.794  -1.927  0.00  0.00    +0.086 C 
ENDBRANCH  12  20
ENDBRANCH  11  12
ENDBRANCH   9  11
ENDBRANCH   4   7
BRANCH   1  26
ATOM     26  S   UNL     1      -1.622   2.221  -0.215  0.00  0.00    +0.072 S 
ATOM     27  O   UNL     1      -1.425   3.492  -0.818  0.00  0.00    -0.150 OA
ATOM     28  O   UNL     1      -2.534   1.264  -0.737  0.00  0.00    -0.150 OA
BRANCH  26  29
ATOM     29  N   UNL     1      -2.078   2.505   1.351  0.00  0.00    -0.216 N 
ATOM     30  H   UNL     1      -2.893   2.109   1.698  0.00  0.00    +0.174 HD
BRANCH  29  36
ATOM     31  C   UNL     1      -0.247   3.505   5.801  0.00  0.00    +0.044 C 
ATOM     32  C   UNL     1      -0.384   3.822   4.334  0.00  0.00    -0.046 A 
ATOM     33  C   UNL     1       0.273   4.916   3.800  0.00  0.00    +0.004 A 
ATOM     34  C   UNL     1       0.151   5.210   2.454  0.00  0.00    +0.002 A 
ATOM     35  C   UNL     1      -0.628   4.412   1.639  0.00  0.00    +0.025 A 
ATOM     36  C   UNL     1      -1.289   3.313   2.172  0.00  0.00    +0.051 A 
ATOM     37  C   UNL     1      -1.169   3.023   3.526  0.00  0.00    -0.025 A 
ATOM     38  C   UNL     1      -1.889   1.836   4.110  0.00  0.00    +0.046 C 
ENDBRANCH  29  36
ENDBRANCH  26  29
ENDBRANCH   1  26
TORSDOF 8
