REMARK  Name = ZINC59832364
REMARK  10 active torsions:
REMARK  status: ('A' for Active; 'I' for Inactive)
REMARK    1  A    between atoms: C_2  and  C_3
REMARK    2  A    between atoms: C_3  and  N_4
REMARK    3  A    between atoms: C_6  and  C_9
REMARK    4  A    between atoms: N_10  and  N_11
REMARK    5  A    between atoms: C_14  and  S_17
REMARK    6  A    between atoms: S_17  and  C_18
REMARK    7  A    between atoms: C_18  and  C_19
REMARK    8  A    between atoms: N_21  and  C_22
REMARK    9  A    between atoms: C_25  and  S_28
REMARK   10  A    between atoms: S_28  and  N_31
REMARK                            x       y       z     vdW  Elec       q    Type
REMARK                         _______ _______ _______ _____ _____    ______ ____
ROOT
ATOM      1  S   UNL     1       1.313  -6.196   9.406  0.00  0.00    -0.075 S 
ENDROOT
BRANCH   1   5
ATOM      2  N   UNL     1       1.887  -6.603   4.312  0.00  0.00    -0.205 N 
ATOM      3  C   UNL     1       1.819  -6.969   5.644  0.00  0.00    +0.232 A 
ATOM      4  N   UNL     1       1.578  -6.164   6.657  0.00  0.00    -0.186 NA
ATOM      5  C   UNL     1       1.588  -6.861   7.798  0.00  0.00    +0.211 A 
ATOM      6  N   UNL     1       1.835  -8.120   7.526  0.00  0.00    -0.144 NA
ATOM      7  N   UNL     1       1.984  -8.217   6.133  0.00  0.00    -0.245 N 
ATOM      8  H   UNL     1       2.066  -7.272   3.634  0.00  0.00    +0.177 HD
ATOM      9  H   UNL     1       2.170  -9.021   5.623  0.00  0.00    +0.192 HD
BRANCH   2  11
ATOM     10  C   UNL     1       1.758  -4.921   2.694  0.00  0.00    +0.141 C 
ATOM     11  N   UNL     1       1.695  -5.265   3.943  0.00  0.00    -0.187 NA
BRANCH  10  14
ATOM     12  N   UNL     1       1.361  -1.678   1.110  0.00  0.00    -0.267 N 
ATOM     13  C   UNL     1       1.595  -3.003   1.025  0.00  0.00    +0.118 A 
ATOM     14  C   UNL     1       1.556  -3.511   2.305  0.00  0.00    +0.032 A 
ATOM     15  C   UNL     1       1.288  -2.433   3.176  0.00  0.00    +0.143 A 
ATOM     16  N   UNL     1       1.179  -1.348   2.458  0.00  0.00    -0.179 NA
BRANCH  12  17
ATOM     17  C   UNL     1       1.312  -0.742  -0.016  0.00  0.00    +0.170 C 
BRANCH  17  19
ATOM     18  C   UNL     1      -0.008   1.312   0.013  0.00  0.00    +0.006 C 
ATOM     19  C   UNL     1       0.002   0.002   0.006  0.00  0.00    -0.012 C 
ENDBRANCH  17  19
ENDBRANCH  12  17
ENDBRANCH  10  14
ENDBRANCH   2  11
ENDBRANCH   1   5
BRANCH   1  20
ATOM     20  C   UNL     1       1.456  -7.632  10.505  0.00  0.00    +0.173 C 
BRANCH  20  21
ATOM     21  C   UNL     1       1.240  -7.197  11.932  0.00  0.00    +0.227 C 
ATOM     22  O   UNL     1       1.011  -6.033  12.182  0.00  0.00    -0.275 OA
ATOM     23  N   UNL     1       1.300  -8.102  12.929  0.00  0.00    -0.285 N 
ATOM     24  H   UNL     1       1.415  -9.043  12.723  0.00  0.00    +0.155 HD
BRANCH  23  25
ATOM     25  C   UNL     1       1.195  -7.684  14.260  0.00  0.00    +0.034 A 
ATOM     26  C   UNL     1       1.926  -8.326  15.251  0.00  0.00    +0.025 A 
ATOM     27  C   UNL     1       1.821  -7.911  16.564  0.00  0.00    +0.030 A 
ATOM     28  C   UNL     1       0.989  -6.857  16.892  0.00  0.00    +0.106 A 
ATOM     29  C   UNL     1       0.259  -6.216  15.909  0.00  0.00    +0.030 A 
ATOM     30  C   UNL     1       0.364  -6.622  14.593  0.00  0.00    +0.025 A 
BRANCH  28  31
ATOM     31  S   UNL     1       0.857  -6.331  18.569  0.00  0.00    +0.061 S 
ATOM     32  O   UNL     1      -0.401  -5.681  18.693  0.00  0.00    -0.153 OA
ATOM     33  O   UNL     1       1.222  -7.444  19.374  0.00  0.00    -0.153 OA
BRANCH  31  34
ATOM     34  N   UNL     1       2.014  -5.172  18.810  0.00  0.00    -0.177 NA
ATOM     35  C   UNL     1       3.394  -5.418  19.256  0.00  0.00    +0.109 C 
ATOM     36  C   UNL     1       4.092  -4.046  19.364  0.00  0.00    +0.018 C 
ATOM     37  C   UNL     1       2.903  -3.062  19.519  0.00  0.00    +0.018 C 
ATOM     38  C   UNL     1       1.835  -3.722  18.608  0.00  0.00    +0.109 C 
ENDBRANCH  31  34
ENDBRANCH  28  31
ENDBRANCH  23  25
ENDBRANCH  20  21
ENDBRANCH   1  20
TORSDOF 10
