REMARK  Name = ZINC35327146
REMARK  9 active torsions:
REMARK  status: ('A' for Active; 'I' for Inactive)
REMARK    1  A    between atoms: C_1  and  C_2
REMARK    2  A    between atoms: C_5  and  S_8
REMARK    3  A    between atoms: S_8  and  N_11
REMARK    4  A    between atoms: N_11  and  N_12
REMARK    5  A    between atoms: C_15  and  C_36
REMARK    6  A    between atoms: C_15  and  O_37
REMARK    7  A    between atoms: C_17  and  C_30
REMARK    8  A    between atoms: C_19  and  C_21
REMARK    9  A    between atoms: N_23  and  C_24
REMARK                            x       y       z     vdW  Elec       q    Type
REMARK                         _______ _______ _______ _____ _____    ______ ____
ROOT
ATOM      1  N   UNL     1       2.486  -4.630   1.026  0.00  0.00    -0.174 NA
ATOM      2  C   UNL     1       3.687  -5.071   1.060  0.00  0.00    +0.053 C 
ATOM      3  C   UNL     1       4.239  -5.909  -0.072  0.00  0.00    +0.087 C 
ATOM      4  C   UNL     1       4.851  -7.184   0.518  0.00  0.00    +0.069 C 
ATOM      5  C   UNL     1       5.882  -6.806   1.583  0.00  0.00    +0.044 C 
ATOM      6  C   UNL     1       5.191  -6.084   2.741  0.00  0.00    +0.039 C 
ATOM      7  C   UNL     1       4.593  -4.763   2.231  0.00  0.00    +0.129 C 
ATOM      8  C   UNL     1       5.535  -7.983  -0.593  0.00  0.00    +0.041 C 
ENDROOT
BRANCH   6   9
ATOM      9  C   UNL     1       6.197  -5.794   3.825  0.00  0.00    -0.043 A 
ATOM     10  C   UNL     1       7.297  -5.003   3.553  0.00  0.00    +0.004 A 
ATOM     11  C   UNL     1       8.220  -4.737   4.547  0.00  0.00    +0.000 A 
ATOM     12  C   UNL     1       8.042  -5.262   5.814  0.00  0.00    +0.000 A 
ATOM     13  C   UNL     1       6.941  -6.053   6.086  0.00  0.00    +0.000 A 
ATOM     14  C   UNL     1       6.016  -6.315   5.092  0.00  0.00    +0.004 A 
ENDBRANCH   6   9
BRANCH   7  15
ATOM     15  C   UNL     1       3.796  -4.109   3.330  0.00  0.00    +0.226 C 
ATOM     16  O   UNL     1       3.727  -4.631   4.423  0.00  0.00    -0.275 OA
ATOM     17  N   UNL     1       3.158  -2.945   3.099  0.00  0.00    -0.285 N 
ATOM     18  H   UNL     1       3.158  -2.561   2.208  0.00  0.00    +0.155 HD
BRANCH  17  19
ATOM     19  C   UNL     1       2.498  -2.289   4.144  0.00  0.00    +0.033 A 
ATOM     20  C   UNL     1       2.474  -0.901   4.190  0.00  0.00    +0.023 A 
ATOM     21  C   UNL     1       1.822  -0.257   5.223  0.00  0.00    +0.002 A 
ATOM     22  C   UNL     1       1.192  -0.992   6.210  0.00  0.00    +0.000 A 
ATOM     23  C   UNL     1       1.213  -2.374   6.167  0.00  0.00    +0.002 A 
ATOM     24  C   UNL     1       1.859  -3.024   5.133  0.00  0.00    +0.023 A 
ENDBRANCH  17  19
ENDBRANCH   7  15
BRANCH   1  25
ATOM     25  N   UNL     1       1.629  -5.013  -0.015  0.00  0.00    -0.137 N 
ATOM     26  H   UNL     1       1.967  -5.551  -0.748  0.00  0.00    +0.197 HD
BRANCH  25  27
ATOM     27  S   UNL     1       0.041  -4.545   0.006  0.00  0.00    +0.086 S 
ATOM     28  O   UNL     1      -0.488  -4.961   1.258  0.00  0.00    -0.149 OA
ATOM     29  O   UNL     1      -0.520  -4.957  -1.233  0.00  0.00    -0.149 OA
BRANCH  27  34
ATOM     30  C   UNL     1      -0.047   1.488   0.019  0.00  0.00    +0.044 C 
ATOM     31  C   UNL     1      -0.025  -0.019   0.016  0.00  0.00    -0.050 A 
ATOM     32  C   UNL     1      -0.029  -0.708  -1.183  0.00  0.00    +0.005 A 
ATOM     33  C   UNL     1      -0.009  -2.090  -1.186  0.00  0.00    +0.029 A 
ATOM     34  C   UNL     1       0.016  -2.783   0.010  0.00  0.00    +0.110 A 
ATOM     35  C   UNL     1       0.022  -2.095   1.208  0.00  0.00    +0.029 A 
ATOM     36  C   UNL     1       0.006  -0.712   1.211  0.00  0.00    +0.005 A 
ENDBRANCH  27  34
ENDBRANCH  25  27
ENDBRANCH   1  25
BRANCH   4  37
ATOM     37  O   UNL     1       3.821  -7.976   1.111  0.00  0.00    -0.388 OA
ATOM     38  H   UNL     1       3.131  -8.251   0.492  0.00  0.00    +0.210 HD
ENDBRANCH   4  37
TORSDOF 7
