REMARK  Name = ZINC39631072
REMARK  10 active torsions:
REMARK  status: ('A' for Active; 'I' for Inactive)
REMARK    1  A    between atoms: C_1  and  C_2
REMARK    2  A    between atoms: C_2  and  C_3
REMARK    3  A    between atoms: C_2  and  C_4
REMARK    4  A    between atoms: C_2  and  C_31
REMARK    5  A    between atoms: C_4  and  N_5
REMARK    6  A    between atoms: C_6  and  C_8
REMARK    7  A    between atoms: C_19  and  C_21
REMARK    8  A    between atoms: C_31  and  N_32
REMARK    9  A    between atoms: N_32  and  C_33
REMARK   10  A    between atoms: N_32  and  C_34
REMARK                            x       y       z     vdW  Elec       q    Type
REMARK                         _______ _______ _______ _____ _____    ______ ____
ROOT
ATOM      1  C   UNL     1      -2.699   0.381   3.500  0.00  0.00    +0.100 C 
ATOM      2  C   UNL     1      -2.508   1.895   3.748  0.00  0.00    +0.121 C 
ATOM      3  N   UNL     1      -3.846   2.485   3.506  0.00  0.00    -0.295 N 
ATOM      4  C   UNL     1      -4.793   1.505   4.091  0.00  0.00    +0.115 C 
ATOM      5  C   UNL     1      -4.198   0.129   3.730  0.00  0.00    -0.004 C 
ATOM      6  C   UNL     1      -4.399  -0.852   4.881  0.00  0.00    -0.010 C 
ATOM      7  C   UNL     1      -5.895  -1.132   5.052  0.00  0.00    -0.082 C 
ATOM      8  N   UNL     1      -6.435  -1.691   3.807  0.00  0.00    +0.379 N 
ATOM      9  C   UNL     1      -6.322  -0.705   2.725  0.00  0.00    -0.082 C 
ATOM     10  C   UNL     1      -4.845  -0.407   2.456  0.00  0.00    -0.010 C 
ATOM     11  C   UNL     1      -4.136   3.649   2.893  0.00  0.00    +0.265 C 
ATOM     12  O   UNL     1      -3.240   4.385   2.530  0.00  0.00    -0.268 OA
ATOM     13  H   UNL     1      -5.917  -2.520   3.560  0.00  0.00    -0.086 HD
ATOM     14  H   UNL     1      -7.406  -1.931   3.941  0.00  0.00    -0.086 HD
ENDROOT
BRANCH  11  15
ATOM     15  C   UNL     1      -5.550   4.033   2.661  0.00  0.00    +0.126 A 
ATOM     16  C   UNL     1      -5.833   5.180   1.905  0.00  0.00    +0.033 A 
ATOM     17  C   UNL     1      -7.130   5.544   1.684  0.00  0.00    +0.012 A 
ATOM     18  C   UNL     1      -8.149   4.742   2.232  0.00  0.00    +0.000 A 
ATOM     19  C   UNL     1      -9.505   5.057   2.043  0.00  0.00    +0.010 A 
ATOM     20  C   UNL     1     -10.463   4.258   2.588  0.00  0.00    +0.001 A 
ATOM     21  C   UNL     1     -10.119   3.130   3.331  0.00  0.00    +0.002 A 
ATOM     22  C   UNL     1      -8.817   2.794   3.534  0.00  0.00    +0.028 A 
ATOM     23  C   UNL     1      -7.795   3.594   2.987  0.00  0.00    +0.072 A 
ATOM     24  N   UNL     1      -6.511   3.285   3.166  0.00  0.00    -0.242 NA
ENDBRANCH  11  15
BRANCH   1  26
ATOM     25  N   UNL     1      -1.997  -1.241   1.770  0.00  0.00    -0.315 N 
ATOM     26  C   UNL     1      -2.318   0.029   2.085  0.00  0.00    +0.218 C 
ATOM     27  O   UNL     1      -2.300   0.889   1.230  0.00  0.00    -0.275 OA
ATOM     28  H   UNL     1      -2.011  -1.929   2.454  0.00  0.00    +0.149 HD
BRANCH  25  29
ATOM     29  C   UNL     1      -1.627  -1.583   0.395  0.00  0.00    +0.108 C 
BRANCH  29  31
ATOM     30  C   UNL     1      -0.150  -3.410   1.246  0.00  0.00    +0.010 C 
ATOM     31  C   UNL     1      -1.312  -3.078   0.308  0.00  0.00    -0.034 C 
ATOM     32  C   UNL     1      -2.546  -3.884   0.720  0.00  0.00    +0.010 C 
BRANCH  31  33
ATOM     33  C   UNL     1      -0.925  -3.436  -1.129  0.00  0.00    -0.072 C 
BRANCH  33  34
ATOM     34  N   UNL     1      -0.745  -4.889  -1.240  0.00  0.00    +0.376 N 
ATOM     35  C   UNL     1      -2.042  -5.524  -1.509  0.00  0.00    -0.097 C 
ATOM     36  C   UNL     1       0.182  -5.185  -2.340  0.00  0.00    -0.097 C 
ATOM     37  H   UNL     1      -0.368  -5.249  -0.376  0.00  0.00    -0.083 HD
ENDBRANCH  33  34
ENDBRANCH  31  33
ENDBRANCH  29  31
ENDBRANCH  25  29
ENDBRANCH   1  26
TORSDOF 6
