REMARK  Name = ZINC20366772
REMARK  9 active torsions:
REMARK  status: ('A' for Active; 'I' for Inactive)
REMARK    1  A    between atoms: C_1  and  C_2
REMARK    2  A    between atoms: C_3  and  C_31
REMARK    3  A    between atoms: C_4  and  C_22
REMARK    4  A    between atoms: C_9  and  S_10
REMARK    5  A    between atoms: S_10  and  C_11
REMARK    6  A    between atoms: N_15  and  C_16
REMARK    7  A    between atoms: C_26  and  N_28
REMARK    8  A    between atoms: C_31  and  O_33
REMARK    9  A    between atoms: O_33  and  C_34
REMARK                            x       y       z     vdW  Elec       q    Type
REMARK                         _______ _______ _______ _____ _____    ______ ____
ROOT
ATOM      1  C   UNL     1      -6.521   6.440   2.737  0.00  0.00    +0.061 C 
ATOM      2  C   UNL     1      -6.052   5.994   1.377  0.00  0.00    +0.015 C 
ATOM      3  C   UNL     1      -6.905   6.016   0.334  0.00  0.00    +0.061 C 
ATOM      4  C   UNL     1      -6.471   5.589  -1.039  0.00  0.00    +0.063 C 
ATOM      5  C   UNL     1      -5.188   4.810  -0.977  0.00  0.00    +0.064 C 
ATOM      6  C   UNL     1      -4.417   4.829   0.088  0.00  0.00    +0.015 C 
ATOM      7  N   UNL     1      -4.767   5.566   1.210  0.00  0.00    -0.320 N 
ATOM      8  C   UNL     1      -3.138   4.032   0.092  0.00  0.00    +0.067 C 
ATOM      9  H   UNL     1      -4.006   5.806   1.967  0.00  0.00    +0.152 HD
ENDROOT
BRANCH   4  10
ATOM     10  C   UNL     1      -6.268   6.811  -1.897  0.00  0.00    -0.037 A 
ATOM     11  C   UNL     1      -5.318   7.752  -1.547  0.00  0.00    +0.004 A 
ATOM     12  C   UNL     1      -5.132   8.872  -2.334  0.00  0.00    +0.003 A 
ATOM     13  C   UNL     1      -5.895   9.052  -3.473  0.00  0.00    +0.033 A 
ATOM     14  C   UNL     1      -6.845   8.110  -3.824  0.00  0.00    +0.126 A 
ATOM     15  C   UNL     1      -7.028   6.987  -3.038  0.00  0.00    +0.037 A 
BRANCH  14  16
ATOM     16  N   UNL     1      -7.662   8.302  -5.043  0.00  0.00    +0.056 N 
ATOM     17  O   UNL     1      -7.497   9.289  -5.737  0.00  0.00    -0.126 OA
ATOM     18  O   UNL     1      -8.498   7.473  -5.352  0.00  0.00    -0.126 OA
ENDBRANCH  14  16
ENDBRANCH   4  10
BRANCH   3  19
ATOM     19  C   UNL     1      -8.233   6.450   0.537  0.00  0.00    +0.337 C 
ATOM     20  O   UNL     1      -8.633   6.682   1.663  0.00  0.00    -0.245 OA
BRANCH  19  21
ATOM     21  O   UNL     1      -9.060   6.607  -0.519  0.00  0.00    -0.465 OA
ATOM     22  C   UNL     1     -10.390   7.049  -0.241  0.00  0.00    +0.280 C 
ENDBRANCH  19  21
ENDBRANCH   3  19
BRANCH   8  23
ATOM     23  S   UNL     1      -1.730   5.152  -0.106  0.00  0.00    -0.058 S 
BRANCH  23  24
ATOM     24  C   UNL     1      -0.407   3.989  -0.068  0.00  0.00    +0.178 A 
ATOM     25  N   UNL     1      -0.530   2.688   0.066  0.00  0.00    -0.230 NA
ATOM     26  C   UNL     1       0.688   2.122   0.056  0.00  0.00    +0.131 A 
ATOM     27  C   UNL     1       1.606   3.092  -0.097  0.00  0.00    +0.113 A 
ATOM     28  N   UNL     1       0.920   4.285  -0.177  0.00  0.00    -0.294 N 
BRANCH  28  29
ATOM     29  C   UNL     1       1.480   5.560  -0.339  0.00  0.00    +0.048 A 
ATOM     30  C   UNL     1       1.000   6.410  -1.327  0.00  0.00    +0.026 A 
ATOM     31  C   UNL     1       1.550   7.668  -1.481  0.00  0.00    +0.002 A 
ATOM     32  C   UNL     1       2.585   8.076  -0.660  0.00  0.00    +0.000 A 
ATOM     33  C   UNL     1       3.068   7.230   0.321  0.00  0.00    +0.002 A 
ATOM     34  C   UNL     1       2.519   5.973   0.484  0.00  0.00    +0.026 A 
ENDBRANCH  28  29
ENDBRANCH  23  24
ENDBRANCH   8  23
TORSDOF 7
