REMARK  Name = ZINC35926871
REMARK  5 active torsions:
REMARK  status: ('A' for Active; 'I' for Inactive)
REMARK    1  A    between atoms: C_6  and  C_7
REMARK    2  A    between atoms: C_7  and  N_8
REMARK    3  A    between atoms: C_21  and  C_23
REMARK    4  A    between atoms: C_23  and  N_24
REMARK    5  A    between atoms: N_27  and  C_30
REMARK                            x       y       z     vdW  Elec       q    Type
REMARK                         _______ _______ _______ _____ _____    ______ ____
ROOT
ATOM      1  N   UNL     1      -3.651  -0.878  -5.402  0.00  0.00    +0.383 N 
ATOM      2  C   UNL     1      -2.250  -1.101  -5.749  0.00  0.00    -0.077 C 
ATOM      3  C   UNL     1      -1.379  -0.742  -4.565  0.00  0.00    +0.000 C 
ATOM      4  C   UNL     1      -1.109  -2.003  -3.726  0.00  0.00    +0.106 C 
ATOM      5  N   UNL     1      -2.318  -2.846  -3.630  0.00  0.00    -0.303 N 
ATOM      6  C   UNL     1      -3.638  -2.287  -3.423  0.00  0.00    +0.089 C 
ATOM      7  C   UNL     1      -4.295  -1.976  -4.789  0.00  0.00    -0.059 C 
ATOM      8  C   UNL     1      -2.186  -4.204  -3.740  0.00  0.00    +0.198 A 
ATOM      9  N   UNL     1      -3.301  -4.984  -3.772  0.00  0.00    -0.295 N 
ATOM     10  H   UNL     1      -4.180  -4.578  -3.718  0.00  0.00    +0.172 HD
ATOM     11  C   UNL     1      -3.179  -6.324  -3.881  0.00  0.00    +0.253 A 
ATOM     12  O   UNL     1      -4.168  -7.038  -3.912  0.00  0.00    -0.268 OA
ATOM     13  C   UNL     1      -1.891  -6.881  -3.958  0.00  0.00    +0.094 A 
ATOM     14  C   UNL     1      -0.809  -6.050  -3.921  0.00  0.00    +0.064 A 
ATOM     15  N   UNL     1      -0.982  -4.734  -3.818  0.00  0.00    -0.219 NA
ATOM     16  H   UNL     1      -3.700  -0.089  -4.774  0.00  0.00    -0.081 HD
ENDROOT
BRANCH   1  17
ATOM     17  C   UNL     1      -4.384  -0.537  -6.628  0.00  0.00    -0.043 C 
BRANCH  17  23
ATOM     18  C   UNL     1      -5.992   1.288  -6.038  0.00  0.00    +0.004 A 
ATOM     19  C   UNL     1      -7.259   1.731  -5.710  0.00  0.00    +0.038 A 
ATOM     20  C   UNL     1      -8.304   0.827  -5.614  0.00  0.00    +0.123 A 
ATOM     21  C   UNL     1      -8.077  -0.519  -5.847  0.00  0.00    +0.038 A 
ATOM     22  C   UNL     1      -6.809  -0.959  -6.175  0.00  0.00    +0.004 A 
ATOM     23  C   UNL     1      -5.767  -0.056  -6.271  0.00  0.00    -0.064 A 
ATOM     24  F   UNL     1      -9.543   1.258  -5.293  0.00  0.00    -0.205 F 
ENDBRANCH  17  23
ENDBRANCH   1  17
BRANCH  14  25
ATOM     25  C   UNL     1       0.583  -6.622  -4.002  0.00  0.00    +0.140 C 
BRANCH  25  26
ATOM     26  N   UNL     1       1.226  -6.169  -5.243  0.00  0.00    -0.300 NA
ATOM     27  C   UNL     1       0.553  -6.733  -6.421  0.00  0.00    +0.066 C 
ATOM     28  C   UNL     1       1.215  -6.192  -7.691  0.00  0.00    -0.063 C 
ATOM     29  N   UNL     1       2.637  -6.558  -7.696  0.00  0.00    +0.383 N 
ATOM     30  C   UNL     1       3.301  -5.968  -6.526  0.00  0.00    -0.063 C 
ATOM     31  C   UNL     1       2.657  -6.507  -5.247  0.00  0.00    +0.066 C 
ATOM     32  H   UNL     1       2.726  -7.563  -7.661  0.00  0.00    -0.081 HD
BRANCH  29  33
ATOM     33  C   UNL     1       3.268  -6.054  -8.923  0.00  0.00    -0.068 C 
ATOM     34  C   UNL     1       2.578  -6.670 -10.142  0.00  0.00    -0.015 C 
ATOM     35  C   UNL     1       3.234  -6.145 -11.420  0.00  0.00    -0.002 C 
ATOM     36  C   UNL     1       4.716  -6.527 -11.426  0.00  0.00    -0.000 C 
ATOM     37  C   UNL     1       5.406  -5.910 -10.207  0.00  0.00    -0.002 C 
ATOM     38  C   UNL     1       4.749  -6.436  -8.929  0.00  0.00    -0.015 C 
ENDBRANCH  29  33
ENDBRANCH  25  26
ENDBRANCH  14  25
TORSDOF 5
