REMARK  Name = ZINC59294590
REMARK  6 active torsions:
REMARK  status: ('A' for Active; 'I' for Inactive)
REMARK    1  A    between atoms: C_1  and  C_2
REMARK    2  A    between atoms: C_5  and  C_23
REMARK    3  A    between atoms: C_7  and  N_8
REMARK    4  A    between atoms: N_8  and  C_9
REMARK    5  A    between atoms: C_9  and  N_11
REMARK    6  A    between atoms: C_12  and  C_14
REMARK                            x       y       z     vdW  Elec       q    Type
REMARK                         _______ _______ _______ _____ _____    ______ ____
ROOT
ATOM      1  C   UNL     1      -0.566   1.423   0.034  0.00  0.00    +0.045 C 
ATOM      2  C   UNL     1      -0.248  -0.050   0.018  0.00  0.00    -0.029 A 
ATOM      3  C   UNL     1      -0.234  -0.738  -1.181  0.00  0.00    +0.006 A 
ATOM      4  C   UNL     1       0.057  -2.087  -1.203  0.00  0.00    +0.009 A 
ATOM      5  C   UNL     1       0.338  -2.760  -0.014  0.00  0.00    -0.009 A 
ATOM      6  C   UNL     1       0.323  -2.067   1.194  0.00  0.00    +0.032 A 
ATOM      7  C   UNL     1       0.035  -0.710   1.207  0.00  0.00    +0.036 A 
ENDROOT
BRANCH   5   8
ATOM      8  C   UNL     1       0.649  -4.209  -0.035  0.00  0.00    +0.067 A 
ATOM      9  C   UNL     1       1.781  -4.688  -0.651  0.00  0.00    +0.027 A 
ATOM     10  C   UNL     1       2.004  -6.135  -0.620  0.00  0.00    +0.018 A 
ATOM     11  C   UNL     1       3.243  -6.679  -0.981  0.00  0.00    +0.011 A 
ATOM     12  C   UNL     1       3.425  -8.033  -0.940  0.00  0.00    +0.001 A 
ATOM     13  C   UNL     1       2.393  -8.873  -0.545  0.00  0.00    +0.004 A 
ATOM     14  C   UNL     1       1.165  -8.357  -0.188  0.00  0.00    +0.047 A 
ATOM     15  C   UNL     1       0.956  -6.986  -0.222  0.00  0.00    +0.139 A 
ATOM     16  O   UNL     1      -0.244  -6.457   0.119  0.00  0.00    -0.422 OA
ATOM     17  C   UNL     1      -0.238  -5.193   0.607  0.00  0.00    +0.345 A 
ATOM     18  O   UNL     1      -0.947  -4.879   1.545  0.00  0.00    -0.245 OA
ENDBRANCH   5   8
BRANCH   7  19
ATOM     19  N   UNL     1       0.025  -0.008   2.417  0.00  0.00    -0.296 N 
ATOM     20  H   UNL     1       0.490   0.840   2.490  0.00  0.00    +0.154 HD
BRANCH  19  21
ATOM     21  C   UNL     1      -0.632  -0.510   3.482  0.00  0.00    +0.141 C 
ATOM     22  S   UNL     1      -1.360  -2.057   3.387  0.00  0.00    -0.018 S 
BRANCH  21  23
ATOM     23  N   UNL     1      -0.715   0.205   4.621  0.00  0.00    -0.264 N 
ATOM     24  C   UNL     1      -1.371  -0.296   5.685  0.00  0.00    +0.250 C 
ATOM     25  O   UNL     1      -1.889  -1.395   5.618  0.00  0.00    -0.270 OA
ATOM     26  H   UNL     1      -0.302   1.082   4.674  0.00  0.00    +0.157 HD
BRANCH  24  27
ATOM     27  C   UNL     1      -1.463   0.487   6.933  0.00  0.00    +0.039 A 
ATOM     28  C   UNL     1      -0.865   1.761   6.997  0.00  0.00    +0.015 A 
ATOM     29  C   UNL     1      -0.925   2.509   8.118  0.00  0.00    +0.031 A 
ATOM     30  C   UNL     1      -1.601   2.025   9.274  0.00  0.00    +0.100 A 
ATOM     31  C   UNL     1      -2.225   0.707   9.220  0.00  0.00    +0.101 A 
ATOM     32  C   UNL     1      -2.137  -0.036   8.016  0.00  0.00    +0.043 A 
ATOM     33  N   UNL     1      -2.827   0.365  10.361  0.00  0.00    -0.191 NA
ATOM     34  S   UNL     1      -2.599   1.605  11.360  0.00  0.00    +0.116 S 
ATOM     35  N   UNL     1      -1.754   2.629  10.452  0.00  0.00    -0.191 NA
ENDBRANCH  24  27
ENDBRANCH  21  23
ENDBRANCH  19  21
ENDBRANCH   7  19
TORSDOF 5
