REMARK  Name = ZINC63676447
REMARK  8 active torsions:
REMARK  status: ('A' for Active; 'I' for Inactive)
REMARK    1  A    between atoms: C_1  and  N_2
REMARK    2  A    between atoms: N_2  and  C_3
REMARK    3  A    between atoms: N_2  and  S_10
REMARK    4  A    between atoms: C_3  and  C_4
REMARK    5  A    between atoms: S_10  and  C_13
REMARK    6  A    between atoms: C_16  and  C_19
REMARK    7  A    between atoms: N_21  and  C_22
REMARK    8  A    between atoms: C_25  and  C_28
REMARK                            x       y       z     vdW  Elec       q    Type
REMARK                         _______ _______ _______ _____ _____    ______ ____
ROOT
ATOM      1  C   UNL     1       5.736  -1.627  -3.036  0.00  0.00    +0.248 C 
ATOM      2  O   UNL     1       6.298  -0.796  -3.723  0.00  0.00    -0.270 OA
ATOM      3  N   UNL     1       6.398  -2.733  -2.641  0.00  0.00    -0.282 N 
ATOM      4  H   UNL     1       5.972  -3.363  -2.038  0.00  0.00    +0.155 HD
ENDROOT
BRANCH   1   8
ATOM      5  C   UNL     1       1.688  -1.050  -1.887  0.00  0.00    +0.106 A 
ATOM      6  C   UNL     1       2.325  -0.101  -2.668  0.00  0.00    +0.029 A 
ATOM      7  C   UNL     1       3.639  -0.282  -3.044  0.00  0.00    +0.015 A 
ATOM      8  C   UNL     1       4.327  -1.426  -2.636  0.00  0.00    +0.037 A 
ATOM      9  C   UNL     1       3.679  -2.379  -1.849  0.00  0.00    +0.015 A 
ATOM     10  C   UNL     1       2.366  -2.183  -1.474  0.00  0.00    +0.029 A 
BRANCH   5  11
ATOM     11  S   UNL     1       0.009  -0.810  -1.410  0.00  0.00    +0.061 S 
ATOM     12  O   UNL     1      -0.522  -2.099  -1.132  0.00  0.00    -0.153 OA
ATOM     13  O   UNL     1      -0.567   0.059  -2.376  0.00  0.00    -0.153 OA
BRANCH  11  15
ATOM     14  C   UNL     1       0.002   1.482   0.026  0.00  0.00    +0.131 C 
ATOM     15  N   UNL     1       0.020   0.017   0.024  0.00  0.00    -0.177 NA
BRANCH  15  16
ATOM     16  C   UNL     1       0.048  -0.717   1.292  0.00  0.00    +0.140 C 
BRANCH  16  17
ATOM     17  C   UNL     1      -1.379  -0.881   1.818  0.00  0.00    +0.134 C 
ATOM     18  C   UNL     1      -1.369  -1.624   3.178  0.00  0.00    +0.035 C 
ATOM     19  C   UNL     1      -2.701  -1.122   3.798  0.00  0.00    +0.031 C 
ATOM     20  C   UNL     1      -2.787   0.324   3.263  0.00  0.00    +0.160 C 
ATOM     21  O   UNL     1      -1.959   0.404   2.095  0.00  0.00    -0.375 OA
ENDBRANCH  16  17
ENDBRANCH  15  16
ENDBRANCH  11  15
ENDBRANCH   5  11
ENDBRANCH   1   8
BRANCH   3  22
ATOM     22  C   UNL     1       7.698  -2.971  -3.098  0.00  0.00    +0.034 A 
ATOM     23  C   UNL     1       8.118  -4.270  -3.354  0.00  0.00    +0.024 A 
ATOM     24  C   UNL     1       9.402  -4.502  -3.806  0.00  0.00    +0.009 A 
ATOM     25  C   UNL     1      10.269  -3.442  -4.004  0.00  0.00    -0.005 A 
ATOM     26  C   UNL     1       9.854  -2.148  -3.750  0.00  0.00    +0.009 A 
ATOM     27  C   UNL     1       8.569  -1.909  -3.304  0.00  0.00    +0.024 A 
BRANCH  25  28
ATOM     28  C   UNL     1      11.670  -3.699  -4.497  0.00  0.00    +0.206 C 
ATOM     29  N   UNL     1      12.160  -4.982  -3.978  0.00  0.00    -0.360 N 
ATOM     30  C   UNL     1      13.215  -4.735  -3.258  0.00  0.00    +0.060 A 
ATOM     31  C   UNL     1      14.127  -5.597  -2.494  0.00  0.00    +0.027 A 
ATOM     32  C   UNL     1      15.162  -5.046  -1.829  0.00  0.00    +0.002 A 
ATOM     33  C   UNL     1      15.415  -3.663  -1.831  0.00  0.00    +0.002 A 
ATOM     34  C   UNL     1      14.641  -2.784  -2.499  0.00  0.00    +0.027 A 
ATOM     35  C   UNL     1      13.483  -3.271  -3.261  0.00  0.00    +0.060 A 
ATOM     36  N   UNL     1      12.582  -2.670  -3.983  0.00  0.00    -0.360 N 
ATOM     37  H   UNL     1      11.768  -5.855  -4.142  0.00  0.00    +0.162 HD
ATOM     38  H   UNL     1      12.524  -1.716  -4.151  0.00  0.00    +0.162 HD
ENDBRANCH  25  28
ENDBRANCH   3  22
TORSDOF 7
