REMARK  Name = ZINC43528220
REMARK  9 active torsions:
REMARK  status: ('A' for Active; 'I' for Inactive)
REMARK    1  A    between atoms: C_1  and  C_2
REMARK    2  A    between atoms: C_4  and  C_32
REMARK    3  A    between atoms: C_6  and  C_8
REMARK    4  A    between atoms: C_17  and  C_19
REMARK    5  A    between atoms: C_19  and  N_20
REMARK    6  A    between atoms: N_20  and  C_21
REMARK    7  A    between atoms: C_21  and  C_22
REMARK    8  A    between atoms: C_25  and  N_28
REMARK    9  A    between atoms: C_29  and  C_31
REMARK                            x       y       z     vdW  Elec       q    Type
REMARK                         _______ _______ _______ _____ _____    ______ ____
ROOT
ATOM      1  C   UNL     1      -0.257  -2.626   3.219  0.00  0.00    +0.024 C 
ATOM      2  C   UNL     1      -1.045  -3.932   3.095  0.00  0.00    -0.069 C 
ATOM      3  N   UNL     1      -0.136  -5.077   3.183  0.00  0.00    +0.381 N 
ATOM      4  C   UNL     1       0.838  -5.047   2.089  0.00  0.00    -0.078 C 
ATOM      5  C   UNL     1       1.689  -3.778   2.179  0.00  0.00    -0.015 C 
ATOM      6  C   UNL     1       1.231  -2.957   3.395  0.00  0.00    -0.007 C 
ATOM      7  C   UNL     1       1.387  -3.826   4.650  0.00  0.00    -0.013 C 
ATOM      8  C   UNL     1       0.546  -5.096   4.480  0.00  0.00    -0.086 C 
ATOM      9  H   UNL     1      -0.678  -5.923   3.095  0.00  0.00    -0.082 HD
ENDROOT
BRANCH   1  15
ATOM     10  C   UNL     1      -0.707   1.756   1.095  0.00  0.00    +0.088 C 
ATOM     11  C   UNL     1      -0.659   0.255   0.960  0.00  0.00    +0.127 A 
ATOM     12  N   UNL     1      -0.784  -0.283  -0.234  0.00  0.00    -0.229 NA
ATOM     13  C   UNL     1      -0.747  -1.608  -0.390  0.00  0.00    +0.110 A 
ATOM     14  C   UNL     1      -0.572  -2.417   0.740  0.00  0.00    +0.055 A 
ATOM     15  C   UNL     1      -0.446  -1.802   1.971  0.00  0.00    +0.047 A 
ATOM     16  N   UNL     1      -0.489  -0.479   2.041  0.00  0.00    -0.237 NA
BRANCH  13  17
ATOM     17  C   UNL     1      -0.887  -2.210  -1.730  0.00  0.00    +0.153 A 
ATOM     18  C   UNL     1      -1.056  -1.532  -2.897  0.00  0.00    +0.051 A 
ATOM     19  C   UNL     1      -1.143  -2.497  -3.918  0.00  0.00    +0.042 A 
ATOM     20  C   UNL     1      -1.024  -3.705  -3.331  0.00  0.00    +0.196 A 
ATOM     21  O   UNL     1      -0.865  -3.528  -2.011  0.00  0.00    -0.461 OA
ENDBRANCH  13  17
ENDBRANCH   1  15
BRANCH   8  22
ATOM     22  C   UNL     1       1.456  -6.324   4.557  0.00  0.00    -0.098 C 
BRANCH  22  23
ATOM     23  N   UNL     1       0.668  -7.535   4.290  0.00  0.00    +0.381 N 
ATOM     24  H   UNL     1      -0.066  -7.617   4.977  0.00  0.00    -0.086 HD
ATOM     25  H   UNL     1       0.261  -7.475   3.368  0.00  0.00    -0.086 HD
BRANCH  23  26
ATOM     26  C   UNL     1       1.542  -8.713   4.364  0.00  0.00    -0.047 C 
BRANCH  26  27
ATOM     27  C   UNL     1       0.734  -9.955   4.090  0.00  0.00    -0.064 A 
ATOM     28  C   UNL     1       0.121 -10.624   5.133  0.00  0.00    +0.003 A 
ATOM     29  C   UNL     1      -0.620 -11.763   4.886  0.00  0.00    +0.023 A 
ATOM     30  C   UNL     1      -0.750 -12.236   3.586  0.00  0.00    +0.033 A 
ATOM     31  C   UNL     1      -0.134 -11.562   2.540  0.00  0.00    +0.023 A 
ATOM     32  C   UNL     1       0.602 -10.421   2.794  0.00  0.00    +0.003 A 
BRANCH  30  33
ATOM     33  N   UNL     1      -1.500 -13.390   3.332  0.00  0.00    -0.286 N 
ATOM     34  C   UNL     1      -2.583 -13.668   4.083  0.00  0.00    +0.214 C 
ATOM     35  O   UNL     1      -2.965 -12.873   4.916  0.00  0.00    -0.276 OA
ATOM     36  C   UNL     1      -3.321 -14.968   3.889  0.00  0.00    +0.109 C 
ATOM     37  H   UNL     1      -1.240 -13.989   2.615  0.00  0.00    +0.155 HD
ENDBRANCH  30  33
ENDBRANCH  26  27
ENDBRANCH  23  26
ENDBRANCH  22  23
ENDBRANCH   8  22
TORSDOF 7
