REMARK  Name = ZINC26509068
REMARK  7 active torsions:
REMARK  status: ('A' for Active; 'I' for Inactive)
REMARK    1  A    between atoms: C_1  and  C_2
REMARK    2  A    between atoms: C_2  and  C_3
REMARK    3  A    between atoms: C_10  and  C_12
REMARK    4  A    between atoms: C_14  and  N_21
REMARK    5  A    between atoms: C_15  and  O_19
REMARK    6  A    between atoms: C_16  and  N_18
REMARK    7  A    between atoms: O_19  and  C_20
REMARK                            x       y       z     vdW  Elec       q    Type
REMARK                         _______ _______ _______ _____ _____    ______ ____
ROOT
ATOM      1  C   UNL     1      -1.947   5.287   5.759  0.00  0.00    +0.041 A 
ATOM      2  C   UNL     1      -1.153   6.435   5.761  0.00  0.00    +0.039 A 
ATOM      3  C   UNL     1      -1.328   7.395   6.744  0.00  0.00    +0.069 A 
ATOM      4  C   UNL     1      -2.286   7.210   7.737  0.00  0.00    +0.161 A 
ATOM      5  C   UNL     1      -3.075   6.062   7.741  0.00  0.00    +0.069 A 
ATOM      6  C   UNL     1      -2.908   5.103   6.756  0.00  0.00    +0.039 A 
ENDROOT
BRANCH   1  14
ATOM      7  C   UNL     1      -0.718   1.572   1.248  0.00  0.00    -0.045 A 
ATOM      8  C   UNL     1      -1.722   0.802   1.816  0.00  0.00    +0.007 A 
ATOM      9  C   UNL     1      -2.377   1.232   2.951  0.00  0.00    +0.049 A 
ATOM     10  C   UNL     1      -2.032   2.443   3.531  0.00  0.00    +0.156 A 
ATOM     11  C   UNL     1      -1.016   3.226   2.959  0.00  0.00    +0.110 A 
ATOM     12  C   UNL     1      -0.358   2.775   1.813  0.00  0.00    +0.035 A 
ATOM     13  N   UNL     1      -0.899   4.338   3.731  0.00  0.00    -0.209 NA
ATOM     14  C   UNL     1      -1.768   4.265   4.708  0.00  0.00    +0.229 A 
ATOM     15  O   UNL     1      -2.473   3.122   4.614  0.00  0.00    -0.435 OA
BRANCH   7  17
ATOM     16  C   UNL     1      -0.753   1.593  -1.232  0.00  0.00    +0.009 C 
ATOM     17  C   UNL     1      -0.013   1.086   0.008  0.00  0.00    +0.032 C 
ENDBRANCH   7  17
ENDBRANCH   1  14
BRANCH   5  18
ATOM     18  N   UNL     1      -4.038   5.878   8.741  0.00  0.00    -0.355 N 
ATOM     19  H   UNL     1      -4.661   4.972   8.743  0.00  0.00    +0.142 HD
ATOM     20  H   UNL     1      -4.171   6.640   9.523  0.00  0.00    +0.142 HD
ENDBRANCH   5  18
BRANCH   3  21
ATOM     21  N   UNL     1      -0.536   8.549   6.743  0.00  0.00    -0.355 N 
ATOM     22  H   UNL     1      -0.674   9.312   7.524  0.00  0.00    +0.142 HD
ATOM     23  H   UNL     1       0.225   8.694   5.961  0.00  0.00    +0.142 HD
ENDBRANCH   3  21
BRANCH   4  24
ATOM     24  O   UNL     1      -2.451   8.151   8.706  0.00  0.00    -0.491 OA
ATOM     25  C   UNL     1      -1.666   8.007   9.891  0.00  0.00    +0.277 C 
ENDBRANCH   4  24
TORSDOF 5
