REMARK  Name = ZINC10441453
REMARK  7 active torsions:
REMARK  status: ('A' for Active; 'I' for Inactive)
REMARK    1  A    between atoms: C_1  and  C_2
REMARK    2  A    between atoms: C_2  and  C_4
REMARK    3  A    between atoms: C_2  and  S_16
REMARK    4  A    between atoms: N_6  and  C_7
REMARK    5  A    between atoms: C_10  and  N_13
REMARK    6  A    between atoms: S_16  and  C_17
REMARK    7  A    between atoms: N_27  and  C_28
REMARK                            x       y       z     vdW  Elec       q    Type
REMARK                         _______ _______ _______ _____ _____    ______ ____
ROOT
ATOM      1  C   UNL     1       2.294   0.895  -1.449  0.00  0.00    +0.177 A 
ATOM      2  N   UNL     1       1.482   0.112  -2.115  0.00  0.00    -0.223 NA
ATOM      3  C   UNL     1       1.883  -0.542  -3.224  0.00  0.00    +0.079 A 
ATOM      4  C   UNL     1       1.017  -1.378  -3.935  0.00  0.00    +0.028 A 
ATOM      5  C   UNL     1       1.465  -2.022  -5.053  0.00  0.00    +0.002 A 
ATOM      6  C   UNL     1       2.771  -1.858  -5.498  0.00  0.00    +0.001 A 
ATOM      7  C   UNL     1       3.642  -1.047  -4.824  0.00  0.00    +0.015 A 
ATOM      8  C   UNL     1       3.211  -0.378  -3.679  0.00  0.00    +0.065 A 
ATOM      9  C   UNL     1       4.103   0.505  -2.916  0.00  0.00    +0.267 A 
ATOM     10  O   UNL     1       5.257   0.686  -3.258  0.00  0.00    -0.267 OA
ATOM     11  N   UNL     1       3.591   1.114  -1.821  0.00  0.00    -0.253 N 
ENDROOT
BRANCH  11  12
ATOM     12  C   UNL     1       4.399   1.972  -1.060  0.00  0.00    +0.087 A 
ATOM     13  C   UNL     1       5.150   1.468  -0.007  0.00  0.00    +0.032 A 
ATOM     14  C   UNL     1       5.944   2.314   0.742  0.00  0.00    +0.040 A 
ATOM     15  C   UNL     1       5.993   3.665   0.443  0.00  0.00    +0.126 A 
ATOM     16  C   UNL     1       5.246   4.172  -0.607  0.00  0.00    +0.078 A 
ATOM     17  C   UNL     1       4.453   3.328  -1.362  0.00  0.00    +0.150 A 
ATOM     18  F   UNL     1       3.728   3.821  -2.390  0.00  0.00    -0.203 F 
ATOM     19  F   UNL     1       6.772   4.490   1.177  0.00  0.00    -0.205 F 
ENDBRANCH  11  12
BRANCH   1  20
ATOM     20  S   UNL     1       1.683   1.710  -0.010  0.00  0.00    -0.075 S 
BRANCH  20  22
ATOM     21  C   UNL     1      -0.759   1.606  -1.230  0.00  0.00    +0.029 C 
ATOM     22  C   UNL     1      -0.017   1.089   0.004  0.00  0.00    +0.137 C 
BRANCH  22  23
ATOM     23  C   UNL     1      -0.717   1.571   1.249  0.00  0.00    +0.230 C 
ATOM     24  O   UNL     1      -0.341   2.582   1.803  0.00  0.00    -0.274 OA
ATOM     25  N   UNL     1      -1.761   0.878   1.746  0.00  0.00    -0.285 N 
ATOM     26  H   UNL     1      -2.104   0.108   1.266  0.00  0.00    +0.155 HD
BRANCH  25  27
ATOM     27  C   UNL     1      -2.349   1.270   2.953  0.00  0.00    +0.034 A 
ATOM     28  C   UNL     1      -2.852   0.313   3.825  0.00  0.00    +0.025 A 
ATOM     29  C   UNL     1      -3.427   0.702   5.019  0.00  0.00    +0.034 A 
ATOM     30  C   UNL     1      -3.513   2.044   5.341  0.00  0.00    +0.126 A 
ATOM     31  C   UNL     1      -3.019   3.000   4.473  0.00  0.00    +0.034 A 
ATOM     32  C   UNL     1      -2.437   2.617   3.280  0.00  0.00    +0.025 A 
BRANCH  30  33
ATOM     33  N   UNL     1      -4.136   2.458   6.618  0.00  0.00    +0.056 N 
ATOM     34  O   UNL     1      -4.212   3.640   6.904  0.00  0.00    -0.126 OA
ATOM     35  O   UNL     1      -4.572   1.618   7.384  0.00  0.00    -0.126 OA
ENDBRANCH  30  33
ENDBRANCH  25  27
ENDBRANCH  22  23
ENDBRANCH  20  22
ENDBRANCH   1  20
TORSDOF 6
