REMARK  Name = ZINC12709732
REMARK  12 active torsions:
REMARK  status: ('A' for Active; 'I' for Inactive)
REMARK    1  A    between atoms: C_1  and  C_2
REMARK    2  A    between atoms: C_5  and  N_9
REMARK    3  A    between atoms: C_6  and  C_8
REMARK    4  A    between atoms: N_9  and  C_10
REMARK    5  A    between atoms: C_10  and  C_12
REMARK    6  A    between atoms: C_10  and  C_13
REMARK    7  A    between atoms: N_15  and  C_16
REMARK    8  A    between atoms: C_21  and  C_23
REMARK    9  A    between atoms: C_23  and  S_24
REMARK   10  A    between atoms: S_24  and  C_26
REMARK   11  A    between atoms: C_26  and  C_27
REMARK   12  A    between atoms: N_29  and  C_30
REMARK                            x       y       z     vdW  Elec       q    Type
REMARK                         _______ _______ _______ _____ _____    ______ ____
ROOT
ATOM      1  N   UNL     1      -1.359   1.866   0.303  0.00  0.00    -0.259 N 
ATOM      2  C   UNL     1      -1.741   2.220  -0.940  0.00  0.00    +0.233 C 
ATOM      3  O   UNL     1      -2.838   2.704  -1.122  0.00  0.00    -0.274 OA
ENDROOT
BRANCH   1   8
ATOM      4  C   UNL     1       3.778  -0.393   1.137  0.00  0.00    +0.044 C 
ATOM      5  C   UNL     1       2.413   0.207   0.917  0.00  0.00    -0.050 A 
ATOM      6  C   UNL     1       2.230   1.571   1.047  0.00  0.00    +0.005 A 
ATOM      7  C   UNL     1       0.981   2.124   0.847  0.00  0.00    +0.024 A 
ATOM      8  C   UNL     1      -0.093   1.308   0.513  0.00  0.00    +0.040 A 
ATOM      9  C   UNL     1       0.094  -0.061   0.383  0.00  0.00    -0.029 A 
ATOM     10  C   UNL     1       1.347  -0.608   0.586  0.00  0.00    +0.008 A 
ATOM     11  C   UNL     1      -1.068  -0.950   0.022  0.00  0.00    +0.045 C 
ENDBRANCH   1   8
BRANCH   1  12
ATOM     12  C   UNL     1      -2.268   2.066   1.434  0.00  0.00    +0.164 C 
ATOM     13  C   UNL     1      -2.425   0.751   2.200  0.00  0.00    +0.038 C 
BRANCH  12  14
ATOM     14  C   UNL     1      -1.704   3.119   2.353  0.00  0.00    +0.234 C 
ATOM     15  O   UNL     1      -0.647   3.650   2.089  0.00  0.00    -0.274 OA
ATOM     16  N   UNL     1      -2.375   3.470   3.467  0.00  0.00    -0.311 N 
ATOM     17  H   UNL     1      -3.221   3.044   3.679  0.00  0.00    +0.149 HD
BRANCH  16  18
ATOM     18  C   UNL     1      -1.827   4.493   4.361  0.00  0.00    +0.073 C 
ATOM     19  C   UNL     1      -0.885   3.843   5.394  0.00  0.00    +0.022 C 
ATOM     20  C   UNL     1      -1.142   4.640   6.697  0.00  0.00    +0.002 C 
ATOM     21  C   UNL     1      -2.670   4.891   6.649  0.00  0.00    +0.002 C 
ATOM     22  C   UNL     1      -2.962   5.159   5.158  0.00  0.00    +0.022 C 
ENDBRANCH  16  18
ENDBRANCH  12  14
ENDBRANCH   1  12
BRANCH   2  23
ATOM     23  C   UNL     1      -0.805   2.015  -2.103  0.00  0.00    +0.200 C 
BRANCH  23  24
ATOM     24  S   UNL     1      -1.603   2.586  -3.629  0.00  0.00    +0.040 S 
ATOM     25  O   UNL     1      -2.758   1.798  -3.883  0.00  0.00    -0.256 OA
BRANCH  24  26
ATOM     26  C   UNL     1      -0.363   2.274  -4.916  0.00  0.00    +0.200 C 
BRANCH  26  27
ATOM     27  C   UNL     1      -0.906   2.709  -6.253  0.00  0.00    +0.230 C 
ATOM     28  O   UNL     1      -2.020   3.183  -6.330  0.00  0.00    -0.274 OA
ATOM     29  N   UNL     1      -0.154   2.572  -7.363  0.00  0.00    -0.285 N 
ATOM     30  H   UNL     1       0.764   2.267  -7.292  0.00  0.00    +0.155 HD
BRANCH  29  31
ATOM     31  C   UNL     1      -0.698   2.870  -8.618  0.00  0.00    +0.034 A 
ATOM     32  C   UNL     1      -0.327   2.127  -9.731  0.00  0.00    +0.026 A 
ATOM     33  C   UNL     1      -0.869   2.419 -10.967  0.00  0.00    +0.040 A 
ATOM     34  C   UNL     1      -1.773   3.460 -11.100  0.00  0.00    +0.124 A 
ATOM     35  C   UNL     1      -2.140   4.206  -9.992  0.00  0.00    +0.040 A 
ATOM     36  C   UNL     1      -1.605   3.913  -8.753  0.00  0.00    +0.026 A 
ATOM     37  F   UNL     1      -2.298   3.747 -12.311  0.00  0.00    -0.205 F 
ENDBRANCH  29  31
ENDBRANCH  26  27
ENDBRANCH  24  26
ENDBRANCH  23  24
ENDBRANCH   2  23
TORSDOF 9
