REMARK  Name = ZINC37266274
REMARK  6 active torsions:
REMARK  status: ('A' for Active; 'I' for Inactive)
REMARK    1  A    between atoms: C_1  and  O_2
REMARK    2  A    between atoms: O_2  and  C_3
REMARK    3  A    between atoms: N_6  and  C_9
REMARK    4  A    between atoms: C_12  and  S_16
REMARK    5  A    between atoms: C_14  and  N_15
REMARK    6  A    between atoms: S_16  and  N_19
REMARK                            x       y       z     vdW  Elec       q    Type
REMARK                         _______ _______ _______ _____ _____    ______ ____
ROOT
ATOM      1  C   UNL     1       2.905  -3.787   2.552  0.00  0.00    +0.051 A 
ATOM      2  C   UNL     1       3.467  -4.124   3.774  0.00  0.00    +0.027 A 
ATOM      3  C   UNL     1       4.169  -5.308   3.909  0.00  0.00    +0.030 A 
ATOM      4  C   UNL     1       4.313  -6.158   2.829  0.00  0.00    +0.107 A 
ATOM      5  C   UNL     1       3.756  -5.830   1.606  0.00  0.00    +0.053 A 
ATOM      6  C   UNL     1       3.046  -4.647   1.463  0.00  0.00    +0.048 A 
ENDROOT
BRANCH   1  10
ATOM      7  C   UNL     1       0.673  -0.582   1.123  0.00  0.00    +0.121 C 
ATOM      8  C   UNL     1       2.156  -0.766   0.790  0.00  0.00    +0.050 C 
ATOM      9  C   UNL     1       2.879  -1.354   2.006  0.00  0.00    +0.107 C 
ATOM     10  N   UNL     1       2.194  -2.589   2.412  0.00  0.00    -0.328 N 
ATOM     11  C   UNL     1       0.748  -2.543   2.669  0.00  0.00    +0.107 C 
ATOM     12  C   UNL     1       0.049  -1.942   1.446  0.00  0.00    +0.050 C 
BRANCH   7  14
ATOM     13  C   UNL     1      -0.017   1.425   0.010  0.00  0.00    +0.194 C 
ATOM     14  O   UNL     1       0.002  -0.004   0.002  0.00  0.00    -0.380 OA
ENDBRANCH   7  14
ENDBRANCH   1  10
BRANCH   6  15
ATOM     15  N   UNL     1       2.477  -4.315   0.227  0.00  0.00    -0.356 N 
ATOM     16  H   UNL     1       1.984  -3.486   0.128  0.00  0.00    +0.142 HD
ATOM     17  H   UNL     1       2.576  -4.915  -0.529  0.00  0.00    +0.142 HD
ENDBRANCH   6  15
BRANCH   4  18
ATOM     18  S   UNL     1       5.210  -7.664   3.010  0.00  0.00    +0.056 S 
ATOM     19  O   UNL     1       5.666  -8.023   1.713  0.00  0.00    -0.153 OA
ATOM     20  O   UNL     1       6.095  -7.480   4.106  0.00  0.00    -0.153 OA
BRANCH  18  21
ATOM     21  N   UNL     1       4.124  -8.828   3.468  0.00  0.00    -0.204 NA
ATOM     22  H   UNL     1       4.269  -9.753   3.215  0.00  0.00    +0.144 HD
ATOM     23  H   UNL     1       3.344  -8.584   3.990  0.00  0.00    +0.144 HD
ENDBRANCH  18  21
ENDBRANCH   4  18
TORSDOF 5
