REMARK  Name = ZINC25638569
REMARK  11 active torsions:
REMARK  status: ('A' for Active; 'I' for Inactive)
REMARK    1  A    between atoms: C_1  and  C_2
REMARK    2  A    between atoms: C_2  and  C_3
REMARK    3  A    between atoms: C_2  and  C_4
REMARK    4  A    between atoms: C_4  and  C_5
REMARK    5  A    between atoms: C_4  and  C_6
REMARK    6  A    between atoms: C_4  and  N_8
REMARK    7  A    between atoms: C_9  and  C_11
REMARK    8  A    between atoms: C_11  and  O_12
REMARK    9  A    between atoms: O_12  and  C_13
REMARK   10  A    between atoms: C_13  and  C_15
REMARK   11  A    between atoms: C_17  and  N_23
REMARK                            x       y       z     vdW  Elec       q    Type
REMARK                         _______ _______ _______ _____ _____    ______ ____
ROOT
ATOM      1  C   UNL     1      -0.851   2.033  -6.008  0.00  0.00    +0.360 C 
ATOM      2  O   UNL     1      -1.851   2.720  -6.043  0.00  0.00    -0.243 OA
ENDROOT
BRANCH   1   3
ATOM      3  C   UNL     1      -0.212   1.592  -7.267  0.00  0.00    +0.169 A 
ATOM      4  C   UNL     1      -0.766   1.965  -8.489  0.00  0.00    +0.095 A 
ATOM      5  C   UNL     1      -0.148   1.545  -9.668  0.00  0.00    +0.067 A 
ATOM      6  C   UNL     1       0.998   0.758  -9.570  0.00  0.00    +0.100 A 
ATOM      7  C   UNL     1       1.486   0.424  -8.316  0.00  0.00    +0.150 A 
ATOM      8  N   UNL     1       0.884   0.840  -7.222  0.00  0.00    -0.226 NA
ATOM      9 CL   UNL     1       2.913  -0.556  -8.188  0.00  0.00    -0.060 Cl
ATOM     10 CL   UNL     1       1.805   0.202 -11.003  0.00  0.00    -0.078 Cl
ATOM     11 CL   UNL     1      -2.200   2.941  -8.544  0.00  0.00    -0.079 Cl
BRANCH   5  12
ATOM     12  N   UNL     1      -0.667   1.900 -10.911  0.00  0.00    -0.356 N 
ATOM     13  H   UNL     1      -0.169   1.562 -11.832  0.00  0.00    +0.142 HD
ATOM     14  H   UNL     1      -1.575   2.518 -10.972  0.00  0.00    +0.142 HD
ENDBRANCH   5  12
ENDBRANCH   1   3
BRANCH   1  15
ATOM     15  O   UNL     1      -0.323   1.671  -4.822  0.00  0.00    -0.451 OA
BRANCH  15  16
ATOM     16  C   UNL     1      -1.002   2.140  -3.628  0.00  0.00    +0.328 C 
BRANCH  16  18
ATOM     17  N   UNL     1      -0.726   1.953  -1.177  0.00  0.00    -0.295 N 
ATOM     18  C   UNL     1      -0.273   1.640  -2.407  0.00  0.00    +0.252 C 
ATOM     19  O   UNL     1       0.721   0.957  -2.531  0.00  0.00    -0.272 OA
ATOM     20  H   UNL     1      -1.628   2.573  -1.064  0.00  0.00    +0.150 HD
BRANCH  17  21
ATOM     21  C   UNL     1      -0.018   1.468   0.010  0.00  0.00    +0.121 C 
ATOM     22  C   UNL     1       1.417   1.997  -0.001  0.00  0.00    +0.048 C 
BRANCH  21  24
ATOM     23  C   UNL     1      -0.069   1.353   2.505  0.00  0.00    +0.010 C 
ATOM     24  C   UNL     1      -0.734   1.961   1.269  0.00  0.00    +0.020 C 
ATOM     25  C   UNL     1      -0.646   3.487   1.341  0.00  0.00    +0.010 C 
ENDBRANCH  21  24
BRANCH  21  26
ATOM     26  C   UNL     1       0.002  -0.004   0.002  0.00  0.00    +0.088 C 
ATOM     27  N   UNL     1       0.018  -1.140  -0.004  0.00  0.00    -0.194 NA
ENDBRANCH  21  26
ENDBRANCH  17  21
ENDBRANCH  16  18
ENDBRANCH  15  16
ENDBRANCH   1  15
TORSDOF 8
