REMARK  Name = ZINC10019639
REMARK  9 active torsions:
REMARK  status: ('A' for Active; 'I' for Inactive)
REMARK    1  A    between atoms: C_1  and  C_2
REMARK    2  A    between atoms: C_5  and  C_8
REMARK    3  A    between atoms: C_8  and  C_10
REMARK    4  A    between atoms: C_8  and  N_47
REMARK    5  A    between atoms: C_10  and  N_11
REMARK    6  A    between atoms: C_12  and  C_14
REMARK    7  A    between atoms: N_16  and  C_17
REMARK    8  A    between atoms: C_25  and  N_47
REMARK    9  A    between atoms: C_26  and  N_47
REMARK                            x       y       z     vdW  Elec       q    Type
REMARK                         _______ _______ _______ _____ _____    ______ ____
ROOT
ATOM      1  N   UNL     1      -4.854   1.415  -0.235  0.00  0.00    -0.309 N 
ATOM      2  C   UNL     1      -3.692   2.087  -0.119  0.00  0.00    +0.299 C 
ATOM      3  O   UNL     1      -3.690   3.301  -0.126  0.00  0.00    -0.265 OA
ATOM      4  H   UNL     1      -4.855   0.445  -0.229  0.00  0.00    +0.149 HD
ENDROOT
BRANCH   2   5
ATOM      5  C   UNL     1      -2.406   1.340   0.018  0.00  0.00    +0.303 C 
ATOM      6  O   UNL     1      -2.408   0.126   0.025  0.00  0.00    -0.265 OA
ATOM      7  N   UNL     1      -1.245   2.013   0.134  0.00  0.00    -0.275 N 
ATOM      8  H   UNL     1      -1.250   2.979   0.213  0.00  0.00    +0.155 HD
BRANCH   7   9
ATOM      9  C   UNL     1      -0.031   1.317   0.139  0.00  0.00    +0.070 A 
ATOM     10  C   UNL     1       0.059   0.070  -0.465  0.00  0.00    +0.029 A 
ATOM     11  C   UNL     1       1.259  -0.613  -0.463  0.00  0.00    +0.040 A 
ATOM     12  C   UNL     1       2.375  -0.055   0.139  0.00  0.00    +0.126 A 
ATOM     13  C   UNL     1       2.290   1.188   0.742  0.00  0.00    +0.078 A 
ATOM     14  C   UNL     1       1.090   1.876   0.744  0.00  0.00    +0.147 A 
ATOM     15  F   UNL     1       1.007   3.090   1.332  0.00  0.00    -0.203 F 
ATOM     16  F   UNL     1       3.548  -0.726   0.138  0.00  0.00    -0.205 F 
ENDBRANCH   7   9
ENDBRANCH   2   5
BRANCH   1  17
ATOM     17  C   UNL     1      -6.115   2.148  -0.369  0.00  0.00    +0.094 C 
BRANCH  17  18
ATOM     18  C   UNL     1      -7.283   1.160  -0.363  0.00  0.00    -0.021 C 
BRANCH  18  23
ATOM     19  C   UNL     1     -12.259   4.058  -0.844  0.00  0.00    +0.044 C 
ATOM     20  C   UNL     1     -10.962   3.302  -0.719  0.00  0.00    -0.050 A 
ATOM     21  C   UNL     1     -10.485   2.950   0.530  0.00  0.00    +0.003 A 
ATOM     22  C   UNL     1      -9.294   2.257   0.645  0.00  0.00    +0.002 A 
ATOM     23  C   UNL     1      -8.581   1.915  -0.488  0.00  0.00    -0.059 A 
ATOM     24  C   UNL     1      -9.055   2.271  -1.737  0.00  0.00    +0.002 A 
ATOM     25  C   UNL     1     -10.248   2.960  -1.852  0.00  0.00    +0.003 A 
ENDBRANCH  18  23
BRANCH  18  28
ATOM     26  C   UNL     1      -6.379   0.844  -2.587  0.00  0.00    -0.096 C 
ATOM     27  C   UNL     1      -6.532  -1.033  -1.064  0.00  0.00    -0.096 C 
ATOM     28  N   UNL     1      -7.171   0.226  -1.503  0.00  0.00    +0.382 N 
ATOM     29  H   UNL     1      -8.113   0.016  -1.855  0.00  0.00    -0.082 HD
ENDBRANCH  18  28
ENDBRANCH  17  18
ENDBRANCH   1  17
TORSDOF 6
