REMARK  Name = ZINC34784842
REMARK  7 active torsions:
REMARK  status: ('A' for Active; 'I' for Inactive)
REMARK    1  A    between atoms: C_1  and  C_2
REMARK    2  A    between atoms: C_2  and  C_3
REMARK    3  A    between atoms: C_2  and  C_4
REMARK    4  A    between atoms: C_2  and  C_5
REMARK    5  A    between atoms: C_6  and  N_19
REMARK    6  A    between atoms: C_7  and  N_18
REMARK    7  A    between atoms: N_8  and  C_10
REMARK                            x       y       z     vdW  Elec       q    Type
REMARK                         _______ _______ _______ _____ _____    ______ ____
ROOT
ATOM      1  C   UNL     1       0.458  -0.543  -1.467  0.00  0.00    +0.092 A 
ATOM      2  C   UNL     1       0.848  -1.867  -1.702  0.00  0.00    +0.098 A 
ATOM      3  C   UNL     1       1.768  -1.859  -2.710  0.00  0.00    +0.142 A 
ATOM      4  N   UNL     1       1.944  -0.562  -3.090  0.00  0.00    -0.214 N 
ATOM      5  N   UNL     1       1.107   0.235  -2.298  0.00  0.00    -0.167 NA
ENDROOT
BRANCH   2   6
ATOM      6  N   UNL     1       0.374  -3.008  -1.018  0.00  0.00    -0.265 N 
ATOM      7  C   UNL     1       0.233  -4.177  -1.674  0.00  0.00    +0.307 C 
ATOM      8  O   UNL     1       0.437  -4.231  -2.872  0.00  0.00    -0.252 OA
ATOM      9  N   UNL     1      -0.135  -5.287  -1.003  0.00  0.00    -0.281 N 
ATOM     10  C   UNL     1      -0.511  -5.222   0.418  0.00  0.00    +0.137 C 
ATOM     11  C   UNL     1      -1.857  -5.935   0.594  0.00  0.00    +0.179 C 
ATOM     12  O   UNL     1      -1.777  -7.241   0.017  0.00  0.00    -0.377 OA
ATOM     13  C   UNL     1      -1.533  -7.244  -1.391  0.00  0.00    +0.179 C 
ATOM     14  C   UNL     1      -0.176  -6.597  -1.671  0.00  0.00    +0.137 C 
ATOM     15  H   UNL     1       0.149  -2.950  -0.076  0.00  0.00    +0.157 HD
ENDBRANCH   2   6
BRANCH   4  16
ATOM     16  C   UNL     1       2.805  -0.106  -4.098  0.00  0.00    +0.105 A 
ATOM     17  C   UNL     1       2.796  -0.712  -5.347  0.00  0.00    +0.069 A 
ATOM     18  C   UNL     1       3.647  -0.260  -6.340  0.00  0.00    +0.126 A 
ATOM     19  C   UNL     1       4.507   0.796  -6.089  0.00  0.00    +0.041 A 
ATOM     20  C   UNL     1       4.518   1.401  -4.846  0.00  0.00    +0.043 A 
ATOM     21  C   UNL     1       3.666   0.957  -3.851  0.00  0.00    +0.149 A 
ATOM     22  F   UNL     1       3.674   1.553  -2.639  0.00  0.00    -0.203 F 
ATOM     23  F   UNL     1       3.639  -0.850  -7.555  0.00  0.00    -0.205 F 
ENDBRANCH   4  16
BRANCH   1  25
ATOM     24  C   UNL     1      -0.692   1.432  -0.505  0.00  0.00    +0.017 C 
ATOM     25  C   UNL     1      -0.543  -0.089  -0.437  0.00  0.00    +0.008 C 
ATOM     26  C   UNL     1      -0.059  -0.492   0.958  0.00  0.00    +0.017 C 
ATOM     27  C   UNL     1      -1.896  -0.746  -0.717  0.00  0.00    +0.017 C 
ENDBRANCH   1  25
BRANCH   3  28
ATOM     28  N   UNL     1       2.410  -2.973  -3.252  0.00  0.00    -0.342 N 
ATOM     29  H   UNL     1       2.199  -3.861  -2.925  0.00  0.00    +0.144 HD
ATOM     30  H   UNL     1       3.069  -2.858  -3.955  0.00  0.00    +0.144 HD
ENDBRANCH   3  28
TORSDOF 4
