REMARK  Name = ZINC08791657
REMARK  11 active torsions:
REMARK  status: ('A' for Active; 'I' for Inactive)
REMARK    1  A    between atoms: C_1  and  C_2
REMARK    2  A    between atoms: C_2  and  C_3
REMARK    3  A    between atoms: C_2  and  C_4
REMARK    4  A    between atoms: C_4  and  C_5
REMARK    5  A    between atoms: C_5  and  N_6
REMARK    6  A    between atoms: C_7  and  C_9
REMARK    7  A    between atoms: C_9  and  C_11
REMARK    8  A    between atoms: C_9  and  N_15
REMARK    9  A    between atoms: C_11  and  C_13
REMARK   10  A    between atoms: C_11  and  C_14
REMARK   11  A    between atoms: C_16  and  C_18
REMARK                            x       y       z     vdW  Elec       q    Type
REMARK                         _______ _______ _______ _____ _____    ______ ____
ROOT
ATOM      1  C   UNL     1       1.297   0.907   0.849  0.00  0.00    +0.167 C 
ATOM      2  C   UNL     1       0.945   2.397   0.963  0.00  0.00    +0.069 C 
ATOM      3  C   UNL     1      -0.420   2.566   1.579  0.00  0.00    -0.015 A 
ATOM      4  C   UNL     1      -0.992   3.783   2.128  0.00  0.00    +0.003 A 
ATOM      5  C   UNL     1      -0.495   5.083   2.257  0.00  0.00    +0.010 A 
ATOM      6  C   UNL     1      -1.327   6.009   2.838  0.00  0.00    +0.001 A 
ATOM      7  C   UNL     1      -2.599   5.683   3.278  0.00  0.00    +0.002 A 
ATOM      8  C   UNL     1      -3.115   4.404   3.162  0.00  0.00    +0.026 A 
ATOM      9  C   UNL     1      -2.293   3.443   2.576  0.00  0.00    +0.047 A 
ATOM     10  N   UNL     1      -2.479   2.117   2.312  0.00  0.00    -0.356 N 
ATOM     11  H   UNL     1      -3.285   1.615   2.513  0.00  0.00    +0.166 HD
ATOM     12  C   UNL     1      -1.358   1.601   1.721  0.00  0.00    +0.046 A 
ATOM     13  C   UNL     1      -1.142   0.175   1.278  0.00  0.00    +0.155 C 
ATOM     14  N   UNL     1       0.082   0.191   0.444  0.00  0.00    -0.273 N 
ATOM     15  C   UNL     1      -0.167  -0.464  -0.698  0.00  0.00    +0.248 C 
ATOM     16  O   UNL     1       0.670  -0.784  -1.518  0.00  0.00    -0.270 OA
ATOM     17  C   UNL     1      -1.604  -0.738  -0.806  0.00  0.00    +0.042 A 
ATOM     18  C   UNL     1      -2.229  -0.320   0.386  0.00  0.00    -0.009 A 
ATOM     19  C   UNL     1      -3.592  -0.413   0.556  0.00  0.00    +0.006 A 
ATOM     20  C   UNL     1      -4.326  -0.952  -0.497  0.00  0.00    +0.000 A 
ATOM     21  C   UNL     1      -3.721  -1.376  -1.664  0.00  0.00    +0.001 A 
ATOM     22  C   UNL     1      -2.351  -1.282  -1.853  0.00  0.00    +0.013 A 
ENDROOT
BRANCH   1  24
ATOM     23  N   UNL     1       2.881   0.911   2.749  0.00  0.00    -0.302 N 
ATOM     24  C   UNL     1       1.773   0.392   2.182  0.00  0.00    +0.235 C 
ATOM     25  O   UNL     1       1.160  -0.490   2.746  0.00  0.00    -0.274 OA
ATOM     26  H   UNL     1       3.371   1.616   2.298  0.00  0.00    +0.150 HD
BRANCH  23  27
ATOM     27  C   UNL     1       3.344   0.409   4.045  0.00  0.00    +0.161 C 
BRANCH  27  29
ATOM     28  N   UNL     1       4.346   1.419   6.069  0.00  0.00    -0.314 N 
ATOM     29  C   UNL     1       4.154   1.476   4.736  0.00  0.00    +0.234 C 
ATOM     30  O   UNL     1       4.632   2.387   4.093  0.00  0.00    -0.274 OA
ATOM     31  H   UNL     1       3.905   0.733   6.593  0.00  0.00    +0.149 HD
BRANCH  28  32
ATOM     32  C   UNL     1       5.222   2.393   6.725  0.00  0.00    +0.104 C 
BRANCH  32  33
ATOM     33  C   UNL     1       5.267   2.108   8.227  0.00  0.00    +0.022 C 
BRANCH  33  35
ATOM     34  C   UNL     1       6.129   2.919  10.427  0.00  0.00    +0.007 C 
ATOM     35  C   UNL     1       6.181   3.125   8.912  0.00  0.00    -0.016 C 
ATOM     36  C   UNL     1       7.617   2.933   8.421  0.00  0.00    +0.007 C 
ENDBRANCH  33  35
ENDBRANCH  32  33
ENDBRANCH  28  32
ENDBRANCH  27  29
BRANCH  27  37
ATOM     37  C   UNL     1       4.213  -0.832   3.831  0.00  0.00    +0.012 C 
ATOM     38  C   UNL     1       5.355  -0.495   2.870  0.00  0.00    +0.009 C 
ATOM     39  C   UNL     1       3.361  -1.954   3.236  0.00  0.00    +0.009 C 
ENDBRANCH  27  37
ENDBRANCH  23  27
ENDBRANCH   1  24
TORSDOF 7
