REMARK  Name = ZINC15230960
REMARK  7 active torsions:
REMARK  status: ('A' for Active; 'I' for Inactive)
REMARK    1  A    between atoms: C_1  and  C_2
REMARK    2  A    between atoms: C_6  and  C_38
REMARK    3  A    between atoms: C_7  and  N_8
REMARK    4  A    between atoms: N_8  and  S_9
REMARK    5  A    between atoms: S_9  and  C_12
REMARK    6  A    between atoms: C_25  and  C_28
REMARK    7  A    between atoms: C_33  and  C_34
REMARK                            x       y       z     vdW  Elec       q    Type
REMARK                         _______ _______ _______ _____ _____    ______ ____
ROOT
ATOM      1  C   UNL     1       4.574  -3.682  -1.364  0.00  0.00    +0.109 A 
ATOM      2  C   UNL     1       3.638  -4.288  -0.546  0.00  0.00    +0.030 A 
ATOM      3  C   UNL     1       2.565  -3.566  -0.066  0.00  0.00    +0.025 A 
ATOM      4  C   UNL     1       2.416  -2.225  -0.399  0.00  0.00    +0.031 A 
ATOM      5  C   UNL     1       3.375  -1.615  -1.215  0.00  0.00    -0.018 A 
ATOM      6  C   UNL     1       4.439  -2.346  -1.695  0.00  0.00    +0.034 A 
ATOM      7  C   UNL     1       3.193  -0.180  -1.527  0.00  0.00    +0.049 C 
ATOM      8  C   UNL     1       3.748   0.413  -2.771  0.00  0.00    -0.023 C 
ATOM      9  C   UNL     1       2.949   1.399  -3.163  0.00  0.00    -0.030 C 
ATOM     10  C   UNL     1       1.758   1.518  -2.210  0.00  0.00    +0.033 C 
ATOM     11  C   UNL     1       1.663   0.090  -1.655  0.00  0.00    +0.029 C 
ATOM     12  C   UNL     1       1.105  -0.073  -0.252  0.00  0.00    +0.105 C 
ATOM     13  N   UNL     1       1.302  -1.498   0.092  0.00  0.00    -0.336 N 
ATOM     14  H   UNL     1       0.647  -1.948   0.648  0.00  0.00    +0.147 HD
ENDROOT
BRANCH  12  15
ATOM     15  C   UNL     1      -0.362   0.269  -0.233  0.00  0.00    -0.015 A 
ATOM     16  C   UNL     1      -1.086   0.275  -1.411  0.00  0.00    +0.006 A 
ATOM     17  C   UNL     1      -2.431   0.594  -1.395  0.00  0.00    +0.000 A 
ATOM     18  C   UNL     1      -3.054   0.898  -0.199  0.00  0.00    +0.001 A 
ATOM     19  C   UNL     1      -2.331   0.891   0.979  0.00  0.00    +0.013 A 
ATOM     20  C   UNL     1      -0.985   0.577   0.962  0.00  0.00    +0.060 A 
BRANCH  20  21
ATOM     21  C   UNL     1      -0.196   0.570   2.246  0.00  0.00    +0.418 C 
ATOM     22  F   UNL     1      -1.045   0.874   3.316  0.00  0.00    -0.166 F 
ATOM     23  F   UNL     1       0.365  -0.697   2.442  0.00  0.00    -0.166 F 
ATOM     24  F   UNL     1       0.823   1.525   2.172  0.00  0.00    -0.166 F 
ENDBRANCH  20  21
ENDBRANCH  12  15
BRANCH   1  25
ATOM     25  S   UNL     1       5.937  -4.610  -1.983  0.00  0.00    +0.072 S 
ATOM     26  O   UNL     1       7.000  -3.688  -2.183  0.00  0.00    -0.150 OA
ATOM     27  O   UNL     1       6.066  -5.750  -1.145  0.00  0.00    -0.150 OA
BRANCH  25  28
ATOM     28  N   UNL     1       5.508  -5.170  -3.481  0.00  0.00    -0.216 N 
ATOM     29  H   UNL     1       5.365  -6.120  -3.622  0.00  0.00    +0.174 HD
BRANCH  28  36
ATOM     30  C   UNL     1       2.865  -4.534  -4.321  0.00  0.00    +0.046 C 
ATOM     31  C   UNL     1       4.079  -3.937  -4.985  0.00  0.00    -0.028 A 
ATOM     32  C   UNL     1       3.928  -3.049  -6.032  0.00  0.00    +0.005 A 
ATOM     33  C   UNL     1       5.041  -2.506  -6.646  0.00  0.00    +0.001 A 
ATOM     34  C   UNL     1       6.309  -2.845  -6.211  0.00  0.00    +0.005 A 
ATOM     35  C   UNL     1       6.468  -3.728  -5.162  0.00  0.00    -0.028 A 
ATOM     36  C   UNL     1       5.351  -4.276  -4.543  0.00  0.00    +0.054 A 
ATOM     37  C   UNL     1       7.850  -4.098  -4.689  0.00  0.00    +0.046 C 
ENDBRANCH  28  36
ENDBRANCH  25  28
ENDBRANCH   1  25
TORSDOF 5
