REMARK  Name = ZINC59912727
REMARK  8 active torsions:
REMARK  status: ('A' for Active; 'I' for Inactive)
REMARK    1  A    between atoms: C_3  and  S_21
REMARK    2  A    between atoms: C_6  and  N_7
REMARK    3  A    between atoms: C_8  and  C_10
REMARK    4  A    between atoms: C_10  and  S_11
REMARK    5  A    between atoms: S_11  and  C_12
REMARK    6  A    between atoms: C_15  and  C_18
REMARK    7  A    between atoms: N_16  and  N_17
REMARK    8  A    between atoms: S_21  and  N_24
REMARK                            x       y       z     vdW  Elec       q    Type
REMARK                         _______ _______ _______ _____ _____    ______ ____
ROOT
ATOM      1  N   UNL     1      -1.199  -0.722   0.010  0.00  0.00    -0.285 N 
ATOM      2  C   UNL     1      -2.325  -0.156  -0.469  0.00  0.00    +0.227 C 
ATOM      3  O   UNL     1      -2.280   0.938  -0.990  0.00  0.00    -0.275 OA
ATOM      4  H   UNL     1      -1.221  -1.627   0.357  0.00  0.00    +0.155 HD
ENDROOT
BRANCH   1  10
ATOM      5  C   UNL     1      -0.013   1.374   0.193  0.00  0.00    +0.025 A 
ATOM      6  C   UNL     1       1.174   2.082   0.190  0.00  0.00    +0.030 A 
ATOM      7  C   UNL     1       2.374   1.421   0.002  0.00  0.00    +0.106 A 
ATOM      8  C   UNL     1       2.391   0.051  -0.183  0.00  0.00    +0.030 A 
ATOM      9  C   UNL     1       1.208  -0.663  -0.180  0.00  0.00    +0.025 A 
ATOM     10  C   UNL     1       0.001  -0.002   0.007  0.00  0.00    +0.034 A 
BRANCH   7  11
ATOM     11  S   UNL     1       3.885   2.327  -0.002  0.00  0.00    +0.061 S 
ATOM     12  O   UNL     1       4.821   1.553  -0.740  0.00  0.00    -0.153 OA
ATOM     13  O   UNL     1       3.556   3.664  -0.354  0.00  0.00    -0.153 OA
BRANCH  11  14
ATOM     14  N   UNL     1       4.434   2.370   1.560  0.00  0.00    -0.177 NA
ATOM     15  C   UNL     1       4.107   3.401   2.555  0.00  0.00    +0.109 C 
ATOM     16  C   UNL     1       4.862   3.043   3.852  0.00  0.00    +0.018 C 
ATOM     17  C   UNL     1       6.019   2.143   3.343  0.00  0.00    +0.018 C 
ATOM     18  C   UNL     1       5.328   1.377   2.184  0.00  0.00    +0.109 C 
ENDBRANCH  11  14
ENDBRANCH   7  11
ENDBRANCH   1  10
BRANCH   2  19
ATOM     19  C   UNL     1      -3.640  -0.884  -0.358  0.00  0.00    +0.173 C 
BRANCH  19  20
ATOM     20  S   UNL     1      -4.955   0.129  -1.088  0.00  0.00    -0.075 S 
BRANCH  20  21
ATOM     21  C   UNL     1      -6.408  -0.847  -0.882  0.00  0.00    +0.209 A 
ATOM     22  N   UNL     1      -6.481  -2.030  -0.318  0.00  0.00    -0.121 NA
ATOM     23  N   UNL     1      -7.696  -2.450  -0.339  0.00  0.00    -0.132 NA
ATOM     24  C   UNL     1      -8.464  -1.568  -0.914  0.00  0.00    +0.154 A 
ATOM     25  N   UNL     1      -7.673  -0.513  -1.275  0.00  0.00    -0.228 N 
BRANCH  25  26
ATOM     26  N   UNL     1      -8.065   0.636  -1.902  0.00  0.00    -0.295 N 
ATOM     27  H   UNL     1      -8.017   0.535  -2.905  0.00  0.00    +0.163 HD
ATOM     28  H   UNL     1      -8.992   0.908  -1.611  0.00  0.00    +0.163 HD
ENDBRANCH  25  26
BRANCH  24  29
ATOM     29  C   UNL     1      -9.950  -1.687  -1.133  0.00  0.00    +0.059 C 
ATOM     30  C   UNL     1     -10.672  -2.858  -0.465  0.00  0.00    +0.012 C 
ATOM     31  C   UNL     1     -10.448  -2.861  -1.978  0.00  0.00    +0.012 C 
ENDBRANCH  24  29
ENDBRANCH  20  21
ENDBRANCH  19  20
ENDBRANCH   2  19
TORSDOF 8
