REMARK  Name = ZINC13495251
REMARK  11 active torsions:
REMARK  status: ('A' for Active; 'I' for Inactive)
REMARK    1  A    between atoms: C_1  and  C_2
REMARK    2  A    between atoms: C_2  and  C_3
REMARK    3  A    between atoms: C_3  and  C_5
REMARK    4  A    between atoms: C_3  and  N_16
REMARK    5  A    between atoms: N_9  and  C_10
REMARK    6  A    between atoms: N_16  and  C_17
REMARK    7  A    between atoms: N_16  and  C_27
REMARK    8  A    between atoms: C_17  and  C_18
REMARK    9  A    between atoms: C_27  and  C_28
REMARK   10  A    between atoms: C_32  and  C_41
REMARK   11  A    between atoms: C_34  and  C_40
REMARK                            x       y       z     vdW  Elec       q    Type
REMARK                         _______ _______ _______ _____ _____    ______ ____
ROOT
ATOM      1  N   UNL     1      -0.010   0.039   2.122  0.00  0.00    -0.284 NA
ENDROOT
BRANCH   1   2
ATOM      2  C   UNL     1       0.990  -0.573   1.237  0.00  0.00    +0.127 C 
BRANCH   2   3
ATOM      3  C   UNL     1       0.678  -0.220  -0.195  0.00  0.00    +0.169 A 
ATOM      4  N   UNL     1       0.389   0.970  -0.662  0.00  0.00    -0.112 NA
ATOM      5  N   UNL     1       0.186   0.861  -1.930  0.00  0.00    -0.023 NA
ATOM      6  N   UNL     1       0.338  -0.368  -2.283  0.00  0.00    -0.044 NA
ATOM      7  N   UNL     1       0.647  -1.065  -1.242  0.00  0.00    -0.225 N 
BRANCH   7   8
ATOM      8  C   UNL     1       0.912  -2.505  -1.206  0.00  0.00    +0.111 C 
ATOM      9  C   UNL     1       2.099  -2.828  -2.115  0.00  0.00    +0.027 C 
ATOM     10  C   UNL     1       2.375  -4.333  -2.078  0.00  0.00    +0.002 C 
ATOM     11  C   UNL     1       1.139  -5.090  -2.566  0.00  0.00    +0.000 C 
ATOM     12  C   UNL     1      -0.049  -4.767  -1.657  0.00  0.00    +0.002 C 
ATOM     13  C   UNL     1      -0.325  -3.263  -1.694  0.00  0.00    +0.027 C 
ENDBRANCH   7   8
ENDBRANCH   2   3
BRANCH   2  15
ATOM     14  C   UNL     1       2.731  -0.474   3.027  0.00  0.00    +0.006 C 
ATOM     15  C   UNL     1       2.381  -0.048   1.600  0.00  0.00    +0.023 C 
ENDBRANCH   2  15
ENDBRANCH   1   2
BRANCH   1  16
ATOM     16  C   UNL     1      -1.321  -0.604   1.958  0.00  0.00    +0.120 C 
BRANCH  16  17
ATOM     17  C   UNL     1      -1.316  -1.940   2.655  0.00  0.00    -0.030 A 
ATOM     18  C   UNL     1      -0.871  -3.065   1.986  0.00  0.00    +0.009 A 
ATOM     19  C   UNL     1      -0.864  -4.293   2.622  0.00  0.00    +0.050 A 
ATOM     20  C   UNL     1      -1.303  -4.398   3.931  0.00  0.00    +0.166 A 
ATOM     21  C   UNL     1      -1.751  -3.265   4.605  0.00  0.00    +0.167 A 
ATOM     22  C   UNL     1      -1.750  -2.037   3.964  0.00  0.00    +0.054 A 
ATOM     23  O   UNL     1      -2.125  -3.627   5.867  0.00  0.00    -0.453 OA
ATOM     24  C   UNL     1      -2.286  -5.057   5.825  0.00  0.00    +0.466 C 
ATOM     25  O   UNL     1      -1.397  -5.470   4.771  0.00  0.00    -0.453 OA
ENDBRANCH  16  17
ENDBRANCH   1  16
BRANCH   1  26
ATOM     26  C   UNL     1      -0.102   1.487   1.891  0.00  0.00    +0.126 C 
BRANCH  26  27
ATOM     27  C   UNL     1      -0.793   2.139   3.061  0.00  0.00    +0.031 A 
ATOM     28  C   UNL     1      -0.059   2.644   4.083  0.00  0.00    +0.020 A 
ATOM     29  C   UNL     1      -0.760   3.272   5.204  0.00  0.00    -0.001 A 
ATOM     30  C   UNL     1      -0.058   3.810   6.287  0.00  0.00    +0.013 A 
ATOM     31  C   UNL     1      -0.742   4.390   7.318  0.00  0.00    -0.050 A 
ATOM     32  C   UNL     1      -2.129   4.449   7.300  0.00  0.00    +0.008 A 
ATOM     33  C   UNL     1      -2.842   3.924   6.244  0.00  0.00    -0.026 A 
ATOM     34  C   UNL     1      -2.167   3.330   5.182  0.00  0.00    +0.052 A 
ATOM     35  N   UNL     1      -2.854   2.799   4.112  0.00  0.00    -0.322 N 
ATOM     36  H   UNL     1      -3.823   2.840   4.099  0.00  0.00    +0.169 HD
ATOM     37  C   UNL     1      -2.201   2.229   3.085  0.00  0.00    +0.254 A 
ATOM     38  O   UNL     1      -2.841   1.773   2.153  0.00  0.00    -0.268 OA
ATOM     39  C   UNL     1      -4.347   3.994   6.238  0.00  0.00    +0.046 C 
ATOM     40  C   UNL     1       0.015   4.970   8.485  0.00  0.00    +0.044 C 
ENDBRANCH  26  27
ENDBRANCH   1  26
TORSDOF 8
