REMARK  Name = ZINC15933602
REMARK  11 active torsions:
REMARK  status: ('A' for Active; 'I' for Inactive)
REMARK    1  A    between atoms: C_1  and  C_2
REMARK    2  A    between atoms: C_8  and  N_10
REMARK    3  A    between atoms: C_11  and  C_13
REMARK    4  A    between atoms: C_13  and  C_15
REMARK    5  A    between atoms: C_13  and  O_16
REMARK    6  A    between atoms: O_16  and  C_17
REMARK    7  A    between atoms: C_17  and  C_19
REMARK    8  A    between atoms: C_22  and  O_25
REMARK    9  A    between atoms: O_25  and  C_26
REMARK   10  A    between atoms: C_26  and  C_27
REMARK   11  A    between atoms: C_26  and  C_28
REMARK                            x       y       z     vdW  Elec       q    Type
REMARK                         _______ _______ _______ _____ _____    ______ ____
ROOT
ATOM      1  C   UNL     1       2.400   0.967  -0.188  0.00  0.00    +0.259 C 
ATOM      2  C   UNL     1       2.421   0.375   1.223  0.00  0.00    +0.062 C 
ENDROOT
BRANCH   1   4
ATOM      3  N   UNL     1      -0.060   0.944  -0.444  0.00  0.00    -0.309 N 
ATOM      4  C   UNL     1       1.082   1.659  -0.422  0.00  0.00    +0.254 C 
ATOM      5  O   UNL     1       1.050   2.859  -0.592  0.00  0.00    -0.272 OA
ATOM      6  H   UNL     1      -0.034  -0.016  -0.309  0.00  0.00    +0.149 HD
BRANCH   3  13
ATOM      7  C   UNL     1      -2.242   0.636   1.436  0.00  0.00    +0.009 C 
ATOM      8  C   UNL     1      -2.472   0.785  -0.069  0.00  0.00    +0.006 C 
ATOM      9  C   UNL     1      -3.809   1.487  -0.314  0.00  0.00    +0.005 C 
ATOM     10  C   UNL     1      -4.039   1.636  -1.819  0.00  0.00    +0.000 C 
ATOM     11  C   UNL     1      -2.908   2.467  -2.428  0.00  0.00    +0.002 C 
ATOM     12  C   UNL     1      -1.571   1.765  -2.183  0.00  0.00    +0.022 C 
ATOM     13  C   UNL     1      -1.341   1.616  -0.678  0.00  0.00    +0.076 C 
ENDBRANCH   3  13
ENDBRANCH   1   4
BRANCH   1  14
ATOM     14  O   UNL     1       3.482   1.925  -0.327  0.00  0.00    -0.449 OA
BRANCH  14  15
ATOM     15  C   UNL     1       4.666   1.452  -0.764  0.00  0.00    +0.340 C 
ATOM     16  O   UNL     1       4.790   0.271  -1.022  0.00  0.00    -0.245 OA
BRANCH  15  17
ATOM     17  C   UNL     1       5.809   2.368  -0.930  0.00  0.00    +0.059 A 
ATOM     18  C   UNL     1       5.667   3.728  -0.639  0.00  0.00    +0.018 A 
ATOM     19  C   UNL     1       6.739   4.578  -0.790  0.00  0.00    +0.046 A 
ATOM     20  C   UNL     1       7.959   4.089  -1.241  0.00  0.00    +0.121 A 
ATOM     21  C   UNL     1       8.104   2.738  -1.536  0.00  0.00    +0.046 A 
ATOM     22  C   UNL     1       7.038   1.880  -1.383  0.00  0.00    +0.018 A 
BRANCH  20  23
ATOM     23  O   UNL     1       9.012   4.931  -1.393  0.00  0.00    -0.489 OA
BRANCH  23  24
ATOM     24  C   UNL     1      10.200   4.388  -1.972  0.00  0.00    +0.167 C 
ATOM     25  C   UNL     1      11.008   5.510  -2.626  0.00  0.00    +0.051 C 
ATOM     26  C   UNL     1      11.041   3.722  -0.881  0.00  0.00    +0.051 C 
ENDBRANCH  23  24
ENDBRANCH  20  23
ENDBRANCH  15  17
ENDBRANCH  14  15
ENDBRANCH   1  14
TORSDOF 7
