REMARK  Name = ZINC43737428
REMARK  12 active torsions:
REMARK  status: ('A' for Active; 'I' for Inactive)
REMARK    1  A    between atoms: C_1  and  C_2
REMARK    2  A    between atoms: C_5  and  C_8
REMARK    3  A    between atoms: C_8  and  C_10
REMARK    4  A    between atoms: C_8  and  O_42
REMARK    5  A    between atoms: C_10  and  N_11
REMARK    6  A    between atoms: C_12  and  C_14
REMARK    7  A    between atoms: C_14  and  O_15
REMARK    8  A    between atoms: O_15  and  N_16
REMARK    9  A    between atoms: C_20  and  C_41
REMARK   10  A    between atoms: C_25  and  C_40
REMARK   11  A    between atoms: C_36  and  C_37
REMARK   12  A    between atoms: C_36  and  O_39
REMARK                            x       y       z     vdW  Elec       q    Type
REMARK                         _______ _______ _______ _____ _____    ______ ____
ROOT
ATOM      1  N   UNL     1       4.220 -10.186   0.617  0.00  0.00    -0.089 NA
ATOM      2  C   UNL     1       5.383 -10.721   0.824  0.00  0.00    +0.080 C 
ATOM      3  C   UNL     1       5.542 -12.218   0.765  0.00  0.00    +0.059 C 
ATOM      4  C   UNL     1       7.015 -12.592   0.609  0.00  0.00    +0.017 C 
ATOM      5  C   UNL     1       7.862 -11.866   1.661  0.00  0.00    -0.007 C 
ATOM      6  C   UNL     1       9.323 -12.258   1.499  0.00  0.00    +0.002 C 
ATOM      7  C   UNL     1      10.066 -12.412   2.810  0.00  0.00    +0.005 C 
ATOM      8  C   UNL     1      11.502 -12.926   2.586  0.00  0.00    +0.011 C 
ATOM      9  C   UNL     1      12.218 -11.957   1.675  0.00  0.00    +0.011 C 
ATOM     10  C   UNL     1      11.476 -11.895   0.326  0.00  0.00    +0.002 C 
ATOM     11  C   UNL     1      10.052 -11.422   0.457  0.00  0.00    -0.003 C 
ATOM     12  C   UNL     1       9.931  -9.921   0.595  0.00  0.00    +0.008 C 
ATOM     13  C   UNL     1       8.918  -9.511   1.662  0.00  0.00    +0.031 C 
ATOM     14  C   UNL     1       7.699 -10.379   1.466  0.00  0.00    -0.062 C 
ATOM     15  C   UNL     1       6.541  -9.861   1.098  0.00  0.00    +0.026 C 
ATOM     16  C   UNL     1      12.436 -11.045  -0.516  0.00  0.00    +0.008 C 
ATOM     17  C   UNL     1      13.824 -11.632  -0.128  0.00  0.00    +0.049 C 
ATOM     18  C   UNL     1      13.626 -12.374   1.218  0.00  0.00    +0.132 C 
ATOM     19  C   UNL     1      12.351 -10.603   2.366  0.00  0.00    +0.015 C 
ATOM     20  C   UNL     1       7.348 -12.238   3.054  0.00  0.00    +0.016 C 
ENDROOT
BRANCH  18  21
ATOM     21  C   UNL     1      14.624 -11.933   2.202  0.00  0.00    -0.070 C 
ATOM     22  C   UNL     1      15.421 -11.581   2.989  0.00  0.00    +0.007 C 
ENDBRANCH  18  21
BRANCH  18  23
ATOM     23  O   UNL     1      13.685 -13.785   1.030  0.00  0.00    -0.376 OA
ATOM     24  H   UNL     1      14.550 -14.108   0.741  0.00  0.00    +0.211 HD
ENDBRANCH  18  23
BRANCH   1  25
ATOM     25  O   UNL     1       4.070  -8.779   0.656  0.00  0.00    -0.384 OA
BRANCH  25  26
ATOM     26  C   UNL     1       2.736  -8.329   0.411  0.00  0.00    +0.358 C 
BRANCH  26  28
ATOM     27  N   UNL     1       1.530  -6.174   0.276  0.00  0.00    -0.310 N 
ATOM     28  C   UNL     1       2.693  -6.824   0.477  0.00  0.00    +0.253 C 
ATOM     29  O   UNL     1       3.705  -6.198   0.711  0.00  0.00    -0.272 OA
ATOM     30  H   UNL     1       0.720  -6.674   0.089  0.00  0.00    +0.149 HD
BRANCH  27  31
ATOM     31  C   UNL     1       1.488  -4.711   0.340  0.00  0.00    +0.140 C 
BRANCH  31  32
ATOM     32  C   UNL     1       0.059  -4.229   0.077  0.00  0.00    +0.163 C 
BRANCH  32  37
ATOM     33  C   UNL     1      -0.018   1.503   0.010  0.00  0.00    +0.065 C 
ATOM     34  C   UNL     1       0.002  -0.004   0.002  0.00  0.00    +0.038 A 
ATOM     35  C   UNL     1       0.005  -0.681  -1.203  0.00  0.00    +0.023 A 
ATOM     36  C   UNL     1       0.024  -2.067  -1.200  0.00  0.00    +0.009 A 
ATOM     37  C   UNL     1       0.039  -2.724   0.021  0.00  0.00    +0.000 A 
ATOM     38  C   UNL     1       0.035  -1.980   1.186  0.00  0.00    +0.117 A 
ATOM     39  N   UNL     1       0.022  -0.662   1.145  0.00  0.00    -0.260 NA
ENDBRANCH  32  37
BRANCH  32  40
ATOM     40  O   UNL     1      -0.796  -4.678   1.131  0.00  0.00    -0.386 OA
ATOM     41  H   UNL     1      -0.542  -4.356   2.007  0.00  0.00    +0.210 HD
ENDBRANCH  32  40
ENDBRANCH  31  32
ENDBRANCH  27  31
ENDBRANCH  26  28
ENDBRANCH  25  26
ENDBRANCH   1  25
TORSDOF 9
