REMARK  Name = ZINC64202536
REMARK  7 active torsions:
REMARK  status: ('A' for Active; 'I' for Inactive)
REMARK    1  A    between atoms: C_7  and  C_10
REMARK    2  A    between atoms: C_10  and  C_12
REMARK    3  A    between atoms: C_10  and  C_29
REMARK    4  A    between atoms: C_12  and  N_13
REMARK    5  A    between atoms: C_14  and  C_16
REMARK    6  A    between atoms: C_16  and  O_17
REMARK    7  A    between atoms: O_17  and  C_18
REMARK                            x       y       z     vdW  Elec       q    Type
REMARK                         _______ _______ _______ _____ _____    ______ ____
ROOT
ATOM      1  N   UNL     1      -0.070  -5.102  -1.340  0.00  0.00    -0.312 N 
ATOM      2  C   UNL     1      -0.058  -5.974  -2.367  0.00  0.00    +0.251 C 
ATOM      3  O   UNL     1       0.774  -5.869  -3.243  0.00  0.00    -0.272 OA
ATOM      4  H   UNL     1      -0.735  -5.186  -0.639  0.00  0.00    +0.149 HD
ENDROOT
BRANCH   1   5
ATOM      5  C   UNL     1       0.923  -4.026  -1.281  0.00  0.00    +0.117 C 
BRANCH   5   6
ATOM      6  C   UNL     1       0.691  -3.186  -0.024  0.00  0.00    +0.071 C 
BRANCH   6  13
ATOM      7  C   UNL     1      -0.016   1.348   0.009  0.00  0.00    +0.001 A 
ATOM      8  C   UNL     1       1.166   2.101   0.002  0.00  0.00    +0.002 A 
ATOM      9  C   UNL     1       2.391   1.535  -0.013  0.00  0.00    +0.026 A 
ATOM     10  C   UNL     1       2.529   0.120  -0.022  0.00  0.00    +0.043 A 
ATOM     11  N   UNL     1       3.587  -0.654  -0.037  0.00  0.00    -0.380 N 
ATOM     12  C   UNL     1       3.143  -2.053  -0.041  0.00  0.00    +0.145 C 
ATOM     13  C   UNL     1       1.631  -2.008  -0.025  0.00  0.00    -0.032 C 
ATOM     14  C   UNL     1       1.295  -0.698  -0.014  0.00  0.00    -0.000 A 
ATOM     15  C   UNL     1       0.002  -0.004   0.002  0.00  0.00    +0.010 A 
ATOM     16  H   UNL     1       4.509  -0.353  -0.045  0.00  0.00    +0.160 HD
ENDBRANCH   6  13
BRANCH   6  17
ATOM     17  C   UNL     1       0.944  -4.029   1.199  0.00  0.00    -0.002 A 
ATOM     18  C   UNL     1       0.093  -4.353   2.203  0.00  0.00    +0.012 A 
ATOM     19  C   UNL     1       0.548  -5.151   3.236  0.00  0.00    +0.008 A 
ATOM     20  C   UNL     1       1.832  -5.586   3.214  0.00  0.00    +0.045 A 
ATOM     21  S   UNL     1       2.439  -4.867   1.697  0.00  0.00    -0.101 S 
ENDBRANCH   6  17
ENDBRANCH   5   6
ENDBRANCH   1   5
BRANCH   2  22
ATOM     22  C   UNL     1      -1.080  -7.080  -2.428  0.00  0.00    +0.324 C 
BRANCH  22  23
ATOM     23  O   UNL     1      -0.862  -7.866  -3.602  0.00  0.00    -0.483 OA
BRANCH  23  24
ATOM     24  C   UNL     1      -1.704  -8.913  -3.809  0.00  0.00    +0.122 A 
ATOM     25  C   UNL     1      -2.722  -9.174  -2.902  0.00  0.00    +0.047 A 
ATOM     26  C   UNL     1      -3.578 -10.237  -3.111  0.00  0.00    +0.027 A 
ATOM     27  C   UNL     1      -3.420 -11.045  -4.229  0.00  0.00    +0.037 A 
ATOM     28  C   UNL     1      -2.401 -10.783  -5.136  0.00  0.00    -0.022 A 
ATOM     29  C   UNL     1      -1.549  -9.716  -4.929  0.00  0.00    +0.051 A 
ATOM     30  C   UNL     1      -2.233 -11.661  -6.349  0.00  0.00    +0.046 C 
ATOM     31  C   UNL     1      -2.615 -13.099  -5.996  0.00  0.00    +0.101 C 
ATOM     32  C   UNL     1      -3.942 -13.117  -5.286  0.00  0.00    +0.218 C 
ATOM     33  O   UNL     1      -4.709 -14.037  -5.473  0.00  0.00    -0.275 OA
ATOM     34  N   UNL     1      -4.285 -12.124  -4.445  0.00  0.00    -0.285 N 
ATOM     35  H   UNL     1      -5.139 -12.156  -3.985  0.00  0.00    +0.155 HD
ENDBRANCH  23  24
ENDBRANCH  22  23
ENDBRANCH   2  22
TORSDOF 7
