REMARK  Name = ZINC40960022
REMARK  11 active torsions:
REMARK  status: ('A' for Active; 'I' for Inactive)
REMARK    1  A    between atoms: C_1  and  C_2
REMARK    2  A    between atoms: C_2  and  C_3
REMARK    3  A    between atoms: C_3  and  C_4
REMARK    4  A    between atoms: C_7  and  O_11
REMARK    5  A    between atoms: O_11  and  C_12
REMARK    6  A    between atoms: C_12  and  C_13
REMARK    7  A    between atoms: N_15  and  N_16
REMARK    8  A    between atoms: C_17  and  C_18
REMARK    9  A    between atoms: C_20  and  O_26
REMARK   10  A    between atoms: C_21  and  O_25
REMARK   11  A    between atoms: O_26  and  C_27
REMARK                            x       y       z     vdW  Elec       q    Type
REMARK                         _______ _______ _______ _____ _____    ______ ____
ROOT
ATOM      1  C   UNL     1      -0.082  -8.301   1.745  0.00  0.00    +0.270 C 
ATOM      2  O   UNL     1       0.892  -8.749   1.178  0.00  0.00    -0.270 OA
ATOM      3  N   UNL     1      -0.994  -9.137   2.280  0.00  0.00    -0.204 N 
ATOM      4  H   UNL     1      -1.773  -8.779   2.734  0.00  0.00    +0.177 HD
ENDROOT
BRANCH   3   5
ATOM      5  N   UNL     1      -0.817 -10.523   2.181  0.00  0.00    -0.188 NA
ATOM      6  C   UNL     1      -1.695 -11.328   2.697  0.00  0.00    +0.138 C 
BRANCH   6   7
ATOM      7  C   UNL     1      -1.508 -12.787   2.592  0.00  0.00    -0.001 A 
ATOM      8  C   UNL     1      -2.455 -13.655   3.142  0.00  0.00    +0.059 A 
ATOM      9  C   UNL     1      -2.276 -15.022   3.042  0.00  0.00    +0.163 A 
ATOM     10  C   UNL     1      -1.153 -15.532   2.394  0.00  0.00    +0.173 A 
ATOM     11  C   UNL     1      -0.211 -14.670   1.848  0.00  0.00    +0.063 A 
ATOM     12  C   UNL     1      -0.387 -13.304   1.939  0.00  0.00    +0.028 A 
ATOM     13 BR   UNL     1       1.311 -15.369   0.971  0.00  0.00    -0.046 Br
BRANCH  10  14
ATOM     14  O   UNL     1      -0.978 -16.877   2.297  0.00  0.00    -0.503 OA
ATOM     15  H   UNL     1      -1.369 -17.268   1.504  0.00  0.00    +0.292 HD
ENDBRANCH  10  14
BRANCH   9  16
ATOM     16  O   UNL     1      -3.196 -15.869   3.575  0.00  0.00    -0.491 OA
ATOM     17  C   UNL     1      -4.323 -15.278   4.225  0.00  0.00    +0.277 C 
ENDBRANCH   9  16
ENDBRANCH   6   7
ENDBRANCH   3   5
BRANCH   1  18
ATOM     18  C   UNL     1      -0.273  -6.810   1.852  0.00  0.00    +0.326 C 
BRANCH  18  19
ATOM     19  O   UNL     1       0.818  -6.144   1.213  0.00  0.00    -0.482 OA
BRANCH  19  23
ATOM     20  C   UNL     1       0.762  -2.018   1.233  0.00  0.00    -0.046 A 
ATOM     21  C   UNL     1      -0.263  -2.725   1.833  0.00  0.00    +0.007 A 
ATOM     22  C   UNL     1      -0.247  -4.106   1.828  0.00  0.00    +0.047 A 
ATOM     23  C   UNL     1       0.799  -4.784   1.219  0.00  0.00    +0.135 A 
ATOM     24  C   UNL     1       1.827  -4.072   0.617  0.00  0.00    +0.060 A 
ATOM     25  C   UNL     1       1.803  -2.690   0.621  0.00  0.00    +0.022 A 
ATOM     26 BR   UNL     1       3.256  -4.992  -0.214  0.00  0.00    -0.047 Br
BRANCH  20  27
ATOM     27  C   UNL     1       0.742  -0.511   1.242  0.00  0.00    +0.035 C 
BRANCH  27  29
ATOM     28  C   UNL     1      -0.019   1.526   0.010  0.00  0.00    +0.004 C 
ATOM     29  C   UNL     1       0.002  -0.004   0.002  0.00  0.00    +0.001 C 
ENDBRANCH  27  29
ENDBRANCH  20  27
ENDBRANCH  19  23
ENDBRANCH  18  19
ENDBRANCH   1  18
TORSDOF 9
