REMARK  Name = ZINC57424393
REMARK  7 active torsions:
REMARK  status: ('A' for Active; 'I' for Inactive)
REMARK    1  A    between atoms: C_1  and  C_2
REMARK    2  A    between atoms: C_5  and  C_9
REMARK    3  A    between atoms: C_11  and  C_14
REMARK    4  A    between atoms: C_14  and  C_15
REMARK    5  A    between atoms: C_15  and  C_16
REMARK    6  A    between atoms: N_18  and  C_19
REMARK    7  A    between atoms: C_23  and  N_25
REMARK                            x       y       z     vdW  Elec       q    Type
REMARK                         _______ _______ _______ _____ _____    ______ ____
ROOT
ATOM      1  C   UNL     1      -1.331  -7.902   1.956  0.00  0.00    +0.105 C 
ENDROOT
BRANCH   1   2
ATOM      2  C   UNL     1      -1.314  -9.092   2.881  0.00  0.00    +0.218 C 
ATOM      3  O   UNL     1      -0.257  -9.559   3.249  0.00  0.00    -0.275 OA
ATOM      4  N   UNL     1      -2.474  -9.636   3.300  0.00  0.00    -0.285 N 
ATOM      5  H   UNL     1      -3.318  -9.223   3.061  0.00  0.00    +0.155 HD
BRANCH   4   6
ATOM      6  C   UNL     1      -2.460 -10.799   4.080  0.00  0.00    +0.036 A 
ATOM      7  C   UNL     1      -3.459 -11.751   3.927  0.00  0.00    +0.026 A 
ATOM      8  C   UNL     1      -3.443 -12.897   4.698  0.00  0.00    +0.042 A 
ATOM      9  C   UNL     1      -2.432 -13.097   5.623  0.00  0.00    +0.154 A 
ATOM     10  C   UNL     1      -1.435 -12.149   5.777  0.00  0.00    +0.163 A 
ATOM     11  C   UNL     1      -1.444 -11.004   5.004  0.00  0.00    +0.059 A 
ATOM     12  F   UNL     1      -2.419 -14.218   6.376  0.00  0.00    -0.203 F 
BRANCH  10  13
ATOM     13  N   UNL     1      -0.356 -12.364   6.767  0.00  0.00    +0.059 N 
ATOM     14  O   UNL     1       0.515 -11.536   6.902  0.00  0.00    -0.126 OA
ATOM     15  O   UNL     1      -0.345 -13.368   7.441  0.00  0.00    -0.126 OA
ENDBRANCH  10  13
ENDBRANCH   4   6
ENDBRANCH   1   2
BRANCH   1  16
ATOM     16  C   UNL     1       0.105  -7.484   1.637  0.00  0.00    +0.108 C 
BRANCH  16  19
ATOM     17  C   UNL     1       0.063  -4.246  -0.004  0.00  0.00    +0.202 A 
ATOM     18  N   UNL     1       0.076  -5.045   1.079  0.00  0.00    -0.191 NA
ATOM     19  C   UNL     1       0.088  -6.294   0.712  0.00  0.00    +0.228 A 
ATOM     20  O   UNL     1       0.083  -6.343  -0.627  0.00  0.00    -0.338 OA
ATOM     21  N   UNL     1       0.061  -4.997  -1.077  0.00  0.00    -0.056 NA
BRANCH  17  26
ATOM     22  C   UNL     1       0.001   1.514   0.064  0.00  0.00    +0.047 C 
ATOM     23  C   UNL     1       0.017   0.007   0.047  0.00  0.00    -0.015 A 
ATOM     24  C   UNL     1       0.014  -0.669  -1.160  0.00  0.00    +0.007 A 
ATOM     25  C   UNL     1       0.029  -2.049  -1.182  0.00  0.00    +0.012 A 
ATOM     26  C   UNL     1       0.047  -2.762   0.015  0.00  0.00    +0.025 A 
ATOM     27  C   UNL     1       0.050  -2.079   1.228  0.00  0.00    +0.050 A 
ATOM     28  C   UNL     1       0.041  -0.696   1.240  0.00  0.00    +0.127 A 
ATOM     29  F   UNL     1       0.049  -0.031   2.415  0.00  0.00    -0.205 F 
ENDBRANCH  17  26
ENDBRANCH  16  19
ENDBRANCH   1  16
TORSDOF 6
