REMARK  Name = ZINC12249876
REMARK  10 active torsions:
REMARK  status: ('A' for Active; 'I' for Inactive)
REMARK    1  A    between atoms: N_13  and  C_14
REMARK    2  A    between atoms: C_14  and  C_15
REMARK    3  A    between atoms: C_15  and  C_17
REMARK    4  A    between atoms: C_15  and  O_32
REMARK    5  A    between atoms: C_17  and  N_18
REMARK    6  A    between atoms: N_18  and  C_19
REMARK    7  A    between atoms: C_19  and  C_20
REMARK    8  A    between atoms: C_20  and  C_21
REMARK    9  A    between atoms: C_21  and  O_22
REMARK   10  A    between atoms: N_25  and  C_26
REMARK                            x       y       z     vdW  Elec       q    Type
REMARK                         _______ _______ _______ _____ _____    ______ ____
ROOT
ATOM      1  C   UNL     1       5.291  -0.356   0.419  0.00  0.00    +0.151 C 
ENDROOT
BRANCH   1   2
ATOM      2  O   UNL     1       4.298  -1.279  -0.031  0.00  0.00    -0.388 OA
ATOM      3  H   UNL     1       3.871  -1.775   0.681  0.00  0.00    +0.210 HD
ENDBRANCH   1   2
BRANCH   1   4
ATOM      4  C   UNL     1       6.392  -1.113   1.164  0.00  0.00    +0.155 C 
BRANCH   4  17
ATOM      5  C   UNL     1       6.463  -5.946  -0.890  0.00  0.00    +0.001 A 
ATOM      6  C   UNL     1       5.578  -5.424   0.041  0.00  0.00    +0.002 A 
ATOM      7  C   UNL     1       5.705  -4.123   0.476  0.00  0.00    +0.026 A 
ATOM      8  C   UNL     1       6.728  -3.319  -0.018  0.00  0.00    +0.050 A 
ATOM      9  C   UNL     1       7.620  -3.848  -0.962  0.00  0.00    +0.008 A 
ATOM     10  C   UNL     1       7.478  -5.164  -1.397  0.00  0.00    +0.010 A 
ATOM     11  C   UNL     1       8.577  -2.772  -1.282  0.00  0.00    +0.008 A 
ATOM     12  C   UNL     1       9.678  -2.691  -2.132  0.00  0.00    +0.010 A 
ATOM     13  C   UNL     1      10.392  -1.515  -2.215  0.00  0.00    +0.001 A 
ATOM     14  C   UNL     1      10.018  -0.416  -1.457  0.00  0.00    +0.002 A 
ATOM     15  C   UNL     1       8.931  -0.483  -0.613  0.00  0.00    +0.026 A 
ATOM     16  C   UNL     1       8.197  -1.661  -0.515  0.00  0.00    +0.050 A 
ATOM     17  N   UNL     1       7.086  -2.007   0.234  0.00  0.00    -0.337 N 
ENDBRANCH   4  17
ENDBRANCH   1   4
BRANCH   1  18
ATOM     18  C   UNL     1       4.649   0.667   1.359  0.00  0.00    +0.142 C 
BRANCH  18  19
ATOM     19  N   UNL     1       3.596   1.392   0.645  0.00  0.00    -0.283 N 
ATOM     20  C   UNL     1       2.331   0.926   0.654  0.00  0.00    +0.302 C 
ATOM     21  O   UNL     1       2.065  -0.097   1.255  0.00  0.00    -0.253 OA
ATOM     22  N   UNL     1       1.362   1.593  -0.002  0.00  0.00    -0.296 N 
ATOM     23  H   UNL     1       1.574   2.409  -0.482  0.00  0.00    +0.151 HD
BRANCH  22  24
ATOM     24  C   UNL     1      -0.013   1.086   0.008  0.00  0.00    +0.074 C 
ATOM     25  C   UNL     1      -0.729   1.579   1.267  0.00  0.00    +0.022 C 
ATOM     26  C   UNL     1      -2.164   1.050   1.278  0.00  0.00    +0.002 C 
ATOM     27  C   UNL     1      -2.904   1.556   0.038  0.00  0.00    +0.000 C 
ATOM     28  C   UNL     1      -2.188   1.063  -1.221  0.00  0.00    +0.002 C 
ATOM     29  C   UNL     1      -0.753   1.593  -1.232  0.00  0.00    +0.022 C 
ENDBRANCH  22  24
BRANCH  19  30
ATOM     30  C   UNL     1       3.916   2.624  -0.080  0.00  0.00    +0.111 C 
BRANCH  30  31
ATOM     31  C   UNL     1       3.753   3.824   0.857  0.00  0.00    +0.047 C 
BRANCH  31  32
ATOM     32  C   UNL     1       4.088   5.111   0.101  0.00  0.00    +0.157 C 
BRANCH  32  33
ATOM     33  O   UNL     1       3.935   6.230   0.975  0.00  0.00    -0.395 OA
ATOM     34  H   UNL     1       4.131   7.082   0.561  0.00  0.00    +0.209 HD
ENDBRANCH  32  33
ENDBRANCH  31  32
ENDBRANCH  30  31
ENDBRANCH  19  30
ENDBRANCH  18  19
ENDBRANCH   1  18
TORSDOF 10
