REMARK  Name = ZINC09542874
REMARK  8 active torsions:
REMARK  status: ('A' for Active; 'I' for Inactive)
REMARK    1  A    between atoms: C_1  and  C_2
REMARK    2  A    between atoms: C_5  and  C_8
REMARK    3  A    between atoms: C_10  and  C_23
REMARK    4  A    between atoms: C_12  and  C_15
REMARK    5  A    between atoms: C_20  and  O_21
REMARK    6  A    between atoms: C_26  and  C_29
REMARK    7  A    between atoms: C_29  and  O_31
REMARK    8  A    between atoms: O_31  and  C_32
REMARK                            x       y       z     vdW  Elec       q    Type
REMARK                         _______ _______ _______ _____ _____    ______ ____
ROOT
ATOM      1  C   UNL     1      -2.520   3.870   0.047  0.00  0.00    +0.040 C 
ATOM      2  N   UNL     1      -2.497   5.149   0.058  0.00  0.00    -0.299 NA
ATOM      3  C   UNL     1      -3.689   5.988   0.079  0.00  0.00    +0.081 C 
ATOM      4  C   UNL     1      -4.961   3.975   0.462  0.00  0.00    -0.028 C 
ATOM      5  C   UNL     1      -3.793   3.071   0.055  0.00  0.00    +0.044 C 
ATOM      6  N   UNL     1      -4.877   5.221  -0.325  0.00  0.00    +0.401 N 
ATOM      7  H   UNL     1      -4.809   4.989  -1.323  0.00  0.00    -0.081 HD
ATOM      8  H   UNL     1      -5.719   5.785  -0.161  0.00  0.00    -0.081 HD
ENDROOT
BRANCH   1  13
ATOM      9  C   UNL     1       2.489   1.041  -0.016  0.00  0.00    +0.044 C 
ATOM     10  C   UNL     1       1.177   1.782   0.000  0.00  0.00    -0.050 A 
ATOM     11  C   UNL     1      -0.013   1.076   0.008  0.00  0.00    +0.004 A 
ATOM     12  C   UNL     1      -1.217   1.748   0.017  0.00  0.00    +0.010 A 
ATOM     13  C   UNL     1      -1.234   3.144   0.031  0.00  0.00    -0.004 A 
ATOM     14  C   UNL     1      -0.030   3.850   0.023  0.00  0.00    +0.010 A 
ATOM     15  C   UNL     1       1.167   3.166   0.007  0.00  0.00    +0.004 A 
ENDBRANCH   1  13
BRANCH   4  16
ATOM     16  C   UNL     1      -6.267   3.281   0.170  0.00  0.00    -0.018 A 
ATOM     17  C   UNL     1      -6.930   3.528  -1.017  0.00  0.00    +0.020 A 
ATOM     18  C   UNL     1      -8.126   2.888  -1.288  0.00  0.00    +0.018 A 
ATOM     19  C   UNL     1      -8.666   2.008  -0.366  0.00  0.00    +0.019 A 
ATOM     20  C   UNL     1      -8.008   1.762   0.823  0.00  0.00    +0.047 A 
ATOM     21  C   UNL     1      -6.806   2.399   1.094  0.00  0.00    +0.119 A 
ATOM     22 BR   UNL     1      -9.028   3.221  -2.916  0.00  0.00    -0.050 Br
BRANCH  21  23
ATOM     23  O   UNL     1      -6.157   2.159   2.264  0.00  0.00    -0.507 OA
ATOM     24  H   UNL     1      -6.409   2.756   2.983  0.00  0.00    +0.292 HD
ENDBRANCH  21  23
ENDBRANCH   4  16
BRANCH   3  25
ATOM     25  C   UNL     1      -3.502   7.144  -0.870  0.00  0.00    -0.040 A 
ATOM     26  C   UNL     1      -4.603   7.714  -1.485  0.00  0.00    +0.004 A 
ATOM     27  C   UNL     1      -4.440   8.776  -2.350  0.00  0.00    +0.015 A 
ATOM     28  C   UNL     1      -3.159   9.267  -2.614  0.00  0.00    +0.059 A 
ATOM     29  C   UNL     1      -2.053   8.683  -1.994  0.00  0.00    +0.015 A 
ATOM     30  C   UNL     1      -2.231   7.626  -1.126  0.00  0.00    +0.004 A 
BRANCH  28  31
ATOM     31  C   UNL     1      -2.977  10.399  -3.545  0.00  0.00    +0.339 C 
ATOM     32  O   UNL     1      -1.862  10.824  -3.773  0.00  0.00    -0.245 OA
BRANCH  31  33
ATOM     33  O   UNL     1      -4.046  10.960  -4.142  0.00  0.00    -0.464 OA
ATOM     34  C   UNL     1      -3.791  12.069  -5.045  0.00  0.00    +0.280 C 
ENDBRANCH  31  33
ENDBRANCH  28  31
ENDBRANCH   3  25
TORSDOF 6
