REMARK  Name = ZINC39672158
REMARK  5 active torsions:
REMARK  status: ('A' for Active; 'I' for Inactive)
REMARK    1  A    between atoms: C_1  and  N_2
REMARK    2  A    between atoms: C_10  and  C_12
REMARK    3  A    between atoms: C_12  and  N_13
REMARK    4  A    between atoms: C_14  and  C_16
REMARK    5  A    between atoms: C_27  and  C_29
REMARK                            x       y       z     vdW  Elec       q    Type
REMARK                         _______ _______ _______ _____ _____    ______ ____
ROOT
ATOM      1  C   UNL     1       7.116  -2.792   2.394  0.00  0.00    +0.100 C 
ATOM      2  C   UNL     1       7.261  -1.295   2.750  0.00  0.00    +0.121 C 
ATOM      3  N   UNL     1       8.533  -1.210   3.505  0.00  0.00    -0.296 N 
ATOM      4  C   UNL     1       9.443  -2.144   2.799  0.00  0.00    +0.115 C 
ATOM      5  C   UNL     1       8.551  -3.345   2.426  0.00  0.00    -0.004 C 
ATOM      6  C   UNL     1       8.940  -3.885   1.054  0.00  0.00    -0.010 C 
ATOM      7  C   UNL     1      10.348  -4.482   1.125  0.00  0.00    -0.082 C 
ATOM      8  N   UNL     1      10.374  -5.560   2.122  0.00  0.00    +0.379 N 
ATOM      9  C   UNL     1      10.090  -5.015   3.455  0.00  0.00    -0.082 C 
ATOM     10  C   UNL     1       8.671  -4.440   3.482  0.00  0.00    -0.010 C 
ATOM     11  C   UNL     1       8.803  -0.455   4.588  0.00  0.00    +0.247 C 
ATOM     12  O   UNL     1       7.915   0.183   5.120  0.00  0.00    -0.270 OA
ATOM     13  H   UNL     1       9.678  -6.251   1.887  0.00  0.00    -0.086 HD
ATOM     14  H   UNL     1      11.286  -5.992   2.124  0.00  0.00    -0.086 HD
ENDROOT
BRANCH  11  15
ATOM     15  C   UNL     1      10.177  -0.404   5.130  0.00  0.00    +0.038 A 
ATOM     16  C   UNL     1      11.268  -0.672   4.301  0.00  0.00    +0.013 A 
ATOM     17  C   UNL     1      12.548  -0.622   4.812  0.00  0.00    +0.002 A 
ATOM     18  C   UNL     1      12.753  -0.308   6.144  0.00  0.00    +0.015 A 
ATOM     19  C   UNL     1      11.676  -0.042   6.972  0.00  0.00    +0.019 A 
ATOM     20  C   UNL     1      10.390  -0.082   6.471  0.00  0.00    +0.028 A 
ATOM     21 BR   UNL     1      11.968   0.385   8.791  0.00  0.00    -0.050 Br
ENDBRANCH  11  15
BRANCH   1  23
ATOM     22  N   UNL     1       5.763  -4.023   0.731  0.00  0.00    -0.311 N 
ATOM     23  C   UNL     1       6.524  -2.949   1.018  0.00  0.00    +0.218 C 
ATOM     24  O   UNL     1       6.732  -2.108   0.169  0.00  0.00    -0.275 OA
ATOM     25  H   UNL     1       5.597  -4.696   1.410  0.00  0.00    +0.149 HD
BRANCH  22  26
ATOM     26  C   UNL     1       5.187  -4.176  -0.608  0.00  0.00    +0.139 C 
BRANCH  26  36
ATOM     27  C   UNL     1       0.832  -9.019  -0.202  0.00  0.00    +0.129 C 
ATOM     28  N   UNL     1       2.160  -8.969  -0.819  0.00  0.00    -0.333 N 
ATOM     29  C   UNL     1       2.712 -10.148  -1.500  0.00  0.00    +0.105 C 
ATOM     30  C   UNL     1       4.174 -10.302  -1.058  0.00  0.00    +0.024 C 
ATOM     31  C   UNL     1       4.962  -9.078  -1.525  0.00  0.00    +0.038 C 
ATOM     32  C   UNL     1       4.270  -7.811  -1.099  0.00  0.00    -0.026 A 
ATOM     33  C   UNL     1       2.920  -7.795  -0.775  0.00  0.00    +0.033 A 
ATOM     34  C   UNL     1       2.308  -6.606  -0.395  0.00  0.00    +0.024 A 
ATOM     35  C   UNL     1       3.042  -5.437  -0.342  0.00  0.00    +0.007 A 
ATOM     36  C   UNL     1       4.386  -5.451  -0.667  0.00  0.00    -0.030 A 
ATOM     37  C   UNL     1       5.000  -6.636  -1.037  0.00  0.00    +0.010 A 
ENDBRANCH  26  36
ENDBRANCH  22  26
ENDBRANCH   1  23
TORSDOF 4
