REMARK  Name = ZINC35926804
REMARK  6 active torsions:
REMARK  status: ('A' for Active; 'I' for Inactive)
REMARK    1  A    between atoms: C_1  and  C_2
REMARK    2  A    between atoms: C_5  and  S_8
REMARK    3  A    between atoms: S_8  and  N_11
REMARK    4  A    between atoms: C_23  and  C_25
REMARK    5  A    between atoms: C_25  and  N_26
REMARK    6  A    between atoms: N_29  and  C_32
REMARK                            x       y       z     vdW  Elec       q    Type
REMARK                         _______ _______ _______ _____ _____    ______ ____
ROOT
ATOM      1  N   UNL     1       2.321  -2.726  -0.234  0.00  0.00    -0.174 NA
ATOM      2  C   UNL     1       3.110  -2.727   1.006  0.00  0.00    +0.128 C 
ATOM      3  C   UNL     1       3.701  -4.127   1.209  0.00  0.00    +0.125 C 
ATOM      4  N   UNL     1       4.347  -4.550  -0.041  0.00  0.00    -0.299 N 
ATOM      5  C   UNL     1       3.559  -4.549  -1.281  0.00  0.00    +0.125 C 
ATOM      6  C   UNL     1       2.966  -3.154  -1.484  0.00  0.00    +0.128 C 
ATOM      7  C   UNL     1       5.660  -4.938  -0.051  0.00  0.00    +0.198 A 
ATOM      8  N   UNL     1       6.334  -5.045   1.126  0.00  0.00    -0.295 N 
ATOM      9  H   UNL     1       5.885  -4.848   1.964  0.00  0.00    +0.172 HD
ATOM     10  C   UNL     1       7.629  -5.428   1.125  0.00  0.00    +0.253 A 
ATOM     11  O   UNL     1       8.248  -5.529   2.172  0.00  0.00    -0.268 OA
ATOM     12  C   UNL     1       8.250  -5.707  -0.105  0.00  0.00    +0.091 A 
ATOM     13  C   UNL     1       7.524  -5.582  -1.254  0.00  0.00    +0.034 A 
ATOM     14  N   UNL     1       6.248  -5.206  -1.200  0.00  0.00    -0.223 NA
ENDROOT
BRANCH   1  15
ATOM     15  S   UNL     1       0.733  -2.257  -0.223  0.00  0.00    +0.061 S 
ATOM     16  O   UNL     1       0.424  -1.835  -1.544  0.00  0.00    -0.153 OA
ATOM     17  O   UNL     1       0.568  -1.409   0.905  0.00  0.00    -0.153 OA
BRANCH  15  22
ATOM     18  C   UNL     1      -2.580  -7.189   0.829  0.00  0.00    +0.044 C 
ATOM     19  C   UNL     1      -1.752  -5.957   0.566  0.00  0.00    -0.050 A 
ATOM     20  C   UNL     1      -1.303  -5.188   1.623  0.00  0.00    +0.005 A 
ATOM     21  C   UNL     1      -0.544  -4.058   1.382  0.00  0.00    +0.029 A 
ATOM     22  C   UNL     1      -0.234  -3.697   0.084  0.00  0.00    +0.105 A 
ATOM     23  C   UNL     1      -0.682  -4.467  -0.973  0.00  0.00    +0.029 A 
ATOM     24  C   UNL     1      -1.438  -5.599  -0.731  0.00  0.00    +0.005 A 
ENDBRANCH  15  22
ENDBRANCH   1  15
BRANCH  13  25
ATOM     25  C   UNL     1       8.166  -5.875  -2.585  0.00  0.00    -0.022 C 
BRANCH  25  26
ATOM     26  N   UNL     1       7.517  -7.043  -3.195  0.00  0.00    +0.385 N 
ATOM     27  C   UNL     1       7.765  -8.228  -2.363  0.00  0.00    -0.059 C 
ATOM     28  C   UNL     1       6.994  -9.423  -2.936  0.00  0.00    +0.086 C 
ATOM     29  N   UNL     1       7.367  -9.584  -4.349  0.00  0.00    -0.331 N 
ATOM     30  C   UNL     1       7.305  -8.402  -5.222  0.00  0.00    +0.086 C 
ATOM     31  C   UNL     1       8.061  -7.256  -4.542  0.00  0.00    -0.059 C 
ATOM     32  H   UNL     1       6.523  -6.881  -3.257  0.00  0.00    -0.081 HD
BRANCH  29  33
ATOM     33  C   UNL     1       7.771 -10.827  -4.849  0.00  0.00    +0.065 A 
ATOM     34  C   UNL     1       6.831 -11.704  -5.375  0.00  0.00    +0.026 A 
ATOM     35  C   UNL     1       7.232 -12.930  -5.868  0.00  0.00    +0.002 A 
ATOM     36  C   UNL     1       8.568 -13.286  -5.839  0.00  0.00    +0.003 A 
ATOM     37  C   UNL     1       9.508 -12.416  -5.316  0.00  0.00    +0.040 A 
ATOM     38  C   UNL     1       9.114 -11.184  -4.826  0.00  0.00    +0.144 A 
ATOM     39  F   UNL     1      10.033 -10.332  -4.321  0.00  0.00    -0.204 F 
ENDBRANCH  29  33
ENDBRANCH  25  26
ENDBRANCH  13  25
TORSDOF 5
