REMARK  Name = ZINC63823018
REMARK  6 active torsions:
REMARK  status: ('A' for Active; 'I' for Inactive)
REMARK    1  A    between atoms: C_1  and  C_2
REMARK    2  A    between atoms: C_6  and  C_23
REMARK    3  A    between atoms: C_27  and  O_29
REMARK    4  A    between atoms: O_29  and  C_30
REMARK    5  A    between atoms: C_30  and  C_31
REMARK    6  A    between atoms: C_30  and  C_32
REMARK                            x       y       z     vdW  Elec       q    Type
REMARK                         _______ _______ _______ _____ _____    ______ ____
ROOT
ATOM      1  C   UNL     1      -0.747   0.883   0.056  0.00  0.00    +0.026 C 
ATOM      2  C   UNL     1      -0.813  -0.634  -0.125  0.00  0.00    +0.077 C 
ATOM      3  C   UNL     1      -2.267  -1.104  -0.286  0.00  0.00    +0.055 C 
ATOM      4  C   UNL     1      -2.789  -1.183  -1.710  0.00  0.00    +0.036 C 
ATOM      5  C   UNL     1      -4.214  -1.754  -1.628  0.00  0.00    +0.104 C 
ATOM      6  C   UNL     1      -4.335  -2.842  -0.603  0.00  0.00    +0.215 C 
ATOM      7  O   UNL     1      -5.377  -3.463  -0.566  0.00  0.00    -0.276 OA
ATOM      8  N   UNL     1      -3.375  -3.182   0.281  0.00  0.00    -0.295 N 
ATOM      9  C   UNL     1      -2.079  -2.576   0.183  0.00  0.00    +0.183 C 
ATOM     10  N   UNL     1      -1.202  -2.442   1.325  0.00  0.00    -0.228 N 
ATOM     11  N   UNL     1      -0.395  -1.338   1.121  0.00  0.00    -0.234 NA
ATOM     12  C   UNL     1      -1.174  -3.281   2.439  0.00  0.00    +0.157 A 
ATOM     13  C   UNL     1      -0.262  -3.029   3.482  0.00  0.00    +0.052 A 
ATOM     14  C   UNL     1      -0.236  -3.846   4.568  0.00  0.00    +0.075 A 
ATOM     15  C   UNL     1      -1.127  -4.937   4.631  0.00  0.00    +0.265 A 
ATOM     16  O   UNL     1      -1.119  -5.683   5.598  0.00  0.00    -0.266 OA
ATOM     17  N   UNL     1      -1.989  -5.152   3.616  0.00  0.00    -0.241 N 
ATOM     18  N   UNL     1      -2.002  -4.295   2.510  0.00  0.00    -0.155 NA
ATOM     19  H   UNL     1      -3.559  -3.825   0.983  0.00  0.00    +0.151 HD
ATOM     20  H   UNL     1       0.578  -1.603   1.077  0.00  0.00    +0.145 HD
ATOM     21  H   UNL     1      -2.604  -5.901   3.655  0.00  0.00    +0.192 HD
ENDROOT
BRANCH   4  22
ATOM     22  C   UNL     1      -2.818   0.192  -2.326  0.00  0.00    -0.040 A 
ATOM     23  C   UNL     1      -3.580   1.192  -1.749  0.00  0.00    +0.004 A 
ATOM     24  C   UNL     1      -3.609   2.454  -2.311  0.00  0.00    +0.004 A 
ATOM     25  C   UNL     1      -2.877   2.721  -3.452  0.00  0.00    +0.045 A 
ATOM     26  C   UNL     1      -2.111   1.720  -4.033  0.00  0.00    +0.121 A 
ATOM     27  C   UNL     1      -2.079   0.455  -3.463  0.00  0.00    +0.049 A 
BRANCH  26  28
ATOM     28  O   UNL     1      -1.390   1.980  -5.155  0.00  0.00    -0.489 OA
BRANCH  28  29
ATOM     29  C   UNL     1      -0.534   0.939  -5.631  0.00  0.00    +0.167 C 
ATOM     30  C   UNL     1      -1.340  -0.022  -6.507  0.00  0.00    +0.051 C 
ATOM     31  C   UNL     1       0.602   1.550  -6.454  0.00  0.00    +0.051 C 
ENDBRANCH  28  29
ENDBRANCH  26  28
ENDBRANCH   4  22
TORSDOF 3
