REMARK  Name = ZINC39688578
REMARK  7 active torsions:
REMARK  status: ('A' for Active; 'I' for Inactive)
REMARK    1  A    between atoms: C_1  and  C_2
REMARK    2  A    between atoms: C_4  and  C_9
REMARK    3  A    between atoms: C_13  and  C_22
REMARK    4  A    between atoms: N_24  and  C_25
REMARK    5  A    between atoms: C_25  and  C_27
REMARK    6  A    between atoms: C_25  and  C_28
REMARK    7  A    between atoms: C_28  and  C_29
REMARK                            x       y       z     vdW  Elec       q    Type
REMARK                         _______ _______ _______ _____ _____    ______ ____
ROOT
ATOM      1  C   UNL     1      -0.091  -2.750  -2.191  0.00  0.00    +0.247 C 
ATOM      2  O   UNL     1      -0.120  -2.088  -3.210  0.00  0.00    -0.270 OA
ATOM      3  N   UNL     1       0.106  -4.082  -2.258  0.00  0.00    -0.296 N 
ATOM      4  C   UNL     1       0.043  -5.066  -1.152  0.00  0.00    +0.121 C 
ATOM      5  C   UNL     1      -0.645  -6.304  -1.770  0.00  0.00    +0.100 C 
ATOM      6  C   UNL     1      -0.383  -6.185  -3.281  0.00  0.00    -0.004 C 
ATOM      7  C   UNL     1       0.428  -4.893  -3.456  0.00  0.00    +0.115 C 
ATOM      8  C   UNL     1      -1.702  -6.080  -4.040  0.00  0.00    -0.010 C 
ATOM      9  C   UNL     1      -1.418  -6.020  -5.543  0.00  0.00    -0.082 C 
ATOM     10  N   UNL     1      -0.690  -7.227  -5.953  0.00  0.00    +0.379 N 
ATOM     11  C   UNL     1       0.618  -7.273  -5.289  0.00  0.00    -0.082 C 
ATOM     12  C   UNL     1       0.420  -7.385  -3.775  0.00  0.00    -0.010 C 
ATOM     13  H   UNL     1      -1.224  -8.044  -5.698  0.00  0.00    -0.086 HD
ATOM     14  H   UNL     1      -0.557  -7.214  -6.954  0.00  0.00    -0.086 HD
ENDROOT
BRANCH   1  18
ATOM     15  C   UNL     1      -1.750   1.095   0.521  0.00  0.00    +0.045 C 
ATOM     16  C   UNL     1      -1.070  -0.246   0.431  0.00  0.00    -0.036 A 
ATOM     17  C   UNL     1      -0.903  -0.852  -0.797  0.00  0.00    +0.017 A 
ATOM     18  C   UNL     1      -0.273  -2.095  -0.879  0.00  0.00    +0.037 A 
ATOM     19  C   UNL     1       0.185  -2.717   0.284  0.00  0.00    +0.014 A 
ATOM     20  C   UNL     1       0.013  -2.101   1.506  0.00  0.00    +0.016 A 
ATOM     21  C   UNL     1      -0.608  -0.866   1.580  0.00  0.00    +0.021 A 
ATOM     22 BR   UNL     1      -0.834  -0.024   3.259  0.00  0.00    -0.050 Br
ENDBRANCH   1  18
BRANCH   5  23
ATOM     23  C   UNL     1      -0.033  -7.570  -1.227  0.00  0.00    +0.218 C 
ATOM     24  O   UNL     1       1.148  -7.603  -0.952  0.00  0.00    -0.275 OA
ATOM     25  N   UNL     1      -0.798  -8.664  -1.047  0.00  0.00    -0.312 N 
ATOM     26  H   UNL     1      -1.742  -8.638  -1.267  0.00  0.00    +0.149 HD
BRANCH  25  27
ATOM     27  C   UNL     1      -0.203  -9.895  -0.519  0.00  0.00    +0.074 C 
ATOM     28  C   UNL     1      -0.184  -9.837   1.010  0.00  0.00    +0.028 C 
BRANCH  27  29
ATOM     29  C   UNL     1      -1.033 -11.098  -0.973  0.00  0.00    +0.057 C 
BRANCH  29  30
ATOM     30  C   UNL     1      -0.951 -11.227  -2.473  0.00  0.00    -0.045 A 
ATOM     31  C   UNL     1      -1.872 -10.576  -3.273  0.00  0.00    +0.006 A 
ATOM     32  C   UNL     1      -1.797 -10.693  -4.648  0.00  0.00    +0.038 A 
ATOM     33  C   UNL     1      -0.801 -11.463  -5.224  0.00  0.00    +0.123 A 
ATOM     34  C   UNL     1       0.120 -12.114  -4.421  0.00  0.00    +0.038 A 
ATOM     35  C   UNL     1       0.047 -11.991  -3.047  0.00  0.00    +0.006 A 
ATOM     36  F   UNL     1      -0.728 -11.579  -6.568  0.00  0.00    -0.205 F 
ENDBRANCH  29  30
ENDBRANCH  27  29
ENDBRANCH  25  27
ENDBRANCH   5  23
TORSDOF 5
