REMARK  Name = ZINC05494540
REMARK  6 active torsions:
REMARK  status: ('A' for Active; 'I' for Inactive)
REMARK    1  A    between atoms: C_4  and  C_7
REMARK    2  A    between atoms: C_12  and  S_30
REMARK    3  A    between atoms: C_20  and  S_25
REMARK    4  A    between atoms: S_25  and  N_28
REMARK    5  A    between atoms: S_30  and  C_31
REMARK    6  A    between atoms: C_36  and  N_37
REMARK                            x       y       z     vdW  Elec       q    Type
REMARK                         _______ _______ _______ _____ _____    ______ ____
ROOT
ATOM      1  C   UNL     1      -1.423  -0.460  -0.244  0.00  0.00    +0.104 C 
ATOM      2  C   UNL     1       0.002  -0.004   0.002  0.00  0.00    +0.024 C 
ATOM      3  C   UNL     1       1.040  -0.329  -1.064  0.00  0.00    +0.022 C 
ATOM      4  C   UNL     1       2.040   0.856  -1.030  0.00  0.00    +0.070 C 
ATOM      5  C   UNL     1       1.474   1.876  -0.002  0.00  0.00    +0.101 C 
ATOM      6  C   UNL     1      -0.019   1.549   0.011  0.00  0.00    +0.045 C 
ATOM      7  C   UNL     1      -0.811   1.976   1.195  0.00  0.00    -0.020 A 
ATOM      8  C   UNL     1      -0.516   3.133   1.885  0.00  0.00    +0.034 A 
ATOM      9  C   UNL     1      -1.283   3.510   2.973  0.00  0.00    +0.105 A 
ATOM     10  C   UNL     1      -2.350   2.726   3.370  0.00  0.00    +0.030 A 
ATOM     11  C   UNL     1      -2.649   1.564   2.690  0.00  0.00    +0.025 A 
ATOM     12  C   UNL     1      -1.880   1.173   1.599  0.00  0.00    +0.031 A 
ATOM     13  N   UNL     1      -2.196  -0.019   0.937  0.00  0.00    -0.336 N 
ATOM     14 CL   UNL     1       2.200   1.612   1.627  0.00  0.00    -0.120 Cl
ATOM     15  H   UNL     1      -2.933  -0.564   1.257  0.00  0.00    +0.147 HD
ENDROOT
BRANCH   1  19
ATOM     16  C   UNL     1      -2.964   1.366  -3.786  0.00  0.00    +0.000 A 
ATOM     17  C   UNL     1      -2.495   0.066  -3.826  0.00  0.00    +0.000 A 
ATOM     18  C   UNL     1      -1.996  -0.525  -2.680  0.00  0.00    +0.005 A 
ATOM     19  C   UNL     1      -1.966   0.184  -1.494  0.00  0.00    -0.027 A 
ATOM     20  C   UNL     1      -2.440   1.482  -1.452  0.00  0.00    +0.005 A 
ATOM     21  C   UNL     1      -2.934   2.075  -2.599  0.00  0.00    +0.000 A 
ENDBRANCH   1  19
BRANCH   9  22
ATOM     22  S   UNL     1      -0.899   4.989   3.851  0.00  0.00    +0.056 S 
ATOM     23  O   UNL     1      -0.190   5.826   2.948  0.00  0.00    -0.153 OA
ATOM     24  O   UNL     1      -2.097   5.402   4.493  0.00  0.00    -0.153 OA
BRANCH  22  25
ATOM     25  N   UNL     1       0.165   4.582   5.053  0.00  0.00    -0.204 NA
ATOM     26  H   UNL     1       0.820   5.228   5.361  0.00  0.00    +0.144 HD
ATOM     27  H   UNL     1       0.134   3.697   5.449  0.00  0.00    +0.144 HD
ENDBRANCH  22  25
ENDBRANCH   9  22
BRANCH   4  28
ATOM     28  S   UNL     1       3.674   0.275  -0.496  0.00  0.00    -0.118 S 
BRANCH  28  29
ATOM     29  C   UNL     1       4.704   1.696  -0.655  0.00  0.00    +0.038 A 
ATOM     30  C   UNL     1       4.171   2.895  -1.115  0.00  0.00    +0.017 A 
ATOM     31  C   UNL     1       4.980   4.007  -1.233  0.00  0.00    +0.001 A 
ATOM     32  C   UNL     1       6.321   3.927  -0.905  0.00  0.00    +0.002 A 
ATOM     33  C   UNL     1       6.856   2.735  -0.453  0.00  0.00    +0.034 A 
ATOM     34  C   UNL     1       6.052   1.620  -0.327  0.00  0.00    +0.140 A 
BRANCH  34  35
ATOM     35  N   UNL     1       6.625   0.344   0.157  0.00  0.00    +0.058 N 
ATOM     36  O   UNL     1       7.807   0.278   0.445  0.00  0.00    -0.126 OA
ATOM     37  O   UNL     1       5.915  -0.640   0.268  0.00  0.00    -0.126 OA
ENDBRANCH  34  35
ENDBRANCH  28  29
ENDBRANCH   4  28
TORSDOF 6
