REMARK  Name = ZINC63622957
REMARK  11 active torsions:
REMARK  status: ('A' for Active; 'I' for Inactive)
REMARK    1  A    between atoms: C_1  and  C_2
REMARK    2  A    between atoms: C_2  and  C_3
REMARK    3  A    between atoms: C_6  and  C_9
REMARK    4  A    between atoms: C_9  and  C_11
REMARK    5  A    between atoms: C_11  and  O_12
REMARK    6  A    between atoms: O_12  and  C_13
REMARK    7  A    between atoms: C_13  and  C_15
REMARK    8  A    between atoms: C_15  and  C_17
REMARK    9  A    between atoms: C_15  and  N_27
REMARK   10  A    between atoms: C_17  and  C_18
REMARK   11  A    between atoms: C_28  and  C_30
REMARK                            x       y       z     vdW  Elec       q    Type
REMARK                         _______ _______ _______ _____ _____    ______ ____
ROOT
ATOM      1  C   UNL     1       3.471  -3.485   9.163  0.00  0.00    +0.186 C 
ENDROOT
BRANCH   1   2
ATOM      2  N   UNL     1       2.602  -3.818  10.294  0.00  0.00    -0.302 N 
ATOM      3  C   UNL     1       3.071  -4.576  11.304  0.00  0.00    +0.220 C 
ATOM      4  O   UNL     1       4.214  -4.983  11.277  0.00  0.00    -0.275 OA
ATOM      5  H   UNL     1       1.688  -3.492  10.316  0.00  0.00    +0.150 HD
BRANCH   3   6
ATOM      6  C   UNL     1       2.177  -4.918  12.468  0.00  0.00    +0.048 C 
ATOM      7  C   UNL     1       0.957  -5.690  11.963  0.00  0.00    +0.019 C 
ATOM      8  C   UNL     1       0.049  -6.038  13.145  0.00  0.00    -0.009 C 
ATOM      9  C   UNL     1       0.821  -6.902  14.144  0.00  0.00    +0.007 C 
ATOM     10  C   UNL     1       2.042  -6.130  14.649  0.00  0.00    -0.009 C 
ATOM     11  C   UNL     1       2.949  -5.782  13.467  0.00  0.00    +0.019 C 
ATOM     12  C   UNL     1       1.583  -4.842  15.336  0.00  0.00    +0.007 C 
ATOM     13  C   UNL     1       0.811  -3.978  14.336  0.00  0.00    -0.009 C 
ATOM     14  C   UNL     1      -0.410  -4.750  13.832  0.00  0.00    +0.007 C 
ATOM     15  C   UNL     1       1.718  -3.631  13.155  0.00  0.00    +0.019 C 
ENDBRANCH   3   6
ENDBRANCH   1   2
BRANCH   1  16
ATOM     16  C   UNL     1       2.923  -4.112   7.907  0.00  0.00    +0.328 C 
ATOM     17  O   UNL     1       1.911  -4.771   7.952  0.00  0.00    -0.249 OA
BRANCH  16  18
ATOM     18  O   UNL     1       3.560  -3.941   6.738  0.00  0.00    -0.455 OA
BRANCH  18  19
ATOM     19  C   UNL     1       2.985  -4.564   5.588  0.00  0.00    +0.311 C 
BRANCH  19  20
ATOM     20  C   UNL     1       3.831  -4.263   4.377  0.00  0.00    +0.200 C 
ATOM     21  O   UNL     1       4.828  -3.582   4.489  0.00  0.00    -0.288 OA
BRANCH  20  25
ATOM     22  C   UNL     1       2.725  -5.800   0.582  0.00  0.00    -0.048 A 
ATOM     23  C   UNL     1       3.863  -5.022   0.704  0.00  0.00    +0.004 A 
ATOM     24  C   UNL     1       4.229  -4.519   1.935  0.00  0.00    +0.012 A 
ATOM     25  C   UNL     1       3.447  -4.796   3.060  0.00  0.00    +0.021 A 
ATOM     26  C   UNL     1       2.298  -5.582   2.928  0.00  0.00    +0.012 A 
ATOM     27  C   UNL     1       1.942  -6.074   1.690  0.00  0.00    +0.004 A 
BRANCH  22  29
ATOM     28  C   UNL     1       1.422  -5.343  -1.478  0.00  0.00    +0.009 C 
ATOM     29  C   UNL     1       2.332  -6.346  -0.767  0.00  0.00    +0.032 C 
ENDBRANCH  22  29
ENDBRANCH  20  25
ENDBRANCH  19  20
ENDBRANCH  18  19
ENDBRANCH  16  18
ENDBRANCH   1  16
BRANCH   1  30
ATOM     30  C   UNL     1       3.525  -1.965   8.991  0.00  0.00    +0.067 C 
BRANCH  30  31
ATOM     31  C   UNL     1       4.185  -1.347  10.197  0.00  0.00    -0.039 C 
ATOM     32  C   UNL     1       5.500  -1.068  10.351  0.00  0.00    -0.001 A 
ATOM     33  C   UNL     1       6.664  -1.249   9.476  0.00  0.00    +0.010 A 
ATOM     34  C   UNL     1       7.883  -0.864   9.917  0.00  0.00    +0.001 A 
ATOM     35  C   UNL     1       8.062  -0.297  11.187  0.00  0.00    +0.002 A 
ATOM     36  C   UNL     1       7.041  -0.099  12.047  0.00  0.00    +0.026 A 
ATOM     37  C   UNL     1       5.715  -0.467  11.686  0.00  0.00    +0.043 A 
ATOM     38  N   UNL     1       4.578  -0.378  12.333  0.00  0.00    -0.380 N 
ATOM     39  C   UNL     1       3.511  -0.908  11.477  0.00  0.00    +0.144 C 
ATOM     40  H   UNL     1       4.462  -0.019  13.226  0.00  0.00    +0.160 HD
ENDBRANCH  30  31
ENDBRANCH   1  30
TORSDOF 10
