REMARK  Name = ZINC40340640
REMARK  9 active torsions:
REMARK  status: ('A' for Active; 'I' for Inactive)
REMARK    1  A    between atoms: C_1  and  C_2
REMARK    2  A    between atoms: C_2  and  O_3
REMARK    3  A    between atoms: O_3  and  C_4
REMARK    4  A    between atoms: C_6  and  C_11
REMARK    5  A    between atoms: C_9  and  O_10
REMARK    6  A    between atoms: C_14  and  C_29
REMARK    7  A    between atoms: N_21  and  C_22
REMARK    8  A    between atoms: C_22  and  C_23
REMARK    9  A    between atoms: C_32  and  C_35
REMARK                            x       y       z     vdW  Elec       q    Type
REMARK                         _______ _______ _______ _____ _____    ______ ____
ROOT
ATOM      1  C   UNL     1       0.654  -4.954  -0.018  0.00  0.00    +0.141 C 
ATOM      2  C   UNL     1       0.895  -5.512   1.358  0.00  0.00    +0.035 A 
ATOM      3  C   UNL     1       1.178  -5.252   2.703  0.00  0.00    +0.099 A 
ATOM      4  N   UNL     1       1.234  -6.412   3.326  0.00  0.00    -0.173 NA
ATOM      5  N   UNL     1       1.015  -7.379   2.507  0.00  0.00    -0.272 N 
ATOM      6  H   UNL     1       1.008  -8.319   2.745  0.00  0.00    +0.189 HD
ATOM      7  C   UNL     1       0.794  -6.886   1.253  0.00  0.00    +0.126 A 
ATOM      8  C   UNL     1       0.497  -7.227  -0.143  0.00  0.00    +0.266 C 
ATOM      9  O   UNL     1       0.347  -8.358  -0.564  0.00  0.00    -0.268 OA
ATOM     10  N   UNL     1       0.414  -6.110  -0.891  0.00  0.00    -0.283 N 
ENDROOT
BRANCH   3  11
ATOM     11  C   UNL     1       1.378  -3.915   3.316  0.00  0.00    +0.002 A 
ATOM     12  C   UNL     1       1.994  -2.898   2.590  0.00  0.00    +0.010 A 
ATOM     13  C   UNL     1       2.178  -1.656   3.164  0.00  0.00    +0.004 A 
ATOM     14  C   UNL     1       1.751  -1.421   4.459  0.00  0.00    -0.050 A 
ATOM     15  C   UNL     1       1.139  -2.427   5.185  0.00  0.00    +0.004 A 
ATOM     16  C   UNL     1       0.946  -3.671   4.617  0.00  0.00    +0.010 A 
ATOM     17  C   UNL     1       1.954  -0.064   5.081  0.00  0.00    +0.044 C 
ENDBRANCH   3  11
BRANCH   1  20
ATOM     18  C   UNL     1      -1.498  -1.849   0.006  0.00  0.00    +0.162 A 
ATOM     19  C   UNL     1      -0.389  -2.680  -0.003  0.00  0.00    +0.055 A 
ATOM     20  C   UNL     1      -0.553  -4.052  -0.008  0.00  0.00    -0.019 A 
ATOM     21  C   UNL     1      -1.823  -4.600  -0.005  0.00  0.00    +0.009 A 
ATOM     22  C   UNL     1      -2.934  -3.777   0.004  0.00  0.00    +0.049 A 
ATOM     23  C   UNL     1      -2.776  -2.400   0.016  0.00  0.00    +0.158 A 
BRANCH  23  24
ATOM     24  O   UNL     1      -3.868  -1.589   0.030  0.00  0.00    -0.503 OA
ATOM     25  H   UNL     1      -4.192  -1.350  -0.849  0.00  0.00    +0.292 HD
ENDBRANCH  23  24
BRANCH  18  26
ATOM     26  O   UNL     1      -1.339  -0.499   0.012  0.00  0.00    -0.489 OA
BRANCH  26  28
ATOM     27  C   UNL     1      -0.019   1.526   0.010  0.00  0.00    +0.048 C 
ATOM     28  C   UNL     1       0.002  -0.004   0.002  0.00  0.00    +0.226 C 
ENDBRANCH  26  28
ENDBRANCH  18  26
ENDBRANCH   1  20
BRANCH  10  29
ATOM     29  C   UNL     1       0.132  -6.058  -2.328  0.00  0.00    +0.140 C 
BRANCH  29  30
ATOM     30  C   UNL     1       1.447  -6.121  -3.108  0.00  0.00    +0.136 C 
ATOM     31  C   UNL     1       1.170  -5.944  -4.616  0.00  0.00    +0.035 C 
ATOM     32  C   UNL     1       2.162  -6.955  -5.254  0.00  0.00    +0.031 C 
ATOM     33  C   UNL     1       2.159  -8.081  -4.190  0.00  0.00    +0.160 C 
ATOM     34  O   UNL     1       2.059  -7.403  -2.925  0.00  0.00    -0.375 OA
ENDBRANCH  29  30
ENDBRANCH  10  29
TORSDOF 7
