REMARK  Name = ZINC59015616
REMARK  9 active torsions:
REMARK  status: ('A' for Active; 'I' for Inactive)
REMARK    1  A    between atoms: C_1  and  C_2
REMARK    2  A    between atoms: C_2  and  C_3
REMARK    3  A    between atoms: C_3  and  S_4
REMARK    4  A    between atoms: S_4  and  C_5
REMARK    5  A    between atoms: C_11  and  C_13
REMARK    6  A    between atoms: C_13  and  S_14
REMARK    7  A    between atoms: S_14  and  C_15
REMARK    8  A    between atoms: N_20  and  N_21
REMARK    9  A    between atoms: C_22  and  C_23
REMARK                            x       y       z     vdW  Elec       q    Type
REMARK                         _______ _______ _______ _____ _____    ______ ____
ROOT
ATOM      1  C   UNL     1       6.019  -4.243 -10.567  0.00  0.00    +0.211 A 
ATOM      2  N   UNL     1       6.643  -3.794 -11.661  0.00  0.00    -0.186 NA
ATOM      3  C   UNL     1       7.055  -4.814 -12.385  0.00  0.00    +0.232 A 
ATOM      4  N   UNL     1       6.692  -5.949 -11.751  0.00  0.00    -0.245 N 
ATOM      5  N   UNL     1       6.030  -5.554 -10.577  0.00  0.00    -0.144 NA
ATOM      6  N   UNL     1       7.739  -4.736 -13.584  0.00  0.00    -0.205 N 
ATOM      7  H   UNL     1       8.002  -5.547 -14.047  0.00  0.00    +0.177 HD
ATOM      8  H   UNL     1       6.860  -6.858 -12.045  0.00  0.00    +0.192 HD
ENDROOT
BRANCH   6   9
ATOM      9  N   UNL     1       8.053  -3.485 -14.132  0.00  0.00    -0.188 NA
ATOM     10  C   UNL     1       8.695  -3.412 -15.258  0.00  0.00    +0.138 C 
BRANCH  10  11
ATOM     11  C   UNL     1       9.025  -2.095 -15.834  0.00  0.00    -0.005 A 
ATOM     12  C   UNL     1       8.653  -0.925 -15.168  0.00  0.00    +0.010 A 
ATOM     13  C   UNL     1       8.965   0.303 -15.712  0.00  0.00    +0.016 A 
ATOM     14  C   UNL     1       9.646   0.378 -16.916  0.00  0.00    +0.018 A 
ATOM     15  C   UNL     1      10.017  -0.778 -17.581  0.00  0.00    +0.016 A 
ATOM     16  C   UNL     1       9.716  -2.013 -17.045  0.00  0.00    +0.010 A 
ATOM     17 BR   UNL     1      10.069   2.066 -17.655  0.00  0.00    -0.050 Br
ENDBRANCH  10  11
ENDBRANCH   6   9
BRANCH   1  18
ATOM     18  S   UNL     1       5.303  -3.235  -9.311  0.00  0.00    -0.075 S 
BRANCH  18  19
ATOM     19  C   UNL     1       4.633  -4.427  -8.120  0.00  0.00    +0.173 C 
BRANCH  19  26
ATOM     20  C   UNL     1       1.589  -2.718  -2.758  0.00  0.00    +0.160 A 
ATOM     21  N   UNL     1       2.111  -1.927  -3.684  0.00  0.00    -0.133 NA
ATOM     22  N   UNL     1       2.691  -2.388  -4.705  0.00  0.00    -0.125 NA
ATOM     23  C   UNL     1       2.814  -3.688  -4.914  0.00  0.00    +0.189 A 
ATOM     24  S   UNL     1       1.997  -4.318  -3.450  0.00  0.00    -0.024 S 
ATOM     25  N   UNL     1       3.414  -4.373  -5.968  0.00  0.00    -0.263 N 
ATOM     26  C   UNL     1       3.984  -3.687  -6.979  0.00  0.00    +0.229 C 
ATOM     27  O   UNL     1       3.975  -2.474  -6.970  0.00  0.00    -0.275 OA
ATOM     28  H   UNL     1       3.422  -5.343  -5.975  0.00  0.00    +0.157 HD
BRANCH  20  29
ATOM     29  S   UNL     1       0.743  -2.311  -1.267  0.00  0.00    -0.097 S 
BRANCH  29  30
ATOM     30  C   UNL     1       0.718  -0.497  -1.257  0.00  0.00    +0.076 C 
BRANCH  30  32
ATOM     31  C   UNL     1      -0.019   1.526   0.010  0.00  0.00    +0.004 C 
ATOM     32  C   UNL     1       0.002  -0.004   0.002  0.00  0.00    +0.008 C 
ENDBRANCH  30  32
ENDBRANCH  29  30
ENDBRANCH  20  29
ENDBRANCH  19  26
ENDBRANCH  18  19
ENDBRANCH   1  18
TORSDOF 8
