REMARK  Name = ZINC03619554
REMARK  12 active torsions:
REMARK  status: ('A' for Active; 'I' for Inactive)
REMARK    1  A    between atoms: C_1  and  C_2
REMARK    2  A    between atoms: C_3  and  C_12
REMARK    3  A    between atoms: C_12  and  C_13
REMARK    4  A    between atoms: C_13  and  N_14
REMARK    5  A    between atoms: C_15  and  C_17
REMARK    6  A    between atoms: C_17  and  N_24
REMARK    7  A    between atoms: C_18  and  C_19
REMARK    8  A    between atoms: C_25  and  C_27
REMARK    9  A    between atoms: C_30  and  C_33
REMARK   10  A    between atoms: C_33  and  C_34
REMARK   11  A    between atoms: C_33  and  C_35
REMARK   12  A    between atoms: C_33  and  C_36
REMARK                            x       y       z     vdW  Elec       q    Type
REMARK                         _______ _______ _______ _____ _____    ______ ____
ROOT
ATOM      1  C   UNL     1       2.417   1.297  -0.075  0.00  0.00    +0.100 C 
ATOM      2  C   UNL     1       2.554  -0.053  -0.167  0.00  0.00    +0.074 C 
ENDROOT
BRANCH   2   3
ATOM      3  C   UNL     1       1.414  -0.888  -0.081  0.00  0.00    +0.130 A 
ATOM      4  C   UNL     1       1.416  -2.267  -0.064  0.00  0.00    +0.049 A 
ATOM      5  C   UNL     1       0.073  -2.668   0.030  0.00  0.00    +0.042 A 
ATOM      6  C   UNL     1      -0.677  -1.545   0.066  0.00  0.00    +0.195 A 
ATOM      7  O   UNL     1       0.132  -0.477   0.004  0.00  0.00    -0.463 OA
ENDBRANCH   2   3
BRANCH   1   9
ATOM      8  N   UNL     1       4.834   1.604  -0.100  0.00  0.00    -0.310 N 
ATOM      9  C   UNL     1       3.605   2.154  -0.040  0.00  0.00    +0.258 C 
ATOM     10  O   UNL     1       3.482   3.362   0.042  0.00  0.00    -0.269 OA
ATOM     11  H   UNL     1       4.932   0.641  -0.165  0.00  0.00    +0.149 HD
BRANCH   8  12
ATOM     12  C   UNL     1       6.022   2.460  -0.065  0.00  0.00    +0.109 C 
BRANCH  12  13
ATOM     13  C   UNL     1       7.279   1.592  -0.146  0.00  0.00    +0.056 C 
BRANCH  13  16
ATOM     14  C   UNL     1       8.724   2.815  -2.606  0.00  0.00    +0.063 C 
ATOM     15  C   UNL     1       9.133   3.006  -1.168  0.00  0.00    +0.017 A 
ATOM     16  C   UNL     1       8.502   2.473  -0.110  0.00  0.00    -0.018 A 
ATOM     17  C   UNL     1       9.230   2.905   1.085  0.00  0.00    +0.003 A 
ATOM     18  C   UNL     1       9.069   2.679   2.454  0.00  0.00    +0.010 A 
ATOM     19  C   UNL     1       9.944   3.240   3.341  0.00  0.00    +0.001 A 
ATOM     20  C   UNL     1      10.992   4.033   2.893  0.00  0.00    +0.002 A 
ATOM     21  C   UNL     1      11.169   4.268   1.547  0.00  0.00    +0.026 A 
ATOM     22  C   UNL     1      10.290   3.707   0.626  0.00  0.00    +0.047 A 
ATOM     23  N   UNL     1      10.200   3.751  -0.747  0.00  0.00    -0.358 N 
ATOM     24  H   UNL     1      10.806   4.235  -1.330  0.00  0.00    +0.166 HD
ENDBRANCH  13  16
ENDBRANCH  12  13
ENDBRANCH   8  12
ENDBRANCH   1   9
BRANCH   1  25
ATOM     25  N   UNL     1       1.141   1.868  -0.013  0.00  0.00    -0.277 N 
ATOM     26  C   UNL     1       0.797   2.638   1.038  0.00  0.00    +0.248 C 
ATOM     27  O   UNL     1       1.560   2.763   1.976  0.00  0.00    -0.270 OA
ATOM     28  H   UNL     1       0.503   1.709  -0.728  0.00  0.00    +0.155 HD
BRANCH  26  29
ATOM     29  C   UNL     1      -0.512   3.325   1.054  0.00  0.00    +0.037 A 
ATOM     30  C   UNL     1      -1.433   3.103   0.029  0.00  0.00    +0.013 A 
ATOM     31  C   UNL     1      -2.654   3.745   0.052  0.00  0.00    +0.005 A 
ATOM     32  C   UNL     1      -2.962   4.614   1.083  0.00  0.00    -0.042 A 
ATOM     33  C   UNL     1      -2.052   4.843   2.099  0.00  0.00    +0.005 A 
ATOM     34  C   UNL     1      -0.829   4.204   2.091  0.00  0.00    +0.013 A 
BRANCH  32  35
ATOM     35  C   UNL     1      -4.296   5.316   1.099  0.00  0.00    -0.013 C 
ATOM     36  C   UNL     1      -4.077   6.830   1.068  0.00  0.00    +0.015 C 
ATOM     37  C   UNL     1      -5.110   4.893  -0.126  0.00  0.00    +0.015 C 
ATOM     38  C   UNL     1      -5.056   4.936   2.372  0.00  0.00    +0.015 C 
ENDBRANCH  32  35
ENDBRANCH  26  29
ENDBRANCH   1  25
TORSDOF 8
