REMARK  Name = ZINC39675922
REMARK  9 active torsions:
REMARK  status: ('A' for Active; 'I' for Inactive)
REMARK    1  A    between atoms: C_1  and  C_2
REMARK    2  A    between atoms: C_6  and  C_7
REMARK    3  A    between atoms: C_11  and  C_20
REMARK    4  A    between atoms: N_22  and  C_23
REMARK    5  A    between atoms: C_23  and  C_24
REMARK    6  A    between atoms: C_24  and  C_26
REMARK    7  A    between atoms: C_24  and  N_32
REMARK    8  A    between atoms: N_32  and  C_33
REMARK    9  A    between atoms: N_32  and  C_34
REMARK                            x       y       z     vdW  Elec       q    Type
REMARK                         _______ _______ _______ _____ _____    ______ ____
ROOT
ATOM      1  C   UNL     1       0.086  -0.088   2.865  0.00  0.00    +0.254 C 
ATOM      2  O   UNL     1       0.126   1.089   3.175  0.00  0.00    -0.269 OA
ATOM      3  N   UNL     1      -0.022  -1.033   3.820  0.00  0.00    -0.296 N 
ATOM      4  C   UNL     1       0.032  -2.504   3.652  0.00  0.00    +0.121 C 
ATOM      5  C   UNL     1       0.836  -3.007   4.872  0.00  0.00    +0.100 C 
ATOM      6  C   UNL     1       0.665  -1.909   5.935  0.00  0.00    -0.004 C 
ATOM      7  C   UNL     1      -0.214  -0.835   5.277  0.00  0.00    +0.115 C 
ATOM      8  C   UNL     1       2.021  -1.317   6.306  0.00  0.00    -0.010 C 
ATOM      9  C   UNL     1       1.831  -0.267   7.405  0.00  0.00    -0.082 C 
ATOM     10  N   UNL     1       1.210  -0.892   8.579  0.00  0.00    +0.379 N 
ATOM     11  C   UNL     1      -0.133  -1.377   8.236  0.00  0.00    -0.082 C 
ATOM     12  C   UNL     1      -0.026  -2.473   7.172  0.00  0.00    -0.010 C 
ATOM     13  H   UNL     1       1.777  -1.668   8.886  0.00  0.00    -0.086 HD
ATOM     14  H   UNL     1       1.141  -0.214   9.323  0.00  0.00    -0.086 HD
ENDROOT
BRANCH   1  20
ATOM     15  C   UNL     1       0.141   1.833   0.414  0.00  0.00    +0.045 C 
ATOM     16  C   UNL     1       0.181   0.329   0.326  0.00  0.00    -0.031 A 
ATOM     17  C   UNL     1       0.252  -0.331  -0.878  0.00  0.00    +0.011 A 
ATOM     18  C   UNL     1       0.285  -1.687  -0.885  0.00  0.00    +0.046 A 
ATOM     19  S   UNL     1       0.220  -2.109   0.740  0.00  0.00    -0.092 S 
ATOM     20  C   UNL     1       0.154  -0.477   1.454  0.00  0.00    +0.077 A 
ENDBRANCH   1  20
BRANCH   5  21
ATOM     21  C   UNL     1       0.272  -4.314   5.369  0.00  0.00    +0.218 C 
ATOM     22  O   UNL     1      -0.889  -4.592   5.159  0.00  0.00    -0.275 OA
ATOM     23  N   UNL     1       1.059  -5.172   6.047  0.00  0.00    -0.316 N 
ATOM     24  H   UNL     1       1.988  -4.950   6.215  0.00  0.00    +0.149 HD
BRANCH  23  25
ATOM     25  C   UNL     1       0.511  -6.442   6.531  0.00  0.00    +0.093 C 
BRANCH  25  26
ATOM     26  C   UNL     1       1.632  -7.277   7.153  0.00  0.00    -0.021 C 
BRANCH  26  27
ATOM     27  C   UNL     1       2.150  -6.584   8.386  0.00  0.00    -0.059 A 
ATOM     28  C   UNL     1       1.461  -6.691   9.580  0.00  0.00    +0.002 A 
ATOM     29  C   UNL     1       1.936  -6.055  10.712  0.00  0.00    +0.000 A 
ATOM     30  C   UNL     1       3.099  -5.311  10.650  0.00  0.00    +0.000 A 
ATOM     31  C   UNL     1       3.789  -5.205   9.456  0.00  0.00    +0.000 A 
ATOM     32  C   UNL     1       3.316  -5.845   8.326  0.00  0.00    +0.002 A 
ENDBRANCH  26  27
BRANCH  26  33
ATOM     33  N   UNL     1       1.111  -8.602   7.518  0.00  0.00    +0.382 N 
ATOM     34  C   UNL     1       0.714  -9.324   6.302  0.00  0.00    -0.096 C 
ATOM     35  C   UNL     1       2.154  -9.361   8.220  0.00  0.00    -0.096 C 
ATOM     36  H   UNL     1       0.310  -8.493   8.121  0.00  0.00    -0.082 HD
ENDBRANCH  26  33
ENDBRANCH  25  26
ENDBRANCH  23  25
ENDBRANCH   5  21
TORSDOF 6
