REMARK  Name = ZINC39916736
REMARK  6 active torsions:
REMARK  status: ('A' for Active; 'I' for Inactive)
REMARK    1  A    between atoms: C_1  and  C_2
REMARK    2  A    between atoms: C_2  and  N_3
REMARK    3  A    between atoms: N_3  and  C_4
REMARK    4  A    between atoms: C_4  and  C_6
REMARK    5  A    between atoms: C_4  and  N_10
REMARK    6  A    between atoms: C_11  and  C_13
REMARK                            x       y       z     vdW  Elec       q    Type
REMARK                         _______ _______ _______ _____ _____    ______ ____
ROOT
ATOM      1  N   UNL     1      -0.202  -2.456   2.212  0.00  0.00    -0.292 N 
ATOM      2  C   UNL     1      -1.367  -3.004   1.813  0.00  0.00    +0.252 C 
ATOM      3  O   UNL     1      -1.625  -3.086   0.628  0.00  0.00    -0.270 OA
ATOM      4  H   UNL     1       0.005  -2.390   3.158  0.00  0.00    +0.151 HD
ENDROOT
BRANCH   2   5
ATOM      5  C   UNL     1      -2.326  -3.504   2.813  0.00  0.00    +0.122 A 
ATOM      6  C   UNL     1      -3.531  -4.079   2.432  0.00  0.00    +0.031 A 
ATOM      7  C   UNL     1      -4.417  -4.508   3.453  0.00  0.00    +0.018 A 
ATOM      8  C   UNL     1      -5.550  -5.272   3.137  0.00  0.00    +0.011 A 
ATOM      9  C   UNL     1      -6.371  -5.713   4.135  0.00  0.00    +0.001 A 
ATOM     10  C   UNL     1      -6.098  -5.405   5.461  0.00  0.00    +0.004 A 
ATOM     11  C   UNL     1      -5.001  -4.639   5.793  0.00  0.00    +0.047 A 
ATOM     12  C   UNL     1      -4.156  -4.173   4.795  0.00  0.00    +0.139 A 
ATOM     13  O   UNL     1      -3.099  -3.384   5.104  0.00  0.00    -0.422 OA
ATOM     14  C   UNL     1      -2.042  -3.419   4.257  0.00  0.00    +0.350 A 
ATOM     15  O   UNL     1      -0.898  -3.378   4.671  0.00  0.00    -0.244 OA
ENDBRANCH   2   5
BRANCH   1  16
ATOM     16  C   UNL     1       0.752  -1.959   1.218  0.00  0.00    +0.193 C 
BRANCH  16  17
ATOM     17  C   UNL     1       2.162  -2.425   1.587  0.00  0.00    +0.222 C 
ATOM     18 CL   UNL     1       2.601  -1.783   3.214  0.00  0.00    -0.080 Cl
ATOM     19 CL   UNL     1       2.211  -4.227   1.618  0.00  0.00    -0.080 Cl
ATOM     20 CL   UNL     1       3.337  -1.813   0.363  0.00  0.00    -0.080 Cl
ENDBRANCH  16  17
BRANCH  16  21
ATOM     21  N   UNL     1       0.713  -0.491   1.192  0.00  0.00    -0.295 NA
ATOM     22  H   UNL     1       1.643  -0.103   1.242  0.00  0.00    +0.124 HD
BRANCH  21  24
ATOM     23  C   UNL     1      -0.019   1.526   0.010  0.00  0.00    +0.020 C 
ATOM     24  C   UNL     1       0.002  -0.004   0.002  0.00  0.00    +0.079 C 
ENDBRANCH  21  24
ENDBRANCH  16  21
ENDBRANCH   1  16
TORSDOF 5
