REMARK  Name = ZINC58848243
REMARK  8 active torsions:
REMARK  status: ('A' for Active; 'I' for Inactive)
REMARK    1  A    between atoms: C_1  and  C_2
REMARK    2  A    between atoms: C_5  and  N_9
REMARK    3  A    between atoms: N_9  and  S_10
REMARK    4  A    between atoms: S_10  and  C_13
REMARK    5  A    between atoms: C_26  and  C_29
REMARK    6  A    between atoms: C_32  and  C_35
REMARK    7  A    between atoms: C_35  and  O_37
REMARK    8  A    between atoms: O_37  and  C_38
REMARK                            x       y       z     vdW  Elec       q    Type
REMARK                         _______ _______ _______ _____ _____    ______ ____
ROOT
ATOM      1  C   UNL     1       0.440  -4.543   2.677  0.00  0.00    +0.109 A 
ATOM      2  C   UNL     1       0.788  -3.360   3.303  0.00  0.00    +0.030 A 
ATOM      3  C   UNL     1       0.303  -3.085   4.565  0.00  0.00    +0.025 A 
ATOM      4  C   UNL     1      -0.535  -3.993   5.205  0.00  0.00    +0.031 A 
ATOM      5  C   UNL     1      -0.895  -5.173   4.574  0.00  0.00    -0.018 A 
ATOM      6  C   UNL     1      -0.399  -5.441   3.306  0.00  0.00    +0.034 A 
ATOM      7  C   UNL     1      -1.822  -6.152   5.211  0.00  0.00    +0.049 C 
ATOM      8  C   UNL     1      -1.092  -7.355   5.753  0.00  0.00    -0.023 C 
ATOM      9  C   UNL     1      -1.654  -7.763   6.864  0.00  0.00    -0.030 C 
ATOM     10  C   UNL     1      -2.833  -6.888   7.226  0.00  0.00    +0.033 C 
ATOM     11  C   UNL     1      -2.607  -5.600   6.400  0.00  0.00    +0.029 C 
ATOM     12  C   UNL     1      -1.820  -4.625   7.251  0.00  0.00    +0.105 C 
ATOM     13  N   UNL     1      -1.000  -3.710   6.484  0.00  0.00    -0.336 N 
ATOM     14  H   UNL     1      -0.744  -2.868   6.892  0.00  0.00    +0.147 HD
ENDROOT
BRANCH  12  15
ATOM     15  C   UNL     1      -0.952  -5.410   8.200  0.00  0.00    -0.027 A 
ATOM     16  C   UNL     1       0.244  -5.946   7.756  0.00  0.00    +0.006 A 
ATOM     17  C   UNL     1       1.044  -6.666   8.619  0.00  0.00    +0.015 A 
ATOM     18  C   UNL     1       0.644  -6.853   9.944  0.00  0.00    +0.059 A 
ATOM     19  C   UNL     1      -0.564  -6.309  10.385  0.00  0.00    +0.015 A 
ATOM     20  C   UNL     1      -1.351  -5.587   9.513  0.00  0.00    +0.006 A 
BRANCH  18  21
ATOM     21  C   UNL     1       1.495  -7.623  10.874  0.00  0.00    +0.339 C 
ATOM     22  O   UNL     1       2.545  -8.095  10.487  0.00  0.00    -0.245 OA
BRANCH  21  23
ATOM     23  O   UNL     1       1.107  -7.802  12.151  0.00  0.00    -0.464 OA
ATOM     24  C   UNL     1       1.978  -8.556  12.995  0.00  0.00    +0.280 C 
ENDBRANCH  21  23
ENDBRANCH  18  21
ENDBRANCH  12  15
BRANCH   1  25
ATOM     25  S   UNL     1       1.064  -4.903   1.069  0.00  0.00    +0.072 S 
ATOM     26  O   UNL     1       0.913  -6.303   0.878  0.00  0.00    -0.150 OA
ATOM     27  O   UNL     1       2.324  -4.252   0.968  0.00  0.00    -0.150 OA
BRANCH  25  28
ATOM     28  N   UNL     1       0.061  -4.165  -0.022  0.00  0.00    -0.216 N 
ATOM     29  H   UNL     1       0.408  -3.480  -0.614  0.00  0.00    +0.174 HD
BRANCH  28  34
ATOM     30  C   UNL     1      -5.409  -5.640  -0.297  0.00  0.00    +0.045 C 
ATOM     31  C   UNL     1      -3.955  -5.248  -0.224  0.00  0.00    -0.032 A 
ATOM     32  C   UNL     1      -3.601  -3.912  -0.211  0.00  0.00    +0.006 A 
ATOM     33  C   UNL     1      -2.270  -3.549  -0.144  0.00  0.00    +0.025 A 
ATOM     34  C   UNL     1      -1.286  -4.529  -0.089  0.00  0.00    +0.049 A 
ATOM     35  C   UNL     1      -1.644  -5.870  -0.102  0.00  0.00    +0.044 A 
ATOM     36  C   UNL     1      -2.979  -6.227  -0.164  0.00  0.00    +0.046 A 
ATOM     37 CL   UNL     1      -3.429  -7.903  -0.174  0.00  0.00    -0.083 Cl
ENDBRANCH  28  34
ENDBRANCH  25  28
ENDBRANCH   1  25
TORSDOF 6
