REMARK  Name = ZINC25918624
REMARK  4 active torsions:
REMARK  status: ('A' for Active; 'I' for Inactive)
REMARK    1  A    between atoms: N_7  and  C_11
REMARK    2  A    between atoms: C_11  and  C_12
REMARK    3  A    between atoms: C_17  and  C_20
REMARK    4  A    between atoms: C_20  and  C_22
REMARK                            x       y       z     vdW  Elec       q    Type
REMARK                         _______ _______ _______ _____ _____    ______ ____
ROOT
ATOM      1  C   UNL     1      -8.873   0.033   1.350  0.00  0.00    +0.236 C 
ATOM      2  O   UNL     1      -9.705  -0.614   0.750  0.00  0.00    -0.274 OA
ATOM      3  N   UNL     1      -7.692   0.318   0.766  0.00  0.00    -0.300 N 
ATOM      4  C   UNL     1      -7.398  -0.148  -0.596  0.00  0.00    +0.108 C 
ATOM      5  C   UNL     1      -6.073  -0.916  -0.579  0.00  0.00    +0.030 C 
ATOM      6  C   UNL     1      -4.983  -0.033   0.032  0.00  0.00    +0.063 C 
ATOM      7  C   UNL     1      -5.356   0.318   1.474  0.00  0.00    +0.030 C 
ATOM      8  C   UNL     1      -6.673   1.100   1.480  0.00  0.00    +0.108 C 
ENDROOT
BRANCH   6   9
ATOM      9  C   UNL     1      -3.670  -0.773   0.018  0.00  0.00    +0.166 C 
ATOM     10  O   UNL     1      -3.658  -1.986   0.009  0.00  0.00    -0.292 OA
BRANCH   9  11
ATOM     11  C   UNL     1      -2.406  -0.026   0.017  0.00  0.00    +0.021 A 
ATOM     12  C   UNL     1      -2.417   1.374   0.026  0.00  0.00    +0.015 A 
ATOM     13  C   UNL     1      -1.230   2.070   0.019  0.00  0.00    +0.050 A 
ATOM     14  C   UNL     1      -0.017   1.389   0.010  0.00  0.00    +0.162 A 
ATOM     15  C   UNL     1       0.002  -0.004   0.002  0.00  0.00    +0.163 A 
ATOM     16  C   UNL     1      -1.185  -0.711   0.004  0.00  0.00    +0.060 A 
ATOM     17  O   UNL     1       1.181  -0.684  -0.007  0.00  0.00    -0.485 OA
ATOM     18  C   UNL     1       2.347   0.055  -0.387  0.00  0.00    +0.270 C 
ATOM     19  C   UNL     1       2.333   1.393   0.366  0.00  0.00    +0.270 C 
ATOM     20  O   UNL     1       1.142   2.099   0.002  0.00  0.00    -0.485 OA
ENDBRANCH   9  11
ENDBRANCH   6   9
BRANCH   1  21
ATOM     21  C   UNL     1      -9.159   0.518   2.748  0.00  0.00    +0.224 C 
BRANCH  21  28
ATOM     22  C   UNL     1     -13.294   2.454   2.359  0.00  0.00    +0.002 A 
ATOM     23  C   UNL     1     -14.306   1.672   2.888  0.00  0.00    +0.004 A 
ATOM     24  C   UNL     1     -14.017   0.444   3.451  0.00  0.00    +0.048 A 
ATOM     25  C   UNL     1     -12.706  -0.004   3.497  0.00  0.00    +0.157 A 
ATOM     26  C   UNL     1     -11.686   0.786   2.966  0.00  0.00    +0.091 A 
ATOM     27  C   UNL     1     -11.986   2.014   2.396  0.00  0.00    +0.030 A 
ATOM     28  N   UNL     1     -10.498   0.081   3.152  0.00  0.00    -0.265 N 
ATOM     29  C   UNL     1     -10.805  -1.073   3.776  0.00  0.00    +0.422 A 
ATOM     30  O   UNL     1     -10.006  -1.931   4.100  0.00  0.00    -0.223 OA
ATOM     31  O   UNL     1     -12.129  -1.129   3.986  0.00  0.00    -0.407 OA
ENDBRANCH  21  28
ENDBRANCH   1  21
TORSDOF 4
