REMARK  Name = ZINC39665813
REMARK  11 active torsions:
REMARK  status: ('A' for Active; 'I' for Inactive)
REMARK    1  A    between atoms: C_1  and  C_2
REMARK    2  A    between atoms: C_5  and  C_9
REMARK    3  A    between atoms: C_6  and  C_8
REMARK    4  A    between atoms: C_13  and  C_22
REMARK    5  A    between atoms: N_24  and  C_25
REMARK    6  A    between atoms: C_25  and  C_26
REMARK    7  A    between atoms: C_26  and  C_28
REMARK    8  A    between atoms: C_26  and  O_29
REMARK    9  A    between atoms: O_29  and  C_30
REMARK   10  A    between atoms: C_33  and  O_36
REMARK   11  A    between atoms: O_36  and  C_37
REMARK                            x       y       z     vdW  Elec       q    Type
REMARK                         _______ _______ _______ _____ _____    ______ ____
ROOT
ATOM      1  C   UNL     1       0.203  -4.186   0.028  0.00  0.00    +0.247 C 
ATOM      2  O   UNL     1       0.327  -4.769   1.088  0.00  0.00    -0.270 OA
ATOM      3  N   UNL     1       0.156  -4.886  -1.123  0.00  0.00    -0.296 N 
ATOM      4  C   UNL     1       0.113  -4.356  -2.506  0.00  0.00    +0.121 C 
ATOM      5  C   UNL     1       1.023  -5.306  -3.317  0.00  0.00    +0.100 C 
ATOM      6  C   UNL     1       1.032  -6.618  -2.516  0.00  0.00    -0.004 C 
ATOM      7  C   UNL     1       0.142  -6.359  -1.292  0.00  0.00    +0.115 C 
ATOM      8  C   UNL     1       0.458  -7.755  -3.357  0.00  0.00    -0.010 C 
ATOM      9  C   UNL     1       0.532  -9.060  -2.560  0.00  0.00    -0.082 C 
ATOM     10  N   UNL     1       1.928  -9.343  -2.208  0.00  0.00    +0.379 N 
ATOM     11  C   UNL     1       2.444  -8.291  -1.323  0.00  0.00    -0.082 C 
ATOM     12  C   UNL     1       2.452  -6.953  -2.067  0.00  0.00    -0.010 C 
ATOM     13  H   UNL     1       1.981 -10.233  -1.737  0.00  0.00    -0.086 HD
ATOM     14  H   UNL     1       2.486  -9.377  -3.049  0.00  0.00    -0.086 HD
ENDROOT
BRANCH   1  19
ATOM     15  C   UNL     1      -0.183   1.554  -0.073  0.00  0.00    +0.044 C 
ATOM     16  C   UNL     1      -0.082   0.051  -0.047  0.00  0.00    -0.050 A 
ATOM     17  C   UNL     1      -0.985  -0.713  -0.765  0.00  0.00    +0.004 A 
ATOM     18  C   UNL     1      -0.898  -2.089  -0.745  0.00  0.00    +0.013 A 
ATOM     19  C   UNL     1       0.104  -2.712   0.002  0.00  0.00    +0.040 A 
ATOM     20  C   UNL     1       1.012  -1.935   0.724  0.00  0.00    -0.038 A 
ATOM     21  C   UNL     1       0.916  -0.559   0.691  0.00  0.00    +0.007 A 
ATOM     22  C   UNL     1       2.096  -2.598   1.533  0.00  0.00    +0.044 C 
ENDBRANCH   1  19
BRANCH   5  23
ATOM     23  C   UNL     1       2.416  -4.739  -3.417  0.00  0.00    +0.218 C 
ATOM     24  O   UNL     1       2.824  -3.980  -2.564  0.00  0.00    -0.275 OA
ATOM     25  N   UNL     1       3.208  -5.076  -4.454  0.00  0.00    -0.312 N 
ATOM     26  H   UNL     1       2.881  -5.683  -5.136  0.00  0.00    +0.149 HD
BRANCH  25  27
ATOM     27  C   UNL     1       4.562  -4.525  -4.551  0.00  0.00    +0.148 C 
BRANCH  27  28
ATOM     28  C   UNL     1       5.242  -5.063  -5.812  0.00  0.00    +0.187 C 
ATOM     29  C   UNL     1       6.656  -4.488  -5.913  0.00  0.00    +0.053 C 
BRANCH  28  30
ATOM     30  O   UNL     1       5.311  -6.489  -5.744  0.00  0.00    -0.488 OA
BRANCH  30  31
ATOM     31  C   UNL     1       5.388  -7.160  -6.925  0.00  0.00    +0.121 A 
ATOM     32  C   UNL     1       5.339  -8.546  -6.939  0.00  0.00    +0.049 A 
ATOM     33  C   UNL     1       5.417  -9.227  -8.138  0.00  0.00    +0.049 A 
ATOM     34  C   UNL     1       5.544  -8.525  -9.328  0.00  0.00    +0.120 A 
ATOM     35  C   UNL     1       5.592  -7.139  -9.313  0.00  0.00    +0.049 A 
ATOM     36  C   UNL     1       5.510  -6.457  -8.115  0.00  0.00    +0.049 A 
BRANCH  34  37
ATOM     37  O   UNL     1       5.621  -9.196 -10.508  0.00  0.00    -0.495 OA
ATOM     38  C   UNL     1       5.751  -8.410 -11.694  0.00  0.00    +0.277 C 
ENDBRANCH  34  37
ENDBRANCH  30  31
ENDBRANCH  28  30
ENDBRANCH  27  28
ENDBRANCH  25  27
ENDBRANCH   5  23
TORSDOF 7
