REMARK  Name = ZINC40471628
REMARK  8 active torsions:
REMARK  status: ('A' for Active; 'I' for Inactive)
REMARK    1  A    between atoms: C_1  and  C_2
REMARK    2  A    between atoms: C_2  and  C_3
REMARK    3  A    between atoms: C_2  and  C_4
REMARK    4  A    between atoms: C_2  and  C_5
REMARK    5  A    between atoms: C_5  and  C_7
REMARK    6  A    between atoms: C_5  and  N_20
REMARK    7  A    between atoms: N_9  and  C_10
REMARK    8  A    between atoms: C_15  and  C_16
REMARK                            x       y       z     vdW  Elec       q    Type
REMARK                         _______ _______ _______ _____ _____    ______ ____
ROOT
ATOM      1  C   UNL     1       2.132   0.025  -1.270  0.00  0.00    +0.203 C 
ATOM      2  O   UNL     1       3.047  -0.698  -0.937  0.00  0.00    -0.277 OA
ATOM      3  N   UNL     1       2.380   1.290  -1.661  0.00  0.00    -0.286 N 
ATOM      4  H   UNL     1       1.660   1.842  -2.003  0.00  0.00    +0.155 HD
ENDROOT
BRANCH   3   5
ATOM      5  C   UNL     1       3.670   1.805  -1.573  0.00  0.00    +0.049 A 
ATOM      6  C   UNL     1       4.568   1.284  -0.652  0.00  0.00    +0.044 A 
ATOM      7  C   UNL     1       5.848   1.796  -0.567  0.00  0.00    +0.043 A 
ATOM      8  C   UNL     1       6.246   2.834  -1.398  0.00  0.00    +0.021 A 
ATOM      9  C   UNL     1       5.370   3.363  -2.318  0.00  0.00    +0.018 A 
ATOM     10  C   UNL     1       4.072   2.851  -2.420  0.00  0.00    +0.084 A 
ATOM     11 CL   UNL     1       6.965   1.139   0.589  0.00  0.00    -0.083 Cl
BRANCH  10  12
ATOM     12  C   UNL     1       3.132   3.408  -3.405  0.00  0.00    +0.388 C 
ATOM     13  O   UNL     1       3.512   4.256  -4.202  0.00  0.00    -0.241 OA
ATOM     14  O   UNL     1       1.970   3.024  -3.427  0.00  0.00    -0.241 OA
ENDBRANCH  10  12
ENDBRANCH   3   5
BRANCH   1  15
ATOM     15  C   UNL     1       0.716  -0.493  -1.246  0.00  0.00    +0.019 C 
BRANCH  15  17
ATOM     16  C   UNL     1       0.000   1.526   0.040  0.00  0.00    +0.009 C 
ATOM     17  C   UNL     1       0.016  -0.003   0.023  0.00  0.00    -0.042 C 
ATOM     18  C   UNL     1       0.768  -0.519   1.252  0.00  0.00    +0.009 C 
ATOM     19  C   UNL     1      -1.421  -0.528   0.047  0.00  0.00    +0.009 C 
ENDBRANCH  15  17
BRANCH  15  20
ATOM     20  N   UNL     1       0.731  -1.962  -1.262  0.00  0.00    +0.386 N 
ATOM     21  H   UNL     1       1.193  -2.284  -2.099  0.00  0.00    -0.089 HD
ATOM     22  H   UNL     1       1.227  -2.301  -0.451  0.00  0.00    -0.089 HD
ATOM     23  H   UNL     1      -0.216  -2.308  -1.246  0.00  0.00    -0.089 HD
ENDBRANCH  15  20
ENDBRANCH   1  15
TORSDOF 5
