REMARK  Name = ZINC15558550
REMARK  8 active torsions:
REMARK  status: ('A' for Active; 'I' for Inactive)
REMARK    1  A    between atoms: C_1  and  C_2
REMARK    2  A    between atoms: C_2  and  C_3
REMARK    3  A    between atoms: C_6  and  N_9
REMARK    4  A    between atoms: C_11  and  C_16
REMARK    5  A    between atoms: N_18  and  C_19
REMARK    6  A    between atoms: C_19  and  C_20
REMARK    7  A    between atoms: C_22  and  N_27
REMARK    8  A    between atoms: C_25  and  O_26
REMARK                            x       y       z     vdW  Elec       q    Type
REMARK                         _______ _______ _______ _____ _____    ______ ____
ROOT
ATOM      1  C   UNL     1      -8.581  -2.714  -1.416  0.00  0.00    +0.218 C 
ATOM      2  O   UNL     1      -8.601  -1.784  -2.193  0.00  0.00    -0.275 OA
ATOM      3  N   UNL     1      -9.707  -3.411  -1.169  0.00  0.00    -0.311 N 
ATOM      4  H   UNL     1      -9.691  -4.155  -0.546  0.00  0.00    +0.149 HD
ENDROOT
BRANCH   1   7
ATOM      5  N   UNL     1      -5.320  -1.968   0.042  0.00  0.00    -0.271 N 
ATOM      6  C   UNL     1      -6.141  -2.159  -1.159  0.00  0.00    +0.127 C 
ATOM      7  C   UNL     1      -7.295  -3.091  -0.725  0.00  0.00    +0.101 C 
ATOM      8  C   UNL     1      -7.377  -2.806   0.792  0.00  0.00    +0.110 C 
ATOM      9  C   UNL     1      -5.989  -2.323   1.153  0.00  0.00    +0.221 C 
ATOM     10  O   UNL     1      -5.545  -2.263   2.280  0.00  0.00    -0.275 OA
BRANCH   5  14
ATOM     11  C   UNL     1      -1.412  -0.526   0.013  0.00  0.00    -0.048 A 
ATOM     12  C   UNL     1      -2.054  -0.752   1.216  0.00  0.00    +0.005 A 
ATOM     13  C   UNL     1      -3.350  -1.230   1.229  0.00  0.00    +0.024 A 
ATOM     14  C   UNL     1      -4.008  -1.483   0.032  0.00  0.00    +0.036 A 
ATOM     15  C   UNL     1      -3.360  -1.254  -1.174  0.00  0.00    +0.024 A 
ATOM     16  C   UNL     1      -2.066  -0.771  -1.181  0.00  0.00    +0.005 A 
BRANCH  11  18
ATOM     17  C   UNL     1      -0.019   1.526  -0.007  0.00  0.00    +0.009 C 
ATOM     18  C   UNL     1       0.002  -0.004   0.002  0.00  0.00    +0.032 C 
ENDBRANCH  11  18
ENDBRANCH   5  14
ENDBRANCH   1   7
BRANCH   3  19
ATOM     19  C   UNL     1     -10.957  -3.045  -1.839  0.00  0.00    +0.143 C 
BRANCH  19  20
ATOM     20  C   UNL     1     -12.057  -3.973  -1.393  0.00  0.00    +0.013 A 
ATOM     21  C   UNL     1     -13.021  -3.528  -0.508  0.00  0.00    +0.041 A 
ATOM     22  C   UNL     1     -14.030  -4.379  -0.098  0.00  0.00    +0.127 A 
ATOM     23  C   UNL     1     -14.079  -5.677  -0.573  0.00  0.00    +0.036 A 
ATOM     24  C   UNL     1     -13.118  -6.127  -1.457  0.00  0.00    +0.048 A 
ATOM     25  C   UNL     1     -12.107  -5.273  -1.875  0.00  0.00    +0.122 A 
BRANCH  22  26
ATOM     26  N   UNL     1     -15.060  -3.900   0.850  0.00  0.00    +0.056 N 
ATOM     27  O   UNL     1     -15.019  -2.765   1.266  0.00  0.00    -0.126 OA
ATOM     28  O   UNL     1     -15.944  -4.643   1.209  0.00  0.00    -0.126 OA
ENDBRANCH  22  26
BRANCH  25  29
ATOM     29  O   UNL     1     -11.164  -5.711  -2.749  0.00  0.00    -0.506 OA
ATOM     30  H   UNL     1     -10.390  -6.108  -2.327  0.00  0.00    +0.292 HD
ENDBRANCH  25  29
ENDBRANCH  19  20
ENDBRANCH   3  19
TORSDOF 7
