REMARK  Name = ZINC33682914
REMARK  8 active torsions:
REMARK  status: ('A' for Active; 'I' for Inactive)
REMARK    1  A    between atoms: C_4  and  C_7
REMARK    2  A    between atoms: C_7  and  C_9
REMARK    3  A    between atoms: C_11  and  C_23
REMARK    4  A    between atoms: C_17  and  C_18
REMARK    5  A    between atoms: C_17  and  O_22
REMARK    6  A    between atoms: C_26  and  O_29
REMARK    7  A    between atoms: O_29  and  C_30
REMARK    8  A    between atoms: C_30  and  C_32
REMARK                            x       y       z     vdW  Elec       q    Type
REMARK                         _______ _______ _______ _____ _____    ______ ____
ROOT
ATOM      1  C   UNL     1       1.137  -0.866  -0.798  0.00  0.00    +0.144 C 
ATOM      2  C   UNL     1      -0.079  -0.397   0.009  0.00  0.00    +0.120 C 
ATOM      3  N   UNL     1      -0.247   1.046  -0.171  0.00  0.00    -0.292 N 
ATOM      4  C   UNL     1       0.802   1.845  -0.418  0.00  0.00    +0.302 C 
ATOM      5  O   UNL     1       0.609   3.038  -0.550  0.00  0.00    -0.253 OA
ATOM      6  N   UNL     1       2.055   1.380  -0.526  0.00  0.00    -0.264 N 
ATOM      7  C   UNL     1       2.356  -0.044  -0.367  0.00  0.00    +0.243 C 
ATOM      8  H   UNL     1      -1.248   1.496  -0.105  0.00  0.00    +0.151 HD
ATOM      9  H   UNL     1       2.866   2.092  -0.740  0.00  0.00    +0.153 HD
ENDROOT
BRANCH   2  10
ATOM     10  C   UNL     1      -1.313  -1.112  -0.477  0.00  0.00    -0.026 A 
ATOM     11  C   UNL     1      -2.011  -0.622  -1.566  0.00  0.00    +0.009 A 
ATOM     12  C   UNL     1      -3.140  -1.279  -2.017  0.00  0.00    +0.047 A 
ATOM     13  C   UNL     1      -3.579  -2.425  -1.369  0.00  0.00    +0.132 A 
ATOM     14  C   UNL     1      -2.880  -2.911  -0.274  0.00  0.00    +0.047 A 
ATOM     15  C   UNL     1      -1.749  -2.254   0.169  0.00  0.00    +0.009 A 
BRANCH  13  16
ATOM     16  O   UNL     1      -4.692  -3.070  -1.807  0.00  0.00    -0.422 OA
BRANCH  16  17
ATOM     17  C   UNL     1      -5.820  -2.898  -1.091  0.00  0.00    +0.346 C 
ATOM     18  O   UNL     1      -5.837  -2.115  -0.162  0.00  0.00    -0.244 OA
BRANCH  17  19
ATOM     19  C   UNL     1      -7.037  -3.663  -1.433  0.00  0.00    +0.077 A 
ATOM     20  C   UNL     1      -8.216  -3.494  -0.696  0.00  0.00    +0.018 A 
ATOM     21  C   UNL     1      -9.327  -4.233  -1.059  0.00  0.00    +0.020 A 
ATOM     22  C   UNL     1      -9.240  -5.107  -2.127  0.00  0.00    +0.111 A 
ATOM     23  N   UNL     1      -8.116  -5.246  -2.804  0.00  0.00    -0.262 NA
ATOM     24  C   UNL     1      -7.033  -4.561  -2.502  0.00  0.00    +0.125 A 
ENDBRANCH  17  19
ENDBRANCH  16  17
ENDBRANCH  13  16
ENDBRANCH   2  10
BRANCH   7  25
ATOM     25  C   UNL     1       3.557  -0.414  -1.239  0.00  0.00    +0.436 C 
ATOM     26  F   UNL     1       3.316  -0.016  -2.558  0.00  0.00    -0.166 F 
ATOM     27  F   UNL     1       4.700   0.234  -0.758  0.00  0.00    -0.166 F 
ATOM     28  F   UNL     1       3.753  -1.799  -1.198  0.00  0.00    -0.166 F 
ENDBRANCH   7  25
BRANCH   1  29
ATOM     29  C   UNL     1       0.879  -0.657  -2.268  0.00  0.00    +0.173 C 
ATOM     30  O   UNL     1       0.750   0.466  -2.707  0.00  0.00    -0.292 OA
BRANCH  29  34
ATOM     31  C   UNL     1       0.609  -3.996  -4.870  0.00  0.00    +0.000 A 
ATOM     32  C   UNL     1       0.600  -2.714  -5.392  0.00  0.00    +0.001 A 
ATOM     33  C   UNL     1       0.688  -1.624  -4.553  0.00  0.00    +0.011 A 
ATOM     34  C   UNL     1       0.785  -1.816  -3.171  0.00  0.00    +0.018 A 
ATOM     35  C   UNL     1       0.798  -3.114  -2.652  0.00  0.00    +0.011 A 
ATOM     36  C   UNL     1       0.705  -4.194  -3.503  0.00  0.00    +0.001 A 
ENDBRANCH  29  34
ENDBRANCH   1  29
BRANCH   7  37
ATOM     37  O   UNL     1       2.656  -0.318   1.003  0.00  0.00    -0.364 OA
ATOM     38  H   UNL     1       3.505   0.184   1.491  0.00  0.00    +0.212 HD
ENDBRANCH   7  37
TORSDOF 8
