REMARK  Name = ZINC38904275
REMARK  9 active torsions:
REMARK  status: ('A' for Active; 'I' for Inactive)
REMARK    1  A    between atoms: C_1  and  C_2
REMARK    2  A    between atoms: C_2  and  O_3
REMARK    3  A    between atoms: O_3  and  C_4
REMARK    4  A    between atoms: C_4  and  C_6
REMARK    5  A    between atoms: C_11  and  N_12
REMARK    6  A    between atoms: C_13  and  C_15
REMARK    7  A    between atoms: N_20  and  C_22
REMARK    8  A    between atoms: C_22  and  C_23
REMARK    9  A    between atoms: C_25  and  C_28
REMARK                            x       y       z     vdW  Elec       q    Type
REMARK                         _______ _______ _______ _____ _____    ______ ____
ROOT
ATOM      1  C   UNL     1       0.357  -6.996   1.129  0.00  0.00    +0.059 C 
ATOM      2  C   UNL     1      -1.105  -6.652   0.835  0.00  0.00    +0.009 C 
ATOM      3  C   UNL     1      -1.685  -7.702  -0.118  0.00  0.00    -0.018 C 
ATOM      4  C   UNL     1      -1.530  -9.090   0.507  0.00  0.00    -0.078 C 
ATOM      5  N   UNL     1      -0.108  -9.370   0.741  0.00  0.00    +0.386 N 
ATOM      6  C   UNL     1       0.437  -8.411   1.708  0.00  0.00    -0.065 C 
ATOM      7  H   UNL     1       0.396  -9.292  -0.130  0.00  0.00    -0.081 HD
ENDROOT
BRANCH   1   9
ATOM      8  N   UNL     1       0.945  -4.698   1.831  0.00  0.00    -0.285 N 
ATOM      9  C   UNL     1       0.915  -6.013   2.126  0.00  0.00    +0.219 C 
ATOM     10  O   UNL     1       1.336  -6.404   3.194  0.00  0.00    -0.275 OA
ATOM     11  H   UNL     1       0.539  -4.376   1.011  0.00  0.00    +0.155 HD
BRANCH   8  17
ATOM     12  C   UNL     1       1.042  -2.508   2.863  0.00  0.00    +0.080 A 
ATOM     13  C   UNL     1       1.664  -1.621   3.745  0.00  0.00    +0.017 A 
ATOM     14  C   UNL     1       2.780  -2.019   4.447  0.00  0.00    +0.001 A 
ATOM     15  C   UNL     1       3.291  -3.297   4.283  0.00  0.00    +0.002 A 
ATOM     16  C   UNL     1       2.688  -4.184   3.415  0.00  0.00    +0.024 A 
ATOM     17  C   UNL     1       1.558  -3.803   2.703  0.00  0.00    +0.047 A 
BRANCH  12  18
ATOM     18  C   UNL     1      -0.153  -2.088   2.109  0.00  0.00    +0.341 C 
ATOM     19  O   UNL     1      -0.641  -2.830   1.280  0.00  0.00    -0.245 OA
BRANCH  18  20
ATOM     20  O   UNL     1      -0.705  -0.880   2.339  0.00  0.00    -0.461 OA
BRANCH  20  22
ATOM     21  C   UNL     1      -2.342   0.859   1.969  0.00  0.00    +0.048 C 
ATOM     22  C   UNL     1      -1.861  -0.538   1.572  0.00  0.00    +0.229 C 
ENDBRANCH  20  22
ENDBRANCH  18  20
ENDBRANCH  12  18
ENDBRANCH   8  17
ENDBRANCH   1   9
BRANCH   5  23
ATOM     23  C   UNL     1       0.041 -10.733   1.268  0.00  0.00    +0.022 C 
BRANCH  23  24
ATOM     24  C   UNL     1      -0.396 -11.727   0.223  0.00  0.00    +0.211 A 
ATOM     25  N   UNL     1       0.371 -12.271  -0.678  0.00  0.00    -0.193 NA
ATOM     26  C   UNL     1      -0.344 -13.110  -1.447  0.00  0.00    +0.202 A 
ATOM     27  N   UNL     1      -1.587 -13.103  -1.031  0.00  0.00    -0.056 NA
ATOM     28  O   UNL     1      -1.637 -12.204   0.067  0.00  0.00    -0.340 OA
BRANCH  26  29
ATOM     29  C   UNL     1       0.185 -13.912  -2.579  0.00  0.00    +0.023 A 
ATOM     30  C   UNL     1       1.534 -13.834  -2.920  0.00  0.00    +0.012 A 
ATOM     31  C   UNL     1       2.021 -14.581  -3.973  0.00  0.00    +0.002 A 
ATOM     32  C   UNL     1       1.173 -15.406  -4.690  0.00  0.00    +0.015 A 
ATOM     33  C   UNL     1      -0.167 -15.487  -4.356  0.00  0.00    +0.019 A 
ATOM     34  C   UNL     1      -0.664 -14.748  -3.300  0.00  0.00    +0.027 A 
ATOM     35 BR   UNL     1      -1.320 -16.617  -5.343  0.00  0.00    -0.050 Br
ENDBRANCH  26  29
ENDBRANCH  23  24
ENDBRANCH   5  23
TORSDOF 8
