REMARK  Name = ZINC20369177
REMARK  8 active torsions:
REMARK  status: ('A' for Active; 'I' for Inactive)
REMARK    1  A    between atoms: C_4  and  C_7
REMARK    2  A    between atoms: C_7  and  C_8
REMARK    3  A    between atoms: C_8  and  N_9
REMARK    4  A    between atoms: N_9  and  S_10
REMARK    5  A    between atoms: S_10  and  C_13
REMARK    6  A    between atoms: C_16  and  N_19
REMARK    7  A    between atoms: C_20  and  C_22
REMARK    8  A    between atoms: C_28  and  C_30
REMARK                            x       y       z     vdW  Elec       q    Type
REMARK                         _______ _______ _______ _____ _____    ______ ____
ROOT
ATOM      1  C   UNL     1       9.956   7.350   4.783  0.00  0.00    +0.105 A 
ATOM      2  C   UNL     1      10.335   6.375   3.879  0.00  0.00    +0.030 A 
ATOM      3  C   UNL     1       9.407   5.843   3.005  0.00  0.00    +0.025 A 
ATOM      4  C   UNL     1       8.092   6.289   3.035  0.00  0.00    +0.034 A 
ATOM      5  C   UNL     1       7.716   7.273   3.940  0.00  0.00    +0.025 A 
ATOM      6  C   UNL     1       8.648   7.796   4.815  0.00  0.00    +0.030 A 
ENDROOT
BRANCH   4   7
ATOM      7  N   UNL     1       7.150   5.753   2.150  0.00  0.00    -0.285 N 
ATOM      8  C   UNL     1       7.296   4.493   1.692  0.00  0.00    +0.220 C 
ATOM      9  O   UNL     1       8.189   3.792   2.120  0.00  0.00    -0.275 OA
ATOM     10  H   UNL     1       6.290   6.359   1.829  0.00  0.00    +0.155 HD
BRANCH   8  11
ATOM     11  C   UNL     1       6.350   3.957   0.650  0.00  0.00    +0.078 C 
ATOM     12  C   UNL     1       6.733   2.515   0.307  0.00  0.00    +0.032 C 
ATOM     13  C   UNL     1       5.748   1.961  -0.728  0.00  0.00    +0.109 C 
ATOM     14  N   UNL     1       5.717   2.868  -1.883  0.00  0.00    -0.297 N 
ATOM     15  C   UNL     1       5.452   4.295  -1.654  0.00  0.00    +0.109 C 
ATOM     16  C   UNL     1       6.435   4.822  -0.610  0.00  0.00    +0.032 C 
ATOM     17  C   UNL     1       5.932   2.401  -3.129  0.00  0.00    +0.247 C 
ATOM     18  O   UNL     1       6.072   1.207  -3.315  0.00  0.00    -0.270 OA
BRANCH  17  19
ATOM     19  C   UNL     1       5.997   3.339  -4.269  0.00  0.00    +0.037 A 
ATOM     20  C   UNL     1       7.020   3.224  -5.212  0.00  0.00    +0.014 A 
ATOM     21  C   UNL     1       7.076   4.102  -6.274  0.00  0.00    +0.021 A 
ATOM     22  C   UNL     1       6.121   5.096  -6.406  0.00  0.00    +0.041 A 
ATOM     23  C   UNL     1       5.104   5.215  -5.473  0.00  0.00    +0.021 A 
ATOM     24  C   UNL     1       5.037   4.343  -4.407  0.00  0.00    +0.014 A 
ATOM     25 CL   UNL     1       6.198   6.199  -7.745  0.00  0.00    -0.084 Cl
ENDBRANCH  17  19
ENDBRANCH   8  11
ENDBRANCH   4   7
BRANCH   1  26
ATOM     26  S   UNL     1      11.143   8.025   5.897  0.00  0.00    +0.058 S 
ATOM     27  O   UNL     1      10.415   8.530   7.009  0.00  0.00    -0.153 OA
ATOM     28  O   UNL     1      12.169   7.052   6.036  0.00  0.00    -0.153 OA
BRANCH  26  29
ATOM     29  N   UNL     1      11.829   9.333   5.148  0.00  0.00    -0.190 NA
ATOM     30  H   UNL     1      12.848   9.246   4.743  0.00  0.00    +0.148 HD
BRANCH  29  31
ATOM     31  C   UNL     1      11.014  10.509   4.836  0.00  0.00    +0.110 C 
BRANCH  31  32
ATOM     32  C   UNL     1      11.929  11.690   4.503  0.00  0.00    +0.052 C 
BRANCH  32  36
ATOM     33  C   UNL     1       9.552  15.121   3.593  0.00  0.00    +0.000 A 
ATOM     34  C   UNL     1       9.949  14.881   4.895  0.00  0.00    +0.000 A 
ATOM     35  C   UNL     1      10.718  13.771   5.190  0.00  0.00    +0.003 A 
ATOM     36  C   UNL     1      11.090  12.900   4.182  0.00  0.00    -0.046 A 
ATOM     37  C   UNL     1      10.698  13.143   2.879  0.00  0.00    +0.003 A 
ATOM     38  C   UNL     1       9.925  14.251   2.585  0.00  0.00    +0.000 A 
ENDBRANCH  32  36
ENDBRANCH  31  32
ENDBRANCH  29  31
ENDBRANCH  26  29
ENDBRANCH   1  26
TORSDOF 8
