REMARK  Name = ZINC09672150
REMARK  8 active torsions:
REMARK  status: ('A' for Active; 'I' for Inactive)
REMARK    1  A    between atoms: C_1  and  C_2
REMARK    2  A    between atoms: C_2  and  C_4
REMARK    3  A    between atoms: C_2  and  N_15
REMARK    4  A    between atoms: C_7  and  N_10
REMARK    5  A    between atoms: C_16  and  C_18
REMARK    6  A    between atoms: C_18  and  N_19
REMARK    7  A    between atoms: N_19  and  S_20
REMARK    8  A    between atoms: S_20  and  C_23
REMARK                            x       y       z     vdW  Elec       q    Type
REMARK                         _______ _______ _______ _____ _____    ______ ____
ROOT
ATOM      1  N   UNL     1       2.486  -6.534   0.828  0.00  0.00    -0.308 N 
ATOM      2  C   UNL     1       3.012  -7.648   1.376  0.00  0.00    +0.229 C 
ATOM      3  O   UNL     1       4.158  -7.961   1.133  0.00  0.00    -0.274 OA
ATOM      4  H   UNL     1       1.570  -6.284   1.023  0.00  0.00    +0.149 HD
ENDROOT
BRANCH   1   6
ATOM      5  C   UNL     1       3.230  -6.260  -1.486  0.00  0.00    +0.033 C 
ATOM      6  C   UNL     1       3.300  -5.702  -0.062  0.00  0.00    +0.100 C 
BRANCH   6   7
ATOM      7  C   UNL     1       2.774  -4.290  -0.050  0.00  0.00    -0.027 A 
ATOM      8  C   UNL     1       3.656  -3.225  -0.051  0.00  0.00    +0.007 A 
ATOM      9  C   UNL     1       3.177  -1.930  -0.039  0.00  0.00    +0.026 A 
ATOM     10  C   UNL     1       1.809  -1.697  -0.025  0.00  0.00    +0.047 A 
ATOM     11  C   UNL     1       0.925  -2.768  -0.017  0.00  0.00    +0.026 A 
ATOM     12  C   UNL     1       1.410  -4.062  -0.035  0.00  0.00    +0.007 A 
BRANCH  10  13
ATOM     13  N   UNL     1       1.319  -0.383  -0.013  0.00  0.00    -0.306 N 
ATOM     14  C   UNL     1       0.002  -0.004   0.002  0.00  0.00    +0.112 A 
ATOM     15  C   UNL     1      -0.016   1.342   0.009  0.00  0.00    +0.130 A 
ATOM     16  N   UNL     1       1.252   1.778  -0.000  0.00  0.00    -0.244 NA
ATOM     17  C   UNL     1       2.062   0.755  -0.014  0.00  0.00    +0.204 A 
ENDBRANCH  10  13
ENDBRANCH   6   7
ENDBRANCH   1   6
BRANCH   2  18
ATOM     18  C   UNL     1       2.175  -8.504   2.292  0.00  0.00    +0.201 C 
BRANCH  18  19
ATOM     19  N   UNL     1       2.969  -9.645   2.753  0.00  0.00    -0.181 NA
ATOM     20  H   UNL     1       3.796  -9.875   2.303  0.00  0.00    +0.149 HD
BRANCH  19  21
ATOM     21  S   UNL     1       2.453 -10.545   4.045  0.00  0.00    +0.059 S 
ATOM     22  O   UNL     1       3.409 -11.580   4.226  0.00  0.00    -0.153 OA
ATOM     23  O   UNL     1       2.122  -9.624   5.075  0.00  0.00    -0.153 OA
BRANCH  21  24
ATOM     24  C   UNL     1       0.948 -11.328   3.566  0.00  0.00    +0.106 A 
ATOM     25  C   UNL     1      -0.263 -10.699   3.790  0.00  0.00    +0.029 A 
ATOM     26  C   UNL     1      -1.436 -11.316   3.409  0.00  0.00    +0.006 A 
ATOM     27  C   UNL     1      -1.412 -12.570   2.813  0.00  0.00    -0.044 A 
ATOM     28  C   UNL     1      -0.207 -13.197   2.592  0.00  0.00    -0.042 A 
ATOM     29  C   UNL     1       0.974 -12.572   2.972  0.00  0.00    +0.032 A 
ATOM     30  C   UNL     1      -0.105 -14.553   1.942  0.00  0.00    +0.035 C 
ATOM     31  C   UNL     1      -1.452 -15.271   1.985  0.00  0.00    +0.005 C 
ATOM     32  C   UNL     1      -2.523 -14.324   1.431  0.00  0.00    +0.005 C 
ATOM     33  C   UNL     1      -2.731 -13.193   2.436  0.00  0.00    +0.035 C 
ENDBRANCH  21  24
ENDBRANCH  19  21
ENDBRANCH  18  19
ENDBRANCH   2  18
TORSDOF 7
