REMARK  Name = ZINC38550259
REMARK  11 active torsions:
REMARK  status: ('A' for Active; 'I' for Inactive)
REMARK    1  A    between atoms: C_1  and  C_2
REMARK    2  A    between atoms: C_7  and  C_31
REMARK    3  A    between atoms: C_9  and  N_12
REMARK    4  A    between atoms: C_13  and  C_15
REMARK    5  A    between atoms: C_15  and  N_16
REMARK    6  A    between atoms: C_21  and  O_30
REMARK    7  A    between atoms: C_22  and  O_28
REMARK    8  A    between atoms: C_25  and  C_27
REMARK    9  A    between atoms: O_28  and  C_29
REMARK   10  A    between atoms: C_31  and  O_33
REMARK   11  A    between atoms: O_33  and  C_34
REMARK                            x       y       z     vdW  Elec       q    Type
REMARK                         _______ _______ _______ _____ _____    ______ ____
ROOT
ATOM      1  N   UNL     1       0.328  -2.663   3.631  0.00  0.00    -0.288 N 
ATOM      2  C   UNL     1       0.149  -1.392   4.041  0.00  0.00    +0.201 C 
ATOM      3  O   UNL     1      -0.191  -0.541   3.248  0.00  0.00    -0.278 OA
ATOM      4  H   UNL     1       0.520  -3.359   4.278  0.00  0.00    +0.155 HD
ENDROOT
BRANCH   1  12
ATOM      5  C   UNL     1       0.356  -7.992   2.095  0.00  0.00    +0.044 C 
ATOM      6  C   UNL     1       0.276  -6.616   1.487  0.00  0.00    -0.050 A 
ATOM      7  C   UNL     1       0.171  -6.489   0.099  0.00  0.00    +0.005 A 
ATOM      8  C   UNL     1       0.095  -5.279  -0.505  0.00  0.00    +0.026 A 
ATOM      9  C   UNL     1       0.120  -4.096   0.278  0.00  0.00    +0.045 A 
ATOM     10  N   UNL     1       0.062  -2.824  -0.062  0.00  0.00    -0.367 N 
ATOM     11  C   UNL     1       0.129  -2.001   1.150  0.00  0.00    +0.234 C 
ATOM     12  C   UNL     1       0.239  -2.970   2.306  0.00  0.00    +0.053 C 
ATOM     13  C   UNL     1       0.231  -4.233   1.740  0.00  0.00    +0.018 A 
ATOM     14  C   UNL     1       0.301  -5.531   2.300  0.00  0.00    +0.015 A 
ATOM     15  H   UNL     1      -0.013  -2.486  -0.968  0.00  0.00    +0.161 HD
BRANCH  11  16
ATOM     16  C   UNL     1       1.341  -1.106   1.104  0.00  0.00    +0.335 C 
ATOM     17  O   UNL     1       2.299  -1.422   0.440  0.00  0.00    -0.248 OA
BRANCH  16  18
ATOM     18  O   UNL     1       1.355   0.041   1.800  0.00  0.00    -0.466 OA
ATOM     19  C   UNL     1       2.536   0.840   1.710  0.00  0.00    +0.280 C 
ENDBRANCH  16  18
ENDBRANCH  11  16
ENDBRANCH   1  12
BRANCH   2  20
ATOM     20  C   UNL     1       0.373  -1.028   5.487  0.00  0.00    +0.020 C 
BRANCH  20  21
ATOM     21  N   UNL     1       0.115   0.405   5.677  0.00  0.00    +0.390 N 
ATOM     22  C   UNL     1       1.113   1.188   4.931  0.00  0.00    -0.073 C 
ATOM     23  C   UNL     1       0.654   2.646   4.886  0.00  0.00    +0.017 C 
ATOM     24  C   UNL     1       0.314   3.117   6.277  0.00  0.00    -0.044 A 
ATOM     25  C   UNL     1       0.213   4.481   6.509  0.00  0.00    +0.053 A 
ATOM     26  C   UNL     1      -0.101   4.954   7.770  0.00  0.00    +0.159 A 
ATOM     27  C   UNL     1      -0.315   4.054   8.810  0.00  0.00    +0.161 A 
ATOM     28  C   UNL     1      -0.211   2.695   8.574  0.00  0.00    +0.051 A 
ATOM     29  C   UNL     1       0.105   2.225   7.307  0.00  0.00    -0.054 A 
ATOM     30  C   UNL     1       0.215   0.737   7.101  0.00  0.00    -0.040 C 
ATOM     31  C   UNL     1      -0.912   0.037   7.862  0.00  0.00    -0.008 C 
ATOM     32  H   UNL     1      -0.810   0.629   5.342  0.00  0.00    -0.080 HD
BRANCH  27  33
ATOM     33  O   UNL     1      -0.625   4.509  10.054  0.00  0.00    -0.491 OA
ATOM     34  C   UNL     1      -0.832   3.526  11.071  0.00  0.00    +0.277 C 
ENDBRANCH  27  33
BRANCH  26  35
ATOM     35  O   UNL     1      -0.199   6.292   7.994  0.00  0.00    -0.503 OA
ATOM     36  H   UNL     1      -1.087   6.650   7.855  0.00  0.00    +0.292 HD
ENDBRANCH  26  35
ENDBRANCH  20  21
ENDBRANCH   2  20
TORSDOF 7
