REMARK  Name = ZINC49206371
REMARK  7 active torsions:
REMARK  status: ('A' for Active; 'I' for Inactive)
REMARK    1  A    between atoms: C_1  and  C_2
REMARK    2  A    between atoms: C_6  and  O_17
REMARK    3  A    between atoms: C_7  and  N_8
REMARK    4  A    between atoms: N_11  and  N_12
REMARK    5  A    between atoms: C_13  and  O_15
REMARK    6  A    between atoms: O_15  and  C_16
REMARK    7  A    between atoms: O_17  and  C_18
REMARK                            x       y       z     vdW  Elec       q    Type
REMARK                         _______ _______ _______ _____ _____    ______ ____
ROOT
ATOM      1  N   UNL     1       0.025  -0.011   2.418  0.00  0.00    -0.265 N 
ATOM      2  C   UNL     1       0.248  -0.675   3.570  0.00  0.00    +0.320 C 
ATOM      3  O   UNL     1       0.537  -1.856   3.545  0.00  0.00    -0.251 OA
ATOM      4  N   UNL     1       0.151  -0.029   4.749  0.00  0.00    -0.215 N 
ATOM      5  H   UNL     1      -0.132   0.946   2.432  0.00  0.00    +0.157 HD
ATOM      6  H   UNL     1       0.311  -0.507   5.578  0.00  0.00    +0.174 HD
ENDROOT
BRANCH   1  13
ATOM      7  C   UNL     1       2.446  -0.126   0.929  0.00  0.00    +0.046 C 
ATOM      8  C   UNL     1       1.181  -0.784   0.442  0.00  0.00    -0.025 A 
ATOM      9  C   UNL     1       1.177  -1.473  -0.757  0.00  0.00    +0.020 A 
ATOM     10  C   UNL     1       0.017  -2.079  -1.206  0.00  0.00    +0.022 A 
ATOM     11  C   UNL     1      -1.144  -1.997  -0.459  0.00  0.00    +0.062 A 
ATOM     12  C   UNL     1      -1.148  -1.308   0.743  0.00  0.00    +0.143 A 
ATOM     13  C   UNL     1       0.022  -0.704   1.199  0.00  0.00    +0.080 A 
ATOM     14 BR   UNL     1       0.019  -3.019  -2.847  0.00  0.00    -0.050 Br
BRANCH  12  15
ATOM     15  O   UNL     1      -2.288  -1.228   1.479  0.00  0.00    -0.493 OA
ATOM     16  C   UNL     1      -3.447  -1.876   0.952  0.00  0.00    +0.277 C 
ENDBRANCH  12  15
ENDBRANCH   1  13
BRANCH   4  17
ATOM     17  N   UNL     1      -0.181   1.331   4.777  0.00  0.00    -0.198 N 
ATOM     18  C   UNL     1      -0.278   1.977   5.957  0.00  0.00    +0.417 C 
ATOM     19  O   UNL     1      -0.566   3.157   5.981  0.00  0.00    -0.225 OA
ATOM     20  H   UNL     1      -0.341   1.809   3.948  0.00  0.00    +0.176 HD
BRANCH  18  21
ATOM     21  O   UNL     1      -0.056   1.314   7.107  0.00  0.00    -0.453 OA
ATOM     22  C   UNL     1      -0.176   2.061   8.320  0.00  0.00    +0.282 C 
ENDBRANCH  18  21
ENDBRANCH   4  17
TORSDOF 4
