REMARK  Name = ZINC64837212
REMARK  9 active torsions:
REMARK  status: ('A' for Active; 'I' for Inactive)
REMARK    1  A    between atoms: C_1  and  C_2
REMARK    2  A    between atoms: C_2  and  C_3
REMARK    3  A    between atoms: C_6  and  C_22
REMARK    4  A    between atoms: C_8  and  S_9
REMARK    5  A    between atoms: S_9  and  N_12
REMARK    6  A    between atoms: N_12  and  C_13
REMARK    7  A    between atoms: C_18  and  O_19
REMARK    8  A    between atoms: O_19  and  C_20
REMARK    9  A    between atoms: C_20  and  C_21
REMARK                            x       y       z     vdW  Elec       q    Type
REMARK                         _______ _______ _______ _____ _____    ______ ____
ROOT
ATOM      1  C   UNL     1       0.811  -0.545  -1.415  0.00  0.00    -0.021 A 
ATOM      2  C   UNL     1       0.081  -0.749  -2.573  0.00  0.00    +0.006 A 
ATOM      3  C   UNL     1       0.725  -1.078  -3.748  0.00  0.00    +0.010 A 
ATOM      4  C   UNL     1       2.113  -1.204  -3.767  0.00  0.00    +0.004 A 
ATOM      5  C   UNL     1       2.843  -0.997  -2.598  0.00  0.00    +0.039 A 
ATOM      6  C   UNL     1       2.188  -0.664  -1.429  0.00  0.00    +0.112 A 
ENDROOT
BRANCH   4   7
ATOM      7  C   UNL     1       2.811  -1.558  -5.028  0.00  0.00    +0.091 A 
ATOM      8  C   UNL     1       2.065  -1.768  -6.211  0.00  0.00    +0.035 A 
ATOM      9  C   UNL     1       2.740  -2.091  -7.351  0.00  0.00    +0.073 A 
ATOM     10  C   UNL     1       4.147  -2.198  -7.278  0.00  0.00    +0.265 A 
ATOM     11  O   UNL     1       4.794  -2.485  -8.273  0.00  0.00    -0.266 OA
ATOM     12  N   UNL     1       4.769  -1.980  -6.104  0.00  0.00    -0.243 N 
ATOM     13  N   UNL     1       4.118  -1.671  -5.042  0.00  0.00    -0.171 NA
ATOM     14  H   UNL     1       5.735  -2.054  -6.061  0.00  0.00    +0.192 HD
ENDBRANCH   4   7
BRANCH   6  15
ATOM     15  S   UNL     1       3.110  -0.396   0.048  0.00  0.00    +0.073 S 
ATOM     16  O   UNL     1       4.473  -0.638  -0.273  0.00  0.00    -0.150 OA
ATOM     17  O   UNL     1       2.663   0.841   0.587  0.00  0.00    -0.150 OA
BRANCH  15  18
ATOM     18  N   UNL     1       2.662  -1.571   1.125  0.00  0.00    -0.213 N 
ATOM     19  H   UNL     1       2.268  -1.325   1.977  0.00  0.00    +0.174 HD
BRANCH  18  20
ATOM     20  C   UNL     1       2.850  -2.921   0.806  0.00  0.00    +0.090 A 
ATOM     21  C   UNL     1       3.959  -3.314   0.070  0.00  0.00    +0.028 A 
ATOM     22  C   UNL     1       4.143  -4.647  -0.243  0.00  0.00    +0.002 A 
ATOM     23  C   UNL     1       3.224  -5.592   0.175  0.00  0.00    +0.004 A 
ATOM     24  C   UNL     1       2.116  -5.208   0.908  0.00  0.00    +0.047 A 
ATOM     25  C   UNL     1       1.927  -3.875   1.231  0.00  0.00    +0.143 A 
BRANCH  25  26
ATOM     26  O   UNL     1       0.841  -3.496   1.957  0.00  0.00    -0.490 OA
BRANCH  26  27
ATOM     27  C   UNL     1      -0.062  -4.528   2.358  0.00  0.00    +0.226 C 
ATOM     28  C   UNL     1      -1.213  -3.915   3.159  0.00  0.00    +0.048 C 
ENDBRANCH  26  27
ENDBRANCH  25  26
ENDBRANCH  18  20
ENDBRANCH  15  18
ENDBRANCH   6  15
BRANCH   1  30
ATOM     29  C   UNL     1      -0.032   1.335  -0.035  0.00  0.00    +0.009 C 
ATOM     30  C   UNL     1       0.102  -0.185  -0.135  0.00  0.00    +0.034 C 
ENDBRANCH   1  30
TORSDOF 7
