REMARK  Name = ZINC21763059
REMARK  10 active torsions:
REMARK  status: ('A' for Active; 'I' for Inactive)
REMARK    1  A    between atoms: C_1  and  C_2
REMARK    2  A    between atoms: C_3  and  C_32
REMARK    3  A    between atoms: C_11  and  C_13
REMARK    4  A    between atoms: C_13  and  N_14
REMARK    5  A    between atoms: N_17  and  C_20
REMARK    6  A    between atoms: C_20  and  N_22
REMARK    7  A    between atoms: N_22  and  C_23
REMARK    8  A    between atoms: C_23  and  C_24
REMARK    9  A    between atoms: C_24  and  C_25
REMARK   10  A    between atoms: C_25  and  N_26
REMARK                            x       y       z     vdW  Elec       q    Type
REMARK                         _______ _______ _______ _____ _____    ______ ____
ROOT
ATOM      1  N   UNL     1       0.101  -4.814   4.049  0.00  0.00    -0.292 NA
ATOM      2  C   UNL     1      -1.148  -5.138   3.348  0.00  0.00    +0.104 C 
ATOM      3  C   UNL     1      -1.020  -6.518   2.695  0.00  0.00    +0.122 C 
ATOM      4  N   UNL     1      -0.617  -7.487   3.725  0.00  0.00    -0.310 N 
ATOM      5  C   UNL     1       0.549  -7.166   4.564  0.00  0.00    +0.122 C 
ATOM      6  C   UNL     1       0.359  -5.760   5.143  0.00  0.00    +0.104 C 
ENDROOT
BRANCH   4   7
ATOM      7  C   UNL     1      -1.296  -8.638   3.897  0.00  0.00    +0.133 C 
ATOM      8  S   UNL     1      -2.725  -8.930   3.001  0.00  0.00    -0.019 S 
BRANCH   7   9
ATOM      9  N   UNL     1      -0.850  -9.559   4.773  0.00  0.00    -0.326 N 
ATOM     10  H   UNL     1      -0.082  -9.365   5.333  0.00  0.00    +0.148 HD
BRANCH   9  11
ATOM     11  C   UNL     1      -1.525 -10.855   4.880  0.00  0.00    +0.104 C 
BRANCH  11  12
ATOM     12  C   UNL     1      -0.825 -11.709   5.940  0.00  0.00    +0.034 C 
BRANCH  12  13
ATOM     13  C   UNL     1      -1.530 -13.062   6.052  0.00  0.00    +0.086 C 
BRANCH  13  14
ATOM     14  N   UNL     1      -0.858 -13.882   7.069  0.00  0.00    -0.298 NA
ATOM     15  C   UNL     1       0.503 -14.238   6.644  0.00  0.00    +0.112 C 
ATOM     16  C   UNL     1       1.187 -15.039   7.755  0.00  0.00    +0.175 C 
ATOM     17  O   UNL     1       0.396 -16.191   8.061  0.00  0.00    -0.377 OA
ATOM     18  C   UNL     1      -0.936 -15.880   8.480  0.00  0.00    +0.175 C 
ATOM     19  C   UNL     1      -1.641 -15.088   7.376  0.00  0.00    +0.112 C 
ENDBRANCH  13  14
ENDBRANCH  12  13
ENDBRANCH  11  12
ENDBRANCH   9  11
ENDBRANCH   7   9
ENDBRANCH   4   7
BRANCH   1  20
ATOM     20  C   UNL     1       0.084  -3.430   4.543  0.00  0.00    +0.158 C 
BRANCH  20  31
ATOM     21  C   UNL     1      -0.012   1.497  -0.003  0.00  0.00    +0.045 C 
ATOM     22  C   UNL     1       0.009  -0.010  -0.009  0.00  0.00    -0.026 A 
ATOM     23  C   UNL     1       0.017  -0.685  -1.169  0.00  0.00    -0.008 A 
ATOM     24  S   UNL     1       0.043  -2.392  -0.654  0.00  0.00    -0.073 S 
ATOM     25  C   UNL     1       0.042  -2.148   1.103  0.00  0.00    +0.116 A 
ATOM     26  C   UNL     1       0.028  -0.749   1.240  0.00  0.00    +0.075 A 
ATOM     27  C   UNL     1       0.028  -0.258   2.587  0.00  0.00    +0.260 A 
ATOM     28  O   UNL     1       0.011   0.941   2.809  0.00  0.00    -0.267 OA
ATOM     29  N   UNL     1       0.047  -1.141   3.602  0.00  0.00    -0.309 N 
ATOM     30  H   UNL     1       0.047  -0.815   4.516  0.00  0.00    +0.170 HD
ATOM     31  C   UNL     1       0.064  -2.480   3.373  0.00  0.00    +0.125 A 
ATOM     32  N   UNL     1       0.055  -2.958   2.158  0.00  0.00    -0.225 NA
ATOM     33  C   UNL     1       0.007  -0.132  -2.571  0.00  0.00    +0.052 C 
ENDBRANCH  20  31
ENDBRANCH   1  20
TORSDOF 8
