REMARK  Name = ZINC02085337
REMARK  14 active torsions:
REMARK  status: ('A' for Active; 'I' for Inactive)
REMARK    1  A    between atoms: C_1  and  C_2
REMARK    2  A    between atoms: C_6  and  N_9
REMARK    3  A    between atoms: C_7  and  C_8
REMARK    4  A    between atoms: N_9  and  C_10
REMARK    5  A    between atoms: N_9  and  S_21
REMARK    6  A    between atoms: C_10  and  C_11
REMARK    7  A    between atoms: N_13  and  C_14
REMARK    8  A    between atoms: C_14  and  C_15
REMARK    9  A    between atoms: C_14  and  C_18
REMARK   10  A    between atoms: C_15  and  C_16
REMARK   11  A    between atoms: C_15  and  C_17
REMARK   12  A    between atoms: C_18  and  C_19
REMARK   13  A    between atoms: C_18  and  C_20
REMARK   14  A    between atoms: S_21  and  C_24
REMARK                            x       y       z     vdW  Elec       q    Type
REMARK                         _______ _______ _______ _____ _____    ______ ____
ROOT
ATOM      1  N   UNL     1       1.002   3.215   0.082  0.00  0.00    -0.199 N 
ENDROOT
BRANCH   1   7
ATOM      2  C   UNL     1       0.312  -1.334   1.809  0.00  0.00    +0.044 C 
ATOM      3  C   UNL     1       1.224  -0.233   1.335  0.00  0.00    -0.046 A 
ATOM      4  C   UNL     1       2.592  -0.434   1.304  0.00  0.00    +0.004 A 
ATOM      5  C   UNL     1       3.433   0.574   0.869  0.00  0.00    +0.002 A 
ATOM      6  C   UNL     1       2.909   1.785   0.463  0.00  0.00    +0.025 A 
ATOM      7  C   UNL     1       1.535   1.991   0.492  0.00  0.00    +0.055 A 
ATOM      8  C   UNL     1       0.693   0.976   0.930  0.00  0.00    -0.025 A 
ATOM      9  C   UNL     1      -0.797   1.194   0.964  0.00  0.00    +0.046 C 
ENDBRANCH   1   7
BRANCH   1  10
ATOM     10  S   UNL     1       0.529   3.427  -1.490  0.00  0.00    +0.043 S 
ATOM     11  O   UNL     1       0.792   4.796  -1.766  0.00  0.00    -0.155 OA
ATOM     12  O   UNL     1       1.197   2.401  -2.212  0.00  0.00    -0.155 OA
ATOM     13  C   UNL     1      -1.260   3.123  -1.484  0.00  0.00    +0.218 C 
ENDBRANCH   1  10
BRANCH   1  14
ATOM     14  C   UNL     1       0.861   4.311   1.044  0.00  0.00    +0.226 C 
BRANCH  14  15
ATOM     15  C   UNL     1       2.157   5.074   1.129  0.00  0.00    +0.232 C 
ATOM     16  O   UNL     1       3.071   4.804   0.379  0.00  0.00    -0.274 OA
ATOM     17  N   UNL     1       2.302   6.058   2.040  0.00  0.00    -0.311 N 
ATOM     18  H   UNL     1       1.571   6.274   2.640  0.00  0.00    +0.149 HD
BRANCH  17  19
ATOM     19  C   UNL     1       3.562   6.800   2.123  0.00  0.00    +0.078 C 
BRANCH  19  20
ATOM     20  C   UNL     1       3.549   7.943   1.106  0.00  0.00    +0.003 C 
ATOM     21  C   UNL     1       3.543   7.366  -0.311  0.00  0.00    +0.009 C 
ATOM     22  C   UNL     1       2.296   8.796   1.314  0.00  0.00    +0.009 C 
ENDBRANCH  19  20
BRANCH  19  23
ATOM     23  C   UNL     1       3.725   7.372   3.532  0.00  0.00    +0.003 C 
ATOM     24  C   UNL     1       3.770   6.227   4.546  0.00  0.00    +0.009 C 
ATOM     25  C   UNL     1       5.027   8.173   3.610  0.00  0.00    +0.009 C 
ENDBRANCH  19  23
ENDBRANCH  17  19
ENDBRANCH  14  15
ENDBRANCH   1  14
TORSDOF 7
