REMARK  Name = ZINC39688715
REMARK  6 active torsions:
REMARK  status: ('A' for Active; 'I' for Inactive)
REMARK    1  A    between atoms: C_1  and  C_2
REMARK    2  A    between atoms: C_2  and  C_4
REMARK    3  A    between atoms: C_2  and  N_12
REMARK    4  A    between atoms: C_4  and  C_5
REMARK    5  A    between atoms: C_13  and  C_15
REMARK    6  A    between atoms: C_26  and  C_28
REMARK                            x       y       z     vdW  Elec       q    Type
REMARK                         _______ _______ _______ _____ _____    ______ ____
ROOT
ATOM      1  C   UNL     1       0.837  -1.811  -3.893  0.00  0.00    +0.100 C 
ATOM      2  C   UNL     1       1.778  -0.611  -4.144  0.00  0.00    +0.121 C 
ATOM      3  N   UNL     1       1.677  -0.355  -5.600  0.00  0.00    -0.296 N 
ATOM      4  C   UNL     1       0.242  -0.560  -5.911  0.00  0.00    +0.115 C 
ATOM      5  C   UNL     1      -0.170  -1.773  -5.054  0.00  0.00    -0.004 C 
ATOM      6  C   UNL     1      -1.586  -1.585  -4.520  0.00  0.00    -0.010 C 
ATOM      7  C   UNL     1      -2.576  -1.609  -5.688  0.00  0.00    -0.082 C 
ATOM      8  N   UNL     1      -2.466  -2.889  -6.399  0.00  0.00    +0.379 N 
ATOM      9  C   UNL     1      -1.128  -3.020  -6.989  0.00  0.00    -0.082 C 
ATOM     10  C   UNL     1      -0.077  -3.056  -5.875  0.00  0.00    -0.010 C 
ATOM     11  C   UNL     1       2.666  -0.012  -6.449  0.00  0.00    +0.248 C 
ATOM     12  O   UNL     1       2.409   0.245  -7.610  0.00  0.00    -0.270 OA
ATOM     13  H   UNL     1      -2.622  -3.646  -5.750  0.00  0.00    -0.086 HD
ATOM     14  H   UNL     1      -3.160  -2.927  -7.130  0.00  0.00    -0.086 HD
ENDROOT
BRANCH  11  15
ATOM     15  C   UNL     1       4.053   0.050  -5.973  0.00  0.00    +0.052 A 
ATOM     16  C   UNL     1       4.348   0.518  -4.732  0.00  0.00    +0.059 A 
ATOM     17  S   UNL     1       6.017   0.416  -4.602  0.00  0.00    -0.096 S 
ATOM     18  C   UNL     1       6.415  -0.256  -6.192  0.00  0.00    +0.020 A 
ATOM     19  C   UNL     1       5.163  -0.397  -6.819  0.00  0.00    +0.001 A 
ATOM     20  C   UNL     1       5.150  -0.925  -8.124  0.00  0.00    +0.010 A 
ATOM     21  C   UNL     1       6.323  -1.285  -8.739  0.00  0.00    +0.001 A 
ATOM     22  C   UNL     1       7.545  -1.140  -8.098  0.00  0.00    +0.001 A 
ATOM     23  C   UNL     1       7.588  -0.615  -6.821  0.00  0.00    +0.015 A 
ENDBRANCH  11  15
BRANCH   1  25
ATOM     24  N   UNL     1      -0.214  -2.741  -1.856  0.00  0.00    -0.312 N 
ATOM     25  C   UNL     1       0.124  -1.652  -2.574  0.00  0.00    +0.218 C 
ATOM     26  O   UNL     1      -0.145  -0.544  -2.160  0.00  0.00    -0.275 OA
ATOM     27  H   UNL     1       0.001  -3.627  -2.187  0.00  0.00    +0.149 HD
BRANCH  24  29
ATOM     28  C   UNL     1       0.119  -2.353   0.536  0.00  0.00    +0.028 C 
ATOM     29  C   UNL     1      -0.907  -2.586  -0.574  0.00  0.00    +0.074 C 
BRANCH  29  30
ATOM     30  C   UNL     1      -1.708  -3.854  -0.271  0.00  0.00    +0.057 C 
BRANCH  30  31
ATOM     31  C   UNL     1      -2.799  -4.017  -1.298  0.00  0.00    -0.045 A 
ATOM     32  C   UNL     1      -4.042  -3.452  -1.080  0.00  0.00    +0.006 A 
ATOM     33  C   UNL     1      -5.043  -3.600  -2.021  0.00  0.00    +0.038 A 
ATOM     34  C   UNL     1      -4.801  -4.315  -3.182  0.00  0.00    +0.123 A 
ATOM     35  C   UNL     1      -3.556  -4.881  -3.398  0.00  0.00    +0.038 A 
ATOM     36  C   UNL     1      -2.555  -4.726  -2.458  0.00  0.00    +0.006 A 
ATOM     37  F   UNL     1      -5.780  -4.461  -4.102  0.00  0.00    -0.205 F 
ENDBRANCH  30  31
ENDBRANCH  29  30
ENDBRANCH  24  29
ENDBRANCH   1  25
TORSDOF 5
