REMARK  Name = ZINC39483632
REMARK  7 active torsions:
REMARK  status: ('A' for Active; 'I' for Inactive)
REMARK    1  A    between atoms: C_4  and  C_7
REMARK    2  A    between atoms: C_7  and  C_8
REMARK    3  A    between atoms: C_8  and  C_10
REMARK    4  A    between atoms: C_12  and  C_28
REMARK    5  A    between atoms: C_22  and  O_24
REMARK    6  A    between atoms: C_32  and  C_34
REMARK    7  A    between atoms: C_39  and  O_40
REMARK                            x       y       z     vdW  Elec       q    Type
REMARK                         _______ _______ _______ _____ _____    ______ ____
ROOT
ATOM      1  C   UNL     1       5.460  -1.684   1.635  0.00  0.00    +0.103 C 
ATOM      2  C   UNL     1       6.000  -1.289   3.007  0.00  0.00    +0.063 C 
ATOM      3  C   UNL     1       7.224  -2.089   3.362  0.00  0.00    -0.025 A 
ATOM      4  C   UNL     1       8.108  -1.582   4.295  0.00  0.00    +0.054 A 
ATOM      5  C   UNL     1       9.245  -2.296   4.649  0.00  0.00    +0.167 A 
ATOM      6  C   UNL     1       9.505  -3.536   4.061  0.00  0.00    +0.167 A 
ATOM      7  C   UNL     1       8.630  -4.051   3.128  0.00  0.00    +0.061 A 
ATOM      8  C   UNL     1       7.485  -3.328   2.772  0.00  0.00    +0.028 A 
ATOM      9  C   UNL     1       6.559  -3.878   1.767  0.00  0.00    +0.192 C 
ATOM     10  O   UNL     1       6.862  -4.842   1.096  0.00  0.00    -0.289 OA
ATOM     11  C   UNL     1       5.216  -3.198   1.601  0.00  0.00    +0.196 C 
ATOM     12  O   UNL     1      10.672  -4.025   4.575  0.00  0.00    -0.453 OA
ATOM     13  C   UNL     1      11.331  -2.893   5.174  0.00  0.00    +0.466 C 
ATOM     14  O   UNL     1      10.248  -2.013   5.527  0.00  0.00    -0.453 OA
ENDROOT
BRANCH   2  15
ATOM     15  C   UNL     1       6.354   0.175   2.996  0.00  0.00    -0.039 A 
ATOM     16  C   UNL     1       7.300   0.650   2.104  0.00  0.00    +0.004 A 
ATOM     17  C   UNL     1       7.629   1.993   2.087  0.00  0.00    +0.001 A 
ATOM     18  C   UNL     1       7.017   2.868   2.962  0.00  0.00    +0.008 A 
ATOM     19  C   UNL     1       6.064   2.395   3.863  0.00  0.00    -0.014 A 
ATOM     20  C   UNL     1       5.731   1.042   3.871  0.00  0.00    +0.013 A 
BRANCH  19  21
ATOM     21  C   UNL     1       5.403   3.330   4.806  0.00  0.00    +0.024 A 
ATOM     22  C   UNL     1       4.015   3.337   4.926  0.00  0.00    +0.012 A 
ATOM     23  C   UNL     1       3.405   4.208   5.805  0.00  0.00    +0.001 A 
ATOM     24  C   UNL     1       4.166   5.077   6.567  0.00  0.00    +0.004 A 
ATOM     25  C   UNL     1       5.543   5.079   6.455  0.00  0.00    +0.046 A 
ATOM     26  C   UNL     1       6.170   4.205   5.581  0.00  0.00    +0.125 A 
BRANCH  26  27
ATOM     27  O   UNL     1       7.524   4.202   5.474  0.00  0.00    -0.506 OA
ATOM     28  H   UNL     1       7.867   4.809   4.805  0.00  0.00    +0.292 HD
ENDBRANCH  26  27
ENDBRANCH  19  21
ENDBRANCH   2  15
BRANCH   1  29
ATOM     29  C   UNL     1       4.164  -0.959   1.377  0.00  0.00    +0.144 C 
ATOM     30  O   UNL     1       3.489  -0.581   2.304  0.00  0.00    -0.297 OA
BRANCH  29  31
ATOM     31  C   UNL     1       3.711  -0.707  -0.038  0.00  0.00    +0.109 C 
BRANCH  31  35
ATOM     32  C   UNL     1      -0.017   1.378   0.010  0.00  0.00    +0.000 A 
ATOM     33  C   UNL     1       1.171   2.086   0.002  0.00  0.00    +0.000 A 
ATOM     34  C   UNL     1       2.377   1.411  -0.013  0.00  0.00    +0.004 A 
ATOM     35  C   UNL     1       2.396   0.029  -0.020  0.00  0.00    -0.040 A 
ATOM     36  C   UNL     1       1.208  -0.679  -0.012  0.00  0.00    +0.004 A 
ATOM     37  C   UNL     1       0.002  -0.004   0.002  0.00  0.00    +0.000 A 
ENDBRANCH  31  35
ENDBRANCH  29  31
ENDBRANCH   1  29
BRANCH  11  38
ATOM     38  O   UNL     1       4.346  -3.574   2.671  0.00  0.00    -0.383 OA
ATOM     39  H   UNL     1       4.152  -4.521   2.706  0.00  0.00    +0.210 HD
ENDBRANCH  11  38
TORSDOF 7
