REMARK  Name = ZINC16182389
REMARK  9 active torsions:
REMARK  status: ('A' for Active; 'I' for Inactive)
REMARK    1  A    between atoms: C_2  and  C_3
REMARK    2  A    between atoms: C_3  and  N_4
REMARK    3  A    between atoms: N_4  and  C_5
REMARK    4  A    between atoms: C_5  and  N_7
REMARK    5  A    between atoms: N_7  and  C_8
REMARK    6  A    between atoms: C_11  and  N_25
REMARK    7  A    between atoms: C_12  and  S_14
REMARK    8  A    between atoms: S_14  and  N_17
REMARK    9  A    between atoms: N_17  and  C_18
REMARK                            x       y       z     vdW  Elec       q    Type
REMARK                         _______ _______ _______ _____ _____    ______ ____
ROOT
ATOM      1  C   UNL     1      -2.048  -1.728  -0.209  0.00  0.00    +0.035 A 
ATOM      2  C   UNL     1      -0.694  -1.995  -0.060  0.00  0.00    +0.025 A 
ATOM      3  C   UNL     1      -0.265  -3.288   0.164  0.00  0.00    +0.027 A 
ATOM      4  C   UNL     1      -1.188  -4.324   0.228  0.00  0.00    +0.057 A 
ATOM      5  C   UNL     1      -2.542  -4.059   0.073  0.00  0.00    +0.131 A 
ATOM      6  C   UNL     1      -2.971  -2.764  -0.144  0.00  0.00    +0.054 A 
ENDROOT
BRANCH   4   7
ATOM      7  N   UNL     1      -0.753  -5.636   0.449  0.00  0.00    -0.328 N 
ATOM      8  C   UNL     1      -0.048  -5.747   1.733  0.00  0.00    +0.105 C 
ATOM      9  C   UNL     1       0.283  -7.215   2.009  0.00  0.00    +0.019 C 
ATOM     10  C   UNL     1       1.160  -7.757   0.876  0.00  0.00    +0.003 C 
ATOM     11  C   UNL     1       0.423  -7.585  -0.456  0.00  0.00    +0.019 C 
ATOM     12  C   UNL     1       0.087  -6.106  -0.660  0.00  0.00    +0.105 C 
ENDBRANCH   4   7
BRANCH   5  13
ATOM     13  S   UNL     1      -3.712  -5.373   0.155  0.00  0.00    +0.074 S 
ATOM     14  O   UNL     1      -4.999  -4.776   0.077  0.00  0.00    -0.150 OA
ATOM     15  O   UNL     1      -3.275  -6.364  -0.764  0.00  0.00    -0.150 OA
BRANCH  13  16
ATOM     16  N   UNL     1      -3.592  -6.042   1.665  0.00  0.00    -0.216 N 
ATOM     17  H   UNL     1      -3.297  -6.960   1.767  0.00  0.00    +0.174 HD
BRANCH  16  18
ATOM     18  C   UNL     1      -3.917  -5.284   2.794  0.00  0.00    +0.048 A 
ATOM     19  C   UNL     1      -3.402  -4.002   2.942  0.00  0.00    +0.026 A 
ATOM     20  C   UNL     1      -3.729  -3.252   4.055  0.00  0.00    +0.022 A 
ATOM     21  C   UNL     1      -4.559  -3.782   5.028  0.00  0.00    +0.041 A 
ATOM     22  C   UNL     1      -5.068  -5.061   4.885  0.00  0.00    +0.022 A 
ATOM     23  C   UNL     1      -4.749  -5.812   3.771  0.00  0.00    +0.026 A 
ATOM     24 CL   UNL     1      -4.962  -2.840   6.429  0.00  0.00    -0.084 Cl
ENDBRANCH  16  18
ENDBRANCH  13  16
ENDBRANCH   5  13
BRANCH   1  25
ATOM     25  N   UNL     1      -2.484  -0.415  -0.430  0.00  0.00    -0.297 N 
ATOM     26  H   UNL     1      -2.015   0.151  -1.062  0.00  0.00    +0.154 HD
BRANCH  25  27
ATOM     27  C   UNL     1      -3.554   0.061   0.237  0.00  0.00    +0.135 C 
ATOM     28  S   UNL     1      -4.442  -0.968   1.277  0.00  0.00    -0.019 S 
BRANCH  27  29
ATOM     29  N   UNL     1      -3.925   1.348   0.084  0.00  0.00    -0.323 N 
ATOM     30  H   UNL     1      -3.420   1.932  -0.502  0.00  0.00    +0.148 HD
BRANCH  29  31
ATOM     31  C   UNL     1      -5.088   1.866   0.809  0.00  0.00    +0.130 C 
BRANCH  31  33
ATOM     32  C   UNL     1      -6.441   3.731   0.001  0.00  0.00    +0.005 C 
ATOM     33  C   UNL     1      -5.288   3.319   0.466  0.00  0.00    -0.016 C 
ENDBRANCH  31  33
ENDBRANCH  29  31
ENDBRANCH  27  29
ENDBRANCH  25  27
ENDBRANCH   1  25
TORSDOF 9
