REMARK  Name = ZINC36586923
REMARK  12 active torsions:
REMARK  status: ('A' for Active; 'I' for Inactive)
REMARK    1  A    between atoms: C_1  and  C_2
REMARK    2  A    between atoms: C_2  and  C_3
REMARK    3  A    between atoms: C_2  and  C_4
REMARK    4  A    between atoms: C_2  and  N_5
REMARK    5  A    between atoms: N_5  and  C_6
REMARK    6  A    between atoms: C_6  and  C_8
REMARK    7  A    between atoms: C_6  and  C_18
REMARK    8  A    between atoms: C_11  and  C_14
REMARK    9  A    between atoms: N_20  and  C_21
REMARK   10  A    between atoms: C_27  and  C_29
REMARK   11  A    between atoms: C_33  and  O_36
REMARK   12  A    between atoms: C_34  and  O_35
REMARK                            x       y       z     vdW  Elec       q    Type
REMARK                         _______ _______ _______ _____ _____    ______ ____
ROOT
ATOM      1  C   UNL     1      -1.527  -0.829   1.614  0.00  0.00    +0.193 C 
ENDROOT
BRANCH   1   2
ATOM      2  C   UNL     1      -2.083  -0.011   2.751  0.00  0.00    -0.018 A 
ATOM      3  C   UNL     1      -3.433  -0.058   3.041  0.00  0.00    +0.006 A 
ATOM      4  C   UNL     1      -3.943   0.693   4.084  0.00  0.00    +0.013 A 
ATOM      5  C   UNL     1      -3.102   1.490   4.837  0.00  0.00    +0.055 A 
ATOM      6  C   UNL     1      -1.751   1.536   4.548  0.00  0.00    +0.013 A 
ATOM      7  C   UNL     1      -1.241   0.783   3.508  0.00  0.00    +0.006 A 
BRANCH   5   8
ATOM      8  C   UNL     1      -3.658   2.309   5.974  0.00  0.00    +0.417 C 
ATOM      9  F   UNL     1      -3.618   1.557   7.153  0.00  0.00    -0.166 F 
ATOM     10  F   UNL     1      -2.889   3.467   6.133  0.00  0.00    -0.166 F 
ATOM     11  F   UNL     1      -4.981   2.662   5.690  0.00  0.00    -0.166 F 
ENDBRANCH   5   8
ENDBRANCH   1   2
BRANCH   1  12
ATOM     12  C   UNL     1      -0.034  -0.957   1.770  0.00  0.00    +0.238 C 
ATOM     13  O   UNL     1       0.464  -2.044   1.971  0.00  0.00    -0.273 OA
ATOM     14  N   UNL     1       0.749   0.137   1.686  0.00  0.00    -0.311 N 
ATOM     15  H   UNL     1       0.351   1.007   1.525  0.00  0.00    +0.149 HD
BRANCH  14  16
ATOM     16  C   UNL     1       2.201   0.013   1.838  0.00  0.00    +0.073 C 
ATOM     17  C   UNL     1       2.563   0.047   3.324  0.00  0.00    +0.022 C 
ATOM     18  C   UNL     1       4.079  -0.083   3.482  0.00  0.00    +0.002 C 
ATOM     19  C   UNL     1       4.769   1.078   2.762  0.00  0.00    +0.000 C 
ATOM     20  C   UNL     1       4.406   1.043   1.276  0.00  0.00    +0.002 C 
ATOM     21  C   UNL     1       2.890   1.173   1.117  0.00  0.00    +0.022 C 
ENDBRANCH  14  16
ENDBRANCH   1  12
BRANCH   1  22
ATOM     22  N   UNL     1      -2.136  -2.161   1.628  0.00  0.00    -0.277 N 
ATOM     23  C   UNL     1      -1.838  -3.027   2.617  0.00  0.00    +0.252 C 
ATOM     24  O   UNL     1      -0.970  -2.755   3.423  0.00  0.00    -0.270 OA
BRANCH  23  25
ATOM     25  C   UNL     1      -2.567  -4.306   2.721  0.00  0.00    +0.082 A 
ATOM     26  C   UNL     1      -3.070  -4.924   1.572  0.00  0.00    +0.017 A 
ATOM     27  C   UNL     1      -3.749  -6.118   1.673  0.00  0.00    +0.005 A 
ATOM     28  C   UNL     1      -3.937  -6.713   2.910  0.00  0.00    +0.049 A 
ATOM     29  C   UNL     1      -3.446  -6.114   4.057  0.00  0.00    +0.159 A 
ATOM     30  C   UNL     1      -2.753  -4.910   3.970  0.00  0.00    +0.171 A 
BRANCH  30  31
ATOM     31  O   UNL     1      -2.264  -4.322   5.092  0.00  0.00    -0.503 OA
ATOM     32  H   UNL     1      -2.881  -3.711   5.517  0.00  0.00    +0.292 HD
ENDBRANCH  30  31
BRANCH  29  33
ATOM     33  O   UNL     1      -3.635  -6.704   5.268  0.00  0.00    -0.503 OA
ATOM     34  H   UNL     1      -2.930  -7.315   5.522  0.00  0.00    +0.292 HD
ENDBRANCH  29  33
ENDBRANCH  23  25
BRANCH  22  36
ATOM     35  C   UNL     1      -3.637  -1.298  -0.099  0.00  0.00    +0.031 C 
ATOM     36  C   UNL     1      -3.067  -2.552   0.567  0.00  0.00    +0.030 C 
ATOM     37  C   UNL     1      -4.210  -3.373   1.169  0.00  0.00    +0.031 C 
ATOM     38  C   UNL     1      -2.329  -3.394  -0.476  0.00  0.00    +0.031 C 
ENDBRANCH  22  36
ENDBRANCH   1  22
TORSDOF 9
