REMARK  Name = ZINC63985827
REMARK  11 active torsions:
REMARK  status: ('A' for Active; 'I' for Inactive)
REMARK    1  A    between atoms: C_1  and  C_2
REMARK    2  A    between atoms: N_4  and  C_5
REMARK    3  A    between atoms: C_9  and  N_31
REMARK    4  A    between atoms: N_13  and  C_20
REMARK    5  A    between atoms: C_14  and  C_16
REMARK    6  A    between atoms: C_16  and  O_18
REMARK    7  A    between atoms: O_18  and  C_19
REMARK    8  A    between atoms: C_20  and  C_21
REMARK    9  A    between atoms: C_21  and  C_22
REMARK   10  A    between atoms: N_31  and  C_32
REMARK   11  A    between atoms: C_32  and  C_33
REMARK                            x       y       z     vdW  Elec       q    Type
REMARK                         _______ _______ _______ _____ _____    ______ ____
ROOT
ATOM      1  C   UNL     1      -1.136  -2.159   0.001  0.00  0.00    +0.138 C 
ATOM      2  C   UNL     1      -1.069  -2.693   1.413  0.00  0.00    +0.015 A 
ATOM      3  C   UNL     1      -0.118  -2.536   2.403  0.00  0.00    +0.033 A 
ATOM      4  C   UNL     1      -0.329  -3.160   3.632  0.00  0.00    +0.044 A 
ATOM      5  C   UNL     1      -1.481  -3.910   3.810  0.00  0.00    +0.107 A 
ATOM      6  N   UNL     1      -2.365  -4.037   2.842  0.00  0.00    -0.348 N 
ATOM      7  C   UNL     1      -2.202  -3.457   1.653  0.00  0.00    +0.105 A 
ATOM      8  N   UNL     1      -3.038  -3.496   0.538  0.00  0.00    -0.301 N 
ATOM      9  C   UNL     1      -2.458  -2.711  -0.558  0.00  0.00    +0.208 C 
ATOM     10  H   UNL     1      -3.160  -4.569   3.000  0.00  0.00    +0.167 HD
ENDROOT
BRANCH   1  14
ATOM     11  C   UNL     1      -0.018   1.503   0.010  0.00  0.00    +0.109 C 
ATOM     12  C   UNL     1       0.002  -0.004   0.002  0.00  0.00    +0.210 C 
ATOM     13  O   UNL     1       1.060  -0.596  -0.011  0.00  0.00    -0.276 OA
ATOM     14  N   UNL     1      -1.156  -0.694   0.009  0.00  0.00    -0.306 N 
ATOM     15  H   UNL     1      -2.002  -0.220   0.020  0.00  0.00    +0.149 HD
ENDBRANCH   1  14
BRANCH   9  16
ATOM     16  C   UNL     1      -2.193  -3.591  -1.752  0.00  0.00    +0.330 C 
ATOM     17  O   UNL     1      -2.186  -4.793  -1.626  0.00  0.00    -0.249 OA
BRANCH  16  18
ATOM     18  O   UNL     1      -1.964  -3.041  -2.955  0.00  0.00    -0.467 OA
ATOM     19  C   UNL     1      -1.720  -3.936  -4.042  0.00  0.00    +0.280 C 
ENDBRANCH  16  18
ENDBRANCH   9  16
BRANCH   4  20
ATOM     20  N   UNL     1       0.606  -3.031   4.667  0.00  0.00    -0.339 N 
ATOM     21  H   UNL     1       1.409  -2.504   4.532  0.00  0.00    +0.146 HD
BRANCH  20  22
ATOM     22  C   UNL     1       0.371  -3.692   5.952  0.00  0.00    +0.137 C 
BRANCH  22  23
ATOM     23  C   UNL     1       1.517  -3.398   6.886  0.00  0.00    -0.028 A 
ATOM     24  C   UNL     1       2.618  -4.234   6.913  0.00  0.00    +0.005 A 
ATOM     25  C   UNL     1       3.670  -3.966   7.769  0.00  0.00    +0.003 A 
ATOM     26  C   UNL     1       3.622  -2.861   8.598  0.00  0.00    +0.038 A 
ATOM     27  C   UNL     1       2.521  -2.023   8.571  0.00  0.00    +0.124 A 
ATOM     28  C   UNL     1       1.470  -2.290   7.709  0.00  0.00    +0.043 A 
ATOM     29  F   UNL     1       2.473  -0.943   9.382  0.00  0.00    -0.205 F 
ENDBRANCH  22  23
ENDBRANCH  20  22
ENDBRANCH   4  20
BRANCH   8  30
ATOM     30  C   UNL     1      -4.311  -4.218   0.469  0.00  0.00    +0.112 C 
BRANCH  30  31
ATOM     31  C   UNL     1      -5.445  -3.296   0.922  0.00  0.00    +0.052 C 
BRANCH  31  32
ATOM     32  C   UNL     1      -6.754  -4.038   0.852  0.00  0.00    -0.040 C 
ATOM     33  C   UNL     1      -7.374  -4.691   1.861  0.00  0.00    -0.001 A 
ATOM     34  C   UNL     1      -7.028  -4.899   3.272  0.00  0.00    +0.010 A 
ATOM     35  C   UNL     1      -7.867  -5.614   4.055  0.00  0.00    +0.001 A 
ATOM     36  C   UNL     1      -9.056  -6.162   3.554  0.00  0.00    +0.002 A 
ATOM     37  C   UNL     1      -9.442  -6.014   2.269  0.00  0.00    +0.026 A 
ATOM     38  C   UNL     1      -8.635  -5.279   1.356  0.00  0.00    +0.043 A 
ATOM     39  N   UNL     1      -8.789  -5.001   0.084  0.00  0.00    -0.380 N 
ATOM     40  C   UNL     1      -7.644  -4.198  -0.361  0.00  0.00    +0.144 C 
ATOM     41  H   UNL     1      -9.537  -5.276  -0.469  0.00  0.00    +0.160 HD
ENDBRANCH  31  32
ENDBRANCH  30  31
ENDBRANCH   8  30
TORSDOF 9
