REMARK  Name = ZINC39664854
REMARK  8 active torsions:
REMARK  status: ('A' for Active; 'I' for Inactive)
REMARK    1  A    between atoms: C_1  and  N_2
REMARK    2  A    between atoms: N_2  and  C_3
REMARK    3  A    between atoms: N_2  and  C_4
REMARK    4  A    between atoms: C_4  and  C_5
REMARK    5  A    between atoms: C_5  and  C_7
REMARK    6  A    between atoms: C_5  and  N_13
REMARK    7  A    between atoms: C_14  and  C_16
REMARK    8  A    between atoms: C_27  and  C_29
REMARK                            x       y       z     vdW  Elec       q    Type
REMARK                         _______ _______ _______ _____ _____    ______ ____
ROOT
ATOM      1  C   UNL     1       1.578  -3.363   1.782  0.00  0.00    +0.100 C 
ATOM      2  C   UNL     1       1.333  -4.885   1.894  0.00  0.00    +0.121 C 
ATOM      3  N   UNL     1       2.459  -5.500   1.152  0.00  0.00    -0.296 N 
ATOM      4  C   UNL     1       3.632  -4.666   1.504  0.00  0.00    +0.115 C 
ATOM      5  C   UNL     1       3.088  -3.224   1.530  0.00  0.00    -0.004 C 
ATOM      6  C   UNL     1       3.742  -2.433   2.660  0.00  0.00    -0.010 C 
ATOM      7  C   UNL     1       5.233  -2.257   2.358  0.00  0.00    -0.082 C 
ATOM      8  N   UNL     1       5.395  -1.551   1.082  0.00  0.00    +0.379 N 
ATOM      9  C   UNL     1       4.847  -2.361  -0.012  0.00  0.00    -0.082 C 
ATOM     10  C   UNL     1       3.340  -2.541   0.189  0.00  0.00    -0.010 C 
ATOM     11  C   UNL     1       2.423  -6.576   0.341  0.00  0.00    +0.248 C 
ATOM     12  O   UNL     1       1.359  -7.101   0.073  0.00  0.00    -0.270 OA
ATOM     13  H   UNL     1       4.907  -0.668   1.123  0.00  0.00    -0.086 HD
ATOM     14  H   UNL     1       6.376  -1.382   0.915  0.00  0.00    -0.086 HD
ENDROOT
BRANCH  11  15
ATOM     15  C   UNL     1       3.669  -7.114  -0.220  0.00  0.00    +0.052 A 
ATOM     16  C   UNL     1       4.827  -7.084   0.490  0.00  0.00    +0.059 A 
ATOM     17  S   UNL     1       5.979  -7.787  -0.506  0.00  0.00    -0.096 S 
ATOM     18  C   UNL     1       4.983  -8.159  -1.923  0.00  0.00    +0.020 A 
ATOM     19  C   UNL     1       3.701  -7.705  -1.560  0.00  0.00    +0.001 A 
ATOM     20  C   UNL     1       2.667  -7.871  -2.501  0.00  0.00    +0.010 A 
ATOM     21  C   UNL     1       2.921  -8.459  -3.715  0.00  0.00    +0.001 A 
ATOM     22  C   UNL     1       4.192  -8.904  -4.047  0.00  0.00    +0.001 A 
ATOM     23  C   UNL     1       5.229  -8.744  -3.147  0.00  0.00    +0.015 A 
ENDBRANCH  11  15
BRANCH   1  25
ATOM     24  N   UNL     1       0.516  -1.472   0.593  0.00  0.00    -0.310 N 
ATOM     25  C   UNL     1       0.798  -2.789   0.627  0.00  0.00    +0.219 C 
ATOM     26  O   UNL     1       0.424  -3.513  -0.271  0.00  0.00    -0.275 OA
ATOM     27  H   UNL     1       0.877  -0.881   1.272  0.00  0.00    +0.149 HD
BRANCH  24  28
ATOM     28  C   UNL     1      -0.335  -0.932  -0.470  0.00  0.00    +0.087 C 
BRANCH  28  29
ATOM     29  C   UNL     1      -1.074   0.277   0.043  0.00  0.00    -0.029 A 
ATOM     30  C   UNL     1      -0.427   1.188   0.857  0.00  0.00    +0.005 A 
ATOM     31  C   UNL     1      -1.105   2.297   1.327  0.00  0.00    +0.000 A 
ATOM     32  C   UNL     1      -2.429   2.495   0.983  0.00  0.00    +0.000 A 
ATOM     33  C   UNL     1      -3.076   1.584   0.169  0.00  0.00    +0.000 A 
ATOM     34  C   UNL     1      -2.397   0.477  -0.305  0.00  0.00    +0.005 A 
ENDBRANCH  28  29
BRANCH  28  35
ATOM     35  C   UNL     1       0.533  -0.531  -1.664  0.00  0.00    -0.052 C 
BRANCH  35  37
ATOM     36  C   UNL     1       0.510   0.479  -3.840  0.00  0.00    -0.097 C 
ATOM     37  N   UNL     1      -0.326  -0.054  -2.756  0.00  0.00    +0.377 N 
ATOM     38  C   UNL     1      -1.136  -1.169  -3.265  0.00  0.00    -0.097 C 
ATOM     39  H   UNL     1      -0.934   0.674  -2.412  0.00  0.00    -0.083 HD
ENDBRANCH  35  37
ENDBRANCH  28  35
ENDBRANCH  24  28
ENDBRANCH   1  25
TORSDOF 6
