REMARK  Name = ZINC03148936
REMARK  9 active torsions:
REMARK  status: ('A' for Active; 'I' for Inactive)
REMARK    1  A    between atoms: C_1  and  C_2
REMARK    2  A    between atoms: C_2  and  O_3
REMARK    3  A    between atoms: O_3  and  C_4
REMARK    4  A    between atoms: C_8  and  C_11
REMARK    5  A    between atoms: C_9  and  O_10
REMARK    6  A    between atoms: N_12  and  N_13
REMARK    7  A    between atoms: C_14  and  C_16
REMARK    8  A    between atoms: C_16  and  O_17
REMARK    9  A    between atoms: O_17  and  C_18
REMARK                            x       y       z     vdW  Elec       q    Type
REMARK                         _______ _______ _______ _____ _____    ______ ____
ROOT
ATOM      1  N   UNL     1      -6.109   3.245   0.078  0.00  0.00    -0.204 N 
ATOM      2  C   UNL     1      -4.883   3.803   0.069  0.00  0.00    +0.270 C 
ATOM      3  O   UNL     1      -4.766   5.011   0.074  0.00  0.00    -0.270 OA
ATOM      4  H   UNL     1      -6.215   2.150   0.074  0.00  0.00    +0.177 HD
ENDROOT
BRANCH   1   6
ATOM      5  C   UNL     1      -8.431   3.521   0.101  0.00  0.00    +0.142 C 
ATOM      6  N   UNL     1      -7.249   4.059   0.093  0.00  0.00    -0.188 NA
BRANCH   5  11
ATOM      7  C   UNL     1     -10.636   6.570   0.138  0.00  0.00    +0.163 A 
ATOM      8  C   UNL     1     -11.893   5.986   0.147  0.00  0.00    +0.063 A 
ATOM      9  C   UNL     1     -12.024   4.607   0.141  0.00  0.00    +0.018 A 
ATOM     10  C   UNL     1     -10.903   3.802   0.126  0.00  0.00    +0.027 A 
ATOM     11  C   UNL     1      -9.630   4.378   0.117  0.00  0.00    +0.041 A 
ATOM     12  C   UNL     1      -9.499   5.771   0.128  0.00  0.00    +0.167 A 
ATOM     13  I   UNL     1     -13.931   3.740   0.154  0.00  0.00    -0.044 I 
BRANCH  12  14
ATOM     14  O   UNL     1      -8.265   6.341   0.124  0.00  0.00    -0.503 OA
ATOM     15  H   UNL     1      -7.366   5.707   0.117  0.00  0.00    +0.292 HD
ENDBRANCH  12  14
BRANCH   7  16
ATOM     16  O   UNL     1     -10.516   7.924   0.144  0.00  0.00    -0.489 OA
BRANCH  16  18
ATOM     17  C   UNL     1     -11.393  10.176   0.165  0.00  0.00    +0.048 C 
ATOM     18  C   UNL     1     -11.727   8.683   0.160  0.00  0.00    +0.226 C 
ENDBRANCH  16  18
ENDBRANCH   7  16
ENDBRANCH   5  11
ENDBRANCH   1   6
BRANCH   2  19
ATOM     19  C   UNL     1      -3.656   2.927   0.053  0.00  0.00    +0.326 C 
BRANCH  19  20
ATOM     20  O   UNL     1      -2.486   3.747   0.046  0.00  0.00    -0.482 OA
BRANCH  20  21
ATOM     21  C   UNL     1      -1.287   3.110   0.032  0.00  0.00    +0.129 A 
ATOM     22  C   UNL     1      -1.234   1.744   0.017  0.00  0.00    +0.046 A 
ATOM     23  C   UNL     1      -0.013   1.076   0.008  0.00  0.00    +0.004 A 
ATOM     24  C   UNL     1       1.164   1.762   0.000  0.00  0.00    +0.009 A 
ATOM     25  C   UNL     1       1.152   3.167   0.008  0.00  0.00    -0.014 A 
ATOM     26  C   UNL     1      -0.088   3.852   0.024  0.00  0.00    +0.024 A 
ATOM     27  C   UNL     1      -0.100   5.256   0.030  0.00  0.00    +0.012 A 
ATOM     28  C   UNL     1       1.077   5.940   0.022  0.00  0.00    +0.001 A 
ATOM     29  C   UNL     1       2.297   5.267   0.007  0.00  0.00    +0.001 A 
ATOM     30  C   UNL     1       2.347   3.907   0.000  0.00  0.00    +0.008 A 
ENDBRANCH  20  21
ENDBRANCH  19  20
ENDBRANCH   2  19
TORSDOF 8
