REMARK  Name = ZINC20266697
REMARK  8 active torsions:
REMARK  status: ('A' for Active; 'I' for Inactive)
REMARK    1  A    between atoms: C_1  and  C_2
REMARK    2  A    between atoms: C_16  and  O_17
REMARK    3  A    between atoms: C_24  and  O_25
REMARK    4  A    between atoms: N_26  and  C_27
REMARK    5  A    between atoms: C_27  and  C_28
REMARK    6  A    between atoms: C_28  and  C_29
REMARK    7  A    between atoms: C_29  and  N_30
REMARK    8  A    between atoms: C_34  and  C_37
REMARK                            x       y       z     vdW  Elec       q    Type
REMARK                         _______ _______ _______ _____ _____    ______ ____
ROOT
ATOM      1  C   UNL     1       2.349  -4.279   0.038  0.00  0.00    +0.044 C 
ATOM      2  C   UNL     1       2.361  -2.772   0.025  0.00  0.00    -0.047 A 
ATOM      3  C   UNL     1       3.565  -2.094  -0.000  0.00  0.00    +0.005 A 
ATOM      4  C   UNL     1       3.583  -0.711  -0.013  0.00  0.00    +0.032 A 
ATOM      5  C   UNL     1       2.390  -0.005   0.000  0.00  0.00    +0.107 A 
ATOM      6  C   UNL     1       1.175  -0.688   0.025  0.00  0.00    +0.154 A 
ATOM      7  C   UNL     1       1.167  -2.074   0.037  0.00  0.00    +0.051 A 
ATOM      8  O   UNL     1       0.003  -0.004   0.039  0.00  0.00    -0.452 OA
ATOM      9  C   UNL     1      -0.016   1.352   0.028  0.00  0.00    +0.156 A 
ATOM     10  C   UNL     1      -1.224   2.020   0.037  0.00  0.00    +0.074 A 
ATOM     11  C   UNL     1      -1.264   3.414   0.032  0.00  0.00    +0.050 A 
ATOM     12  C   UNL     1      -0.072   4.150   0.005  0.00  0.00    +0.053 A 
ATOM     13  C   UNL     1       1.169   3.470  -0.009  0.00  0.00    +0.059 A 
ATOM     14  C   UNL     1       1.191   2.075   0.002  0.00  0.00    +0.118 A 
ATOM     15  N   UNL     1       2.399   1.395  -0.011  0.00  0.00    -0.240 NA
ATOM     16  C   UNL     1       2.425   4.234  -0.036  0.00  0.00    +0.135 A 
ATOM     17  C   UNL     1       2.388   5.710  -0.048  0.00  0.00    +0.028 A 
ATOM     18  C   UNL     1       3.572   6.443  -0.073  0.00  0.00    +0.012 A 
ATOM     19  C   UNL     1       3.528   7.824  -0.082  0.00  0.00    +0.001 A 
ATOM     20  C   UNL     1       2.313   8.487  -0.068  0.00  0.00    +0.001 A 
ATOM     21  C   UNL     1       1.127   7.776  -0.043  0.00  0.00    +0.012 A 
ATOM     22  C   UNL     1       1.153   6.383  -0.033  0.00  0.00    +0.028 A 
ATOM     23  C   UNL     1      -0.108   5.615  -0.006  0.00  0.00    +0.134 A 
ATOM     24  N   UNL     1      -2.483   4.071   0.046  0.00  0.00    -0.384 N 
ATOM     25  H   UNL     1      -2.517   5.167   0.139  0.00  0.00    +0.160 HD
ENDROOT
BRANCH  16  26
ATOM     26  O   UNL     1       3.492   3.650  -0.049  0.00  0.00    -0.505 OA
ATOM     27  H   UNL     1       4.431   4.223  -0.069  0.00  0.00    +0.292 HD
ENDBRANCH  16  26
BRANCH  23  28
ATOM     28  O   UNL     1      -1.176   6.199   0.006  0.00  0.00    -0.505 OA
ATOM     29  H   UNL     1      -1.203   7.298  -0.002  0.00  0.00    +0.292 HD
ENDBRANCH  23  28
BRANCH  24  30
ATOM     30  C   UNL     1      -3.729   3.307  -0.062  0.00  0.00    +0.111 C 
BRANCH  30  31
ATOM     31  C   UNL     1      -4.920   4.266  -0.021  0.00  0.00    +0.002 C 
BRANCH  31  32
ATOM     32  C   UNL     1      -6.221   3.469  -0.134  0.00  0.00    -0.077 C 
BRANCH  32  33
ATOM     33  N   UNL     1      -7.365   4.389  -0.094  0.00  0.00    +0.380 N 
ATOM     34  C   UNL     1      -7.384   5.257  -1.278  0.00  0.00    -0.079 C 
ATOM     35  C   UNL     1      -8.498   6.296  -1.134  0.00  0.00    -0.018 C 
ATOM     36  C   UNL     1      -9.842   5.578  -0.983  0.00  0.00    -0.001 C 
ATOM     37  C   UNL     1      -9.780   4.644   0.229  0.00  0.00    -0.031 C 
ATOM     38  C   UNL     1      -8.628   3.653   0.045  0.00  0.00    -0.076 C 
ATOM     39  C   UNL     1     -11.099   3.879   0.352  0.00  0.00    +0.005 C 
ATOM     40  H   UNL     1      -7.253   5.032   0.791  0.00  0.00    -0.082 HD
ENDBRANCH  32  33
ENDBRANCH  31  32
ENDBRANCH  30  31
ENDBRANCH  24  30
TORSDOF 6
