REMARK  Name = ZINC05270630
REMARK  6 active torsions:
REMARK  status: ('A' for Active; 'I' for Inactive)
REMARK    1  A    between atoms: C_1  and  C_2
REMARK    2  A    between atoms: C_3  and  C_23
REMARK    3  A    between atoms: C_9  and  S_13
REMARK    4  A    between atoms: S_13  and  C_14
REMARK    5  A    between atoms: C_14  and  C_15
REMARK    6  A    between atoms: N_17  and  C_18
REMARK                            x       y       z     vdW  Elec       q    Type
REMARK                         _______ _______ _______ _____ _____    ______ ____
ROOT
ATOM      1  C   UNL     1      13.293   0.786  -3.200  0.00  0.00    +0.052 C 
ATOM      2  C   UNL     1      12.188   1.129  -2.234  0.00  0.00    -0.003 A 
ATOM      3  C   UNL     1      12.273   1.821  -1.075  0.00  0.00    +0.007 A 
ATOM      4  C   UNL     1      11.059   2.035  -0.293  0.00  0.00    +0.080 A 
ATOM      5  C   UNL     1      10.894   2.724   0.947  0.00  0.00    +0.261 A 
ATOM      6  O   UNL     1      11.852   3.237   1.501  0.00  0.00    -0.267 OA
ATOM      7  N   UNL     1       9.668   2.806   1.494  0.00  0.00    -0.301 N 
ATOM      8  H   UNL     1       9.551   3.277   2.334  0.00  0.00    +0.171 HD
ATOM      9  C   UNL     1       8.585   2.233   0.892  0.00  0.00    +0.170 A 
ATOM     10  N   UNL     1       8.709   1.592  -0.252  0.00  0.00    -0.216 NA
ATOM     11  C   UNL     1       9.891   1.480  -0.846  0.00  0.00    +0.117 A 
ATOM     12  S   UNL     1      10.457   0.720  -2.346  0.00  0.00    -0.073 S 
ENDROOT
BRANCH   3  13
ATOM     13  C   UNL     1      13.575   2.352  -0.606  0.00  0.00    -0.016 A 
ATOM     14  C   UNL     1      14.144   1.871   0.573  0.00  0.00    +0.011 A 
ATOM     15  C   UNL     1      15.358   2.365   1.002  0.00  0.00    +0.039 A 
ATOM     16  C   UNL     1      16.008   3.345   0.270  0.00  0.00    +0.123 A 
ATOM     17  C   UNL     1      15.445   3.830  -0.900  0.00  0.00    +0.039 A 
ATOM     18  C   UNL     1      14.233   3.338  -1.340  0.00  0.00    +0.011 A 
ATOM     19  F   UNL     1      17.194   3.830   0.697  0.00  0.00    -0.205 F 
ENDBRANCH   3  13
BRANCH   9  20
ATOM     20  S   UNL     1       7.000   2.360   1.651  0.00  0.00    -0.078 S 
BRANCH  20  21
ATOM     21  C   UNL     1       6.000   1.457   0.442  0.00  0.00    +0.173 C 
BRANCH  21  22
ATOM     22  C   UNL     1       4.563   1.435   0.895  0.00  0.00    +0.224 C 
ATOM     23  O   UNL     1       4.245   1.976   1.933  0.00  0.00    -0.275 OA
ATOM     24  N   UNL     1       3.630   0.814   0.146  0.00  0.00    -0.312 N 
ATOM     25  H   UNL     1       3.883   0.381  -0.684  0.00  0.00    +0.149 HD
BRANCH  24  26
ATOM     26  C   UNL     1       2.232   0.792   0.586  0.00  0.00    +0.073 C 
ATOM     27  C   UNL     1       1.453   1.995  -0.001  0.00  0.00    +0.022 C 
ATOM     28  C   UNL     1      -0.019   1.534   0.011  0.00  0.00    +0.002 C 
ATOM     29  C   UNL     1       0.002  -0.004   0.002  0.00  0.00    +0.002 C 
ATOM     30  C   UNL     1       1.486  -0.425  -0.014  0.00  0.00    +0.022 C 
ENDBRANCH  24  26
ENDBRANCH  21  22
ENDBRANCH  20  21
ENDBRANCH   9  20
TORSDOF 5
