REMARK  Name = ZINC14462831
REMARK  9 active torsions:
REMARK  status: ('A' for Active; 'I' for Inactive)
REMARK    1  A    between atoms: C_1  and  C_2
REMARK    2  A    between atoms: C_5  and  N_9
REMARK    3  A    between atoms: C_6  and  C_8
REMARK    4  A    between atoms: N_9  and  S_10
REMARK    5  A    between atoms: S_10  and  C_13
REMARK    6  A    between atoms: C_26  and  C_29
REMARK    7  A    between atoms: C_32  and  C_35
REMARK    8  A    between atoms: C_35  and  C_36
REMARK    9  A    between atoms: C_35  and  C_37
REMARK                            x       y       z     vdW  Elec       q    Type
REMARK                         _______ _______ _______ _____ _____    ______ ____
ROOT
ATOM      1  C   UNL     1       0.624   0.030   4.663  0.00  0.00    +0.109 A 
ATOM      2  C   UNL     1       1.538  -0.788   4.023  0.00  0.00    +0.030 A 
ATOM      3  C   UNL     1       1.431  -2.159   4.147  0.00  0.00    +0.025 A 
ATOM      4  C   UNL     1       0.411  -2.711   4.911  0.00  0.00    +0.031 A 
ATOM      5  C   UNL     1      -0.509  -1.895   5.551  0.00  0.00    -0.018 A 
ATOM      6  C   UNL     1      -0.387  -0.517   5.425  0.00  0.00    +0.034 A 
ATOM      7  C   UNL     1      -1.626  -2.442   6.358  0.00  0.00    +0.049 C 
ATOM      8  C   UNL     1      -1.359  -2.265   7.856  0.00  0.00    -0.023 C 
ATOM      9  C   UNL     1      -1.811  -3.296   8.527  0.00  0.00    -0.030 C 
ATOM     10  C   UNL     1      -2.448  -4.303   7.589  0.00  0.00    +0.033 C 
ATOM     11  C   UNL     1      -1.812  -3.964   6.209  0.00  0.00    +0.029 C 
ATOM     12  C   UNL     1      -0.446  -4.654   6.154  0.00  0.00    +0.105 C 
ATOM     13  N   UNL     1       0.320  -4.102   5.032  0.00  0.00    -0.336 N 
ATOM     14  H   UNL     1       0.751  -4.686   4.389  0.00  0.00    +0.147 HD
ENDROOT
BRANCH  12  15
ATOM     15  C   UNL     1       0.297  -4.406   7.442  0.00  0.00    -0.027 A 
ATOM     16  C   UNL     1       1.099  -3.288   7.573  0.00  0.00    +0.006 A 
ATOM     17  C   UNL     1       1.776  -3.058   8.756  0.00  0.00    +0.004 A 
ATOM     18  C   UNL     1       1.659  -3.952   9.804  0.00  0.00    -0.045 A 
ATOM     19  C   UNL     1       0.862  -5.073   9.671  0.00  0.00    +0.004 A 
ATOM     20  C   UNL     1       0.181  -5.300   8.490  0.00  0.00    +0.006 A 
BRANCH  18  21
ATOM     21  C   UNL     1       2.401  -3.703  11.092  0.00  0.00    +0.013 C 
ATOM     22  C   UNL     1       3.905  -3.655  10.814  0.00  0.00    +0.012 C 
ATOM     23  C   UNL     1       1.951  -2.369  11.691  0.00  0.00    +0.012 C 
ENDBRANCH  18  21
ENDBRANCH  12  15
BRANCH   1  24
ATOM     24  S   UNL     1       0.757   1.780   4.510  0.00  0.00    +0.072 S 
ATOM     25  O   UNL     1       2.115   2.058   4.193  0.00  0.00    -0.150 OA
ATOM     26  O   UNL     1       0.111   2.338   5.646  0.00  0.00    -0.150 OA
BRANCH  24  27
ATOM     27  N   UNL     1      -0.137   2.226   3.189  0.00  0.00    -0.216 N 
ATOM     28  H   UNL     1       0.290   2.673   2.442  0.00  0.00    +0.174 HD
BRANCH  27  33
ATOM     29  C   UNL     1      -5.701   1.142   3.037  0.00  0.00    +0.044 C 
ATOM     30  C   UNL     1      -4.223   1.429   3.078  0.00  0.00    -0.050 A 
ATOM     31  C   UNL     1      -3.619   1.769   4.274  0.00  0.00    +0.005 A 
ATOM     32  C   UNL     1      -2.264   2.034   4.315  0.00  0.00    +0.025 A 
ATOM     33  C   UNL     1      -1.508   1.958   3.152  0.00  0.00    +0.051 A 
ATOM     34  C   UNL     1      -2.118   1.617   1.952  0.00  0.00    -0.028 A 
ATOM     35  C   UNL     1      -3.474   1.358   1.917  0.00  0.00    +0.008 A 
ATOM     36  C   UNL     1      -1.301   1.534   0.688  0.00  0.00    +0.046 C 
ENDBRANCH  27  33
ENDBRANCH  24  27
ENDBRANCH   1  24
TORSDOF 5
