REMARK  Name = ZINC19644160
REMARK  6 active torsions:
REMARK  status: ('A' for Active; 'I' for Inactive)
REMARK    1  A    between atoms: C_6  and  C_7
REMARK    2  A    between atoms: C_7  and  N_8
REMARK    3  A    between atoms: N_13  and  C_14
REMARK    4  A    between atoms: C_14  and  N_16
REMARK    5  A    between atoms: N_16  and  N_17
REMARK    6  A    between atoms: C_18  and  C_20
REMARK                            x       y       z     vdW  Elec       q    Type
REMARK                         _______ _______ _______ _____ _____    ______ ____
ROOT
ATOM      1  C   UNL     1       0.024  -0.004  -0.003  0.00  0.00    +0.152 C 
ATOM      2  S   UNL     1      -1.426  -0.904   0.130  0.00  0.00    -0.017 S 
ENDROOT
BRANCH   1   8
ATOM      3  N   UNL     1      -3.402   2.450   0.088  0.00  0.00    -0.265 N 
ATOM      4  C   UNL     1      -2.770   3.636  -0.032  0.00  0.00    +0.110 A 
ATOM      5  C   UNL     1      -1.440   3.396  -0.072  0.00  0.00    +0.065 A 
ATOM      6  C   UNL     1      -1.250   2.008   0.018  0.00  0.00    +0.146 A 
ATOM      7  N   UNL     1      -2.430   1.442   0.118  0.00  0.00    -0.156 NA
ATOM      8  N   UNL     1      -0.016   1.344   0.009  0.00  0.00    -0.279 N 
ATOM      9  H   UNL     1       0.920   1.922   0.013  0.00  0.00    +0.155 HD
BRANCH   3  10
ATOM     10  C   UNL     1      -4.851   2.250   0.172  0.00  0.00    +0.178 C 
BRANCH  10  16
ATOM     11  C   UNL     1      -5.665   1.766  -2.144  0.00  0.00    +0.007 A 
ATOM     12  C   UNL     1      -6.062   0.884  -3.132  0.00  0.00    +0.020 A 
ATOM     13  C   UNL     1      -6.093  -0.474  -2.874  0.00  0.00    +0.041 A 
ATOM     14  C   UNL     1      -5.722  -0.951  -1.629  0.00  0.00    +0.020 A 
ATOM     15  C   UNL     1      -5.320  -0.069  -0.644  0.00  0.00    +0.007 A 
ATOM     16  C   UNL     1      -5.289   1.289  -0.902  0.00  0.00    -0.026 A 
ATOM     17 CL   UNL     1      -6.598  -1.582  -4.113  0.00  0.00    -0.084 Cl
ENDBRANCH  10  16
ENDBRANCH   3  10
ENDBRANCH   1   8
BRANCH   1  18
ATOM     18  N   UNL     1       1.205  -0.642  -0.120  0.00  0.00    -0.245 N 
ATOM     19  H   UNL     1       1.238  -1.741  -0.130  0.00  0.00    +0.172 HD
BRANCH  18  20
ATOM     20  N   UNL     1       2.392   0.096  -0.229  0.00  0.00    -0.231 N 
ATOM     21  C   UNL     1       3.573  -0.543  -0.345  0.00  0.00    +0.261 C 
ATOM     22  O   UNL     1       3.609  -1.758  -0.356  0.00  0.00    -0.269 OA
ATOM     23  H   UNL     1       2.359   1.195  -0.218  0.00  0.00    +0.173 HD
BRANCH  21  24
ATOM     24  C   UNL     1       4.820   0.232  -0.460  0.00  0.00    +0.049 A 
ATOM     25  C   UNL     1       4.805   1.609  -0.449  0.00  0.00    +0.058 A 
ATOM     26  S   UNL     1       6.479   2.025  -0.606  0.00  0.00    -0.101 S 
ATOM     27  C   UNL     1       7.170   0.397  -0.683  0.00  0.00    -0.006 A 
ATOM     28  C   UNL     1       6.104  -0.431  -0.581  0.00  0.00    -0.025 A 
ATOM     29  C   UNL     1       6.281  -1.944  -0.616  0.00  0.00    +0.037 C 
ATOM     30  C   UNL     1       7.654  -2.267  -1.208  0.00  0.00    +0.005 C 
ATOM     31  C   UNL     1       8.740  -1.483  -0.465  0.00  0.00    +0.005 C 
ATOM     32  C   UNL     1       8.608   0.005  -0.822  0.00  0.00    +0.043 C 
ENDBRANCH  21  24
ENDBRANCH  18  20
ENDBRANCH   1  18
TORSDOF 6
