REMARK  Name = ZINC13193247
REMARK  10 active torsions:
REMARK  status: ('A' for Active; 'I' for Inactive)
REMARK    1  A    between atoms: C_1  and  C_2
REMARK    2  A    between atoms: C_5  and  C_7
REMARK    3  A    between atoms: C_7  and  C_9
REMARK    4  A    between atoms: C_7  and  N_10
REMARK    5  A    between atoms: N_10  and  C_11
REMARK    6  A    between atoms: C_14  and  S_20
REMARK    7  A    between atoms: C_16  and  N_17
REMARK    8  A    between atoms: S_20  and  N_23
REMARK    9  A    between atoms: N_23  and  C_24
REMARK   10  A    between atoms: C_28  and  C_30
REMARK                            x       y       z     vdW  Elec       q    Type
REMARK                         _______ _______ _______ _____ _____    ______ ____
ROOT
ATOM      1  C   UNL     1       3.384   1.444  -3.992  0.00  0.00    +0.058 A 
ATOM      2  C   UNL     1       3.712   0.593  -2.944  0.00  0.00    +0.027 A 
ATOM      3  C   UNL     1       3.160   0.795  -1.694  0.00  0.00    +0.031 A 
ATOM      4  C   UNL     1       2.274   1.836  -1.487  0.00  0.00    +0.111 A 
ATOM      5  C   UNL     1       1.946   2.685  -2.528  0.00  0.00    +0.063 A 
ATOM      6  C   UNL     1       2.497   2.493  -3.779  0.00  0.00    +0.149 A 
ENDROOT
BRANCH   6   7
ATOM      7  N   UNL     1       2.144   3.402  -4.893  0.00  0.00    +0.058 N 
ATOM      8  O   UNL     1       1.285   4.251  -4.737  0.00  0.00    -0.126 OA
ATOM      9  O   UNL     1       2.714   3.301  -5.965  0.00  0.00    -0.126 OA
ENDBRANCH   6   7
BRANCH   4  10
ATOM     10  S   UNL     1       1.568   2.086   0.108  0.00  0.00    +0.072 S 
ATOM     11  O   UNL     1       1.198   3.456   0.178  0.00  0.00    -0.150 OA
ATOM     12  O   UNL     1       2.455   1.488   1.043  0.00  0.00    -0.150 OA
BRANCH  10  13
ATOM     13  N   UNL     1       0.163   1.212   0.163  0.00  0.00    -0.216 N 
ATOM     14  H   UNL     1      -0.689   1.669   0.244  0.00  0.00    +0.174 HD
BRANCH  13  15
ATOM     15  C   UNL     1       0.203  -0.182   0.088  0.00  0.00    +0.049 A 
ATOM     16  C   UNL     1       1.133  -0.892   0.840  0.00  0.00    +0.024 A 
ATOM     17  C   UNL     1       1.178  -2.272   0.769  0.00  0.00    +0.003 A 
ATOM     18  C   UNL     1       0.299  -2.954  -0.047  0.00  0.00    +0.015 A 
ATOM     19  C   UNL     1      -0.639  -2.252  -0.806  0.00  0.00    +0.065 A 
ATOM     20  C   UNL     1      -0.687  -0.859  -0.731  0.00  0.00    +0.039 A 
BRANCH  19  21
ATOM     21  C   UNL     1      -1.581  -2.980  -1.680  0.00  0.00    +0.387 C 
ATOM     22  O   UNL     1      -2.396  -2.366  -2.339  0.00  0.00    -0.241 OA
ATOM     23  O   UNL     1      -1.536  -4.325  -1.746  0.00  0.00    -0.241 OA
ENDBRANCH  19  21
ENDBRANCH  13  15
ENDBRANCH  10  13
ENDBRANCH   4  10
BRANCH   1  24
ATOM     24  N   UNL     1       3.944   1.247  -5.256  0.00  0.00    -0.333 N 
ATOM     25  H   UNL     1       3.778   1.887  -5.965  0.00  0.00    +0.147 HD
BRANCH  24  26
ATOM     26  C   UNL     1       4.782   0.073  -5.510  0.00  0.00    +0.133 C 
ATOM     27  C   UNL     1       3.895  -1.117  -5.879  0.00  0.00    +0.036 C 
BRANCH  26  32
ATOM     28  C   UNL     1       6.575   1.798  -9.898  0.00  0.00    +0.086 C 
ATOM     29  C   UNL     1       6.506   1.117  -8.555  0.00  0.00    +0.102 A 
ATOM     30  C   UNL     1       7.519   0.476  -7.945  0.00  0.00    +0.045 A 
ATOM     31  C   UNL     1       7.018  -0.002  -6.713  0.00  0.00    +0.047 A 
ATOM     32  C   UNL     1       5.727   0.367  -6.647  0.00  0.00    +0.125 A 
ATOM     33  O   UNL     1       5.423   1.048  -7.765  0.00  0.00    -0.463 OA
ENDBRANCH  26  32
ENDBRANCH  24  26
ENDBRANCH   1  24
TORSDOF 8
