REMARK  Name = ZINC43548207
REMARK  11 active torsions:
REMARK  status: ('A' for Active; 'I' for Inactive)
REMARK    1  A    between atoms: C_1  and  C_2
REMARK    2  A    between atoms: N_9  and  C_10
REMARK    3  A    between atoms: C_10  and  C_11
REMARK    4  A    between atoms: C_14  and  C_34
REMARK    5  A    between atoms: C_17  and  O_33
REMARK    6  A    between atoms: C_19  and  C_23
REMARK    7  A    between atoms: C_23  and  C_25
REMARK    8  A    between atoms: C_23  and  C_26
REMARK    9  A    between atoms: N_28  and  C_29
REMARK   10  A    between atoms: N_28  and  C_30
REMARK   11  A    between atoms: C_30  and  C_31
REMARK                            x       y       z     vdW  Elec       q    Type
REMARK                         _______ _______ _______ _____ _____    ______ ____
ROOT
ATOM      1  C   UNL     1      -0.687   1.488  -0.239  0.00  0.00    +0.014 C 
ATOM      2  C   UNL     1      -0.636  -0.038  -0.149  0.00  0.00    +0.039 C 
ATOM      3  C   UNL     1      -1.988  -0.566   0.305  0.00  0.00    +0.031 A 
ATOM      4  C   UNL     1      -2.177  -0.955   1.591  0.00  0.00    +0.013 A 
ATOM      5  S   UNL     1      -3.872  -1.470   1.594  0.00  0.00    -0.059 S 
ATOM      6  C   UNL     1      -4.201  -1.152  -0.028  0.00  0.00    +0.137 A 
ATOM      7  N   UNL     1      -3.056  -0.688  -0.480  0.00  0.00    -0.340 N 
ATOM      8  N   UNL     1      -5.389  -1.335  -0.719  0.00  0.00    -0.321 N 
ATOM      9  C   UNL     1      -1.185  -0.943   2.703  0.00  0.00    +0.051 C 
ATOM     10  C   UNL     1       0.013  -0.071   2.286  0.00  0.00    -0.022 C 
ATOM     11  C   UNL     1       0.430  -0.454   0.860  0.00  0.00    +0.033 C 
ATOM     12  C   UNL     1       0.674  -1.961   0.795  0.00  0.00    +0.123 C 
ATOM     13  C   UNL     1       1.816  -2.324   1.749  0.00  0.00    +0.029 C 
ATOM     14  C   UNL     1       1.453  -1.907   3.174  0.00  0.00    +0.007 C 
ATOM     15  C   UNL     1       1.183  -0.399   3.226  0.00  0.00    +0.008 C 
ATOM     16  C   UNL     1      -0.346   1.414   2.373  0.00  0.00    +0.012 C 
ATOM     17  H   UNL     1      -5.442  -1.109  -1.660  0.00  0.00    +0.148 HD
ATOM     18  H   UNL     1      -2.988  -0.427  -1.412  0.00  0.00    +0.167 HD
ENDROOT
BRANCH  13  19
ATOM     19  C   UNL     1       2.053  -3.835   1.707  0.00  0.00    +0.078 C 
ATOM     20  C   UNL     1       0.820  -4.560   2.250  0.00  0.00    +0.017 C 
BRANCH  19  21
ATOM     21  C   UNL     1       3.252  -4.179   2.554  0.00  0.00    +0.219 C 
ATOM     22  O   UNL     1       3.099  -4.538   3.703  0.00  0.00    -0.275 OA
ATOM     23  N   UNL     1       4.492  -4.088   2.035  0.00  0.00    -0.301 N 
ATOM     24  C   UNL     1       4.684  -3.552   0.685  0.00  0.00    +0.132 C 
BRANCH  23  25
ATOM     25  C   UNL     1       5.649  -4.525   2.821  0.00  0.00    +0.134 C 
BRANCH  25  26
ATOM     26  C   UNL     1       5.916  -5.984   2.552  0.00  0.00    -0.016 C 
ATOM     27  C   UNL     1       7.101  -6.368   2.146  0.00  0.00    +0.005 C 
ENDBRANCH  25  26
ENDBRANCH  23  25
ENDBRANCH  19  21
ENDBRANCH  13  19
BRANCH  12  28
ATOM     28  O   UNL     1       1.028  -2.332  -0.539  0.00  0.00    -0.391 OA
ATOM     29  H   UNL     1       1.119  -3.285  -0.672  0.00  0.00    +0.210 HD
ENDBRANCH  12  28
BRANCH   8  30
ATOM     30  C   UNL     1      -6.563  -1.871  -0.026  0.00  0.00    +0.130 C 
BRANCH  30  31
ATOM     31  C   UNL     1      -7.714  -1.972  -0.993  0.00  0.00    -0.016 C 
ATOM     32  C   UNL     1      -8.330  -3.116  -1.162  0.00  0.00    +0.005 C 
ENDBRANCH  30  31
ENDBRANCH   8  30
TORSDOF 7
