REMARK  Name = ZINC39688460
REMARK  6 active torsions:
REMARK  status: ('A' for Active; 'I' for Inactive)
REMARK    1  A    between atoms: C_1  and  C_2
REMARK    2  A    between atoms: C_2  and  C_4
REMARK    3  A    between atoms: C_2  and  N_12
REMARK    4  A    between atoms: C_4  and  C_5
REMARK    5  A    between atoms: C_13  and  C_15
REMARK    6  A    between atoms: C_26  and  C_28
REMARK                            x       y       z     vdW  Elec       q    Type
REMARK                         _______ _______ _______ _____ _____    ______ ____
ROOT
ATOM      1  C   UNL     1       1.306  -1.379   3.954  0.00  0.00    +0.100 C 
ATOM      2  C   UNL     1       2.317  -0.217   4.078  0.00  0.00    +0.121 C 
ATOM      3  N   UNL     1       1.701   0.712   5.055  0.00  0.00    -0.296 N 
ATOM      4  C   UNL     1       1.094  -0.176   6.076  0.00  0.00    +0.115 C 
ATOM      5  C   UNL     1       0.508  -1.351   5.268  0.00  0.00    -0.004 C 
ATOM      6  C   UNL     1      -0.971  -1.108   4.982  0.00  0.00    -0.010 C 
ATOM      7  C   UNL     1      -1.752  -1.140   6.299  0.00  0.00    -0.082 C 
ATOM      8  N   UNL     1      -1.566  -2.443   6.948  0.00  0.00    +0.379 N 
ATOM      9  C   UNL     1      -0.154  -2.630   7.303  0.00  0.00    -0.082 C 
ATOM     10  C   UNL     1       0.695  -2.660   6.029  0.00  0.00    -0.010 C 
ATOM     11  C   UNL     1       1.694   2.059   5.023  0.00  0.00    +0.247 C 
ATOM     12  O   UNL     1       2.128   2.646   4.051  0.00  0.00    -0.270 OA
ATOM     13  H   UNL     1      -2.130  -2.485   7.784  0.00  0.00    -0.086 HD
ATOM     14  H   UNL     1      -1.852  -3.176   6.317  0.00  0.00    -0.086 HD
ENDROOT
BRANCH  11  15
ATOM     15  C   UNL     1       1.158   2.824   6.169  0.00  0.00    +0.038 A 
ATOM     16  C   UNL     1       1.066   2.227   7.428  0.00  0.00    +0.013 A 
ATOM     17  C   UNL     1       0.565   2.945   8.494  0.00  0.00    +0.002 A 
ATOM     18  C   UNL     1       0.155   4.254   8.318  0.00  0.00    +0.015 A 
ATOM     19  C   UNL     1       0.243   4.853   7.073  0.00  0.00    +0.019 A 
ATOM     20  C   UNL     1       0.749   4.147   5.999  0.00  0.00    +0.028 A 
ATOM     21 BR   UNL     1      -0.322   6.643   6.844  0.00  0.00    -0.050 Br
ENDBRANCH  11  15
BRANCH   1  23
ATOM     22  N   UNL     1      -0.043  -2.203   2.052  0.00  0.00    -0.312 N 
ATOM     23  C   UNL     1       0.390  -1.154   2.778  0.00  0.00    +0.218 C 
ATOM     24  O   UNL     1       0.043  -0.029   2.486  0.00  0.00    -0.275 OA
ATOM     25  H   UNL     1       0.234  -3.103   2.285  0.00  0.00    +0.149 HD
BRANCH  22  27
ATOM     26  C   UNL     1      -0.100  -1.657  -0.332  0.00  0.00    +0.028 C 
ATOM     27  C   UNL     1      -0.934  -1.985   0.909  0.00  0.00    +0.074 C 
BRANCH  27  28
ATOM     28  C   UNL     1      -1.755  -3.250   0.653  0.00  0.00    +0.057 C 
BRANCH  28  29
ATOM     29  C   UNL     1      -2.666  -3.504   1.826  0.00  0.00    -0.045 A 
ATOM     30  C   UNL     1      -2.229  -4.274   2.887  0.00  0.00    +0.006 A 
ATOM     31  C   UNL     1      -3.063  -4.507   3.963  0.00  0.00    +0.038 A 
ATOM     32  C   UNL     1      -4.339  -3.968   3.978  0.00  0.00    +0.123 A 
ATOM     33  C   UNL     1      -4.776  -3.196   2.915  0.00  0.00    +0.038 A 
ATOM     34  C   UNL     1      -3.938  -2.961   1.842  0.00  0.00    +0.006 A 
ATOM     35  F   UNL     1      -5.156  -4.195   5.030  0.00  0.00    -0.205 F 
ENDBRANCH  28  29
ENDBRANCH  27  28
ENDBRANCH  22  27
ENDBRANCH   1  23
TORSDOF 5
