REMARK  Name = ZINC64871255
REMARK  6 active torsions:
REMARK  status: ('A' for Active; 'I' for Inactive)
REMARK    1  A    between atoms: C_4  and  C_7
REMARK    2  A    between atoms: C_7  and  C_8
REMARK    3  A    between atoms: C_8  and  N_9
REMARK    4  A    between atoms: C_15  and  C_22
REMARK    5  A    between atoms: C_25  and  C_29
REMARK    6  A    between atoms: C_32  and  C_35
REMARK                            x       y       z     vdW  Elec       q    Type
REMARK                         _______ _______ _______ _____ _____    ______ ____
ROOT
ATOM      1  N   UNL     1       5.450  -1.678   1.382  0.00  0.00    -0.260 N 
ATOM      2  C   UNL     1       5.453  -3.029   1.370  0.00  0.00    +0.264 A 
ATOM      3  O   UNL     1       4.411  -3.655   1.372  0.00  0.00    -0.267 OA
ATOM      4  C   UNL     1       6.753  -3.724   1.352  0.00  0.00    +0.063 A 
ATOM      5  C   UNL     1       6.840  -5.114   1.338  0.00  0.00    +0.016 A 
ATOM      6  C   UNL     1       8.081  -5.717   1.322  0.00  0.00    +0.008 A 
ATOM      7  C   UNL     1       9.234  -4.948   1.319  0.00  0.00    -0.000 A 
ATOM      8  C   UNL     1       9.162  -3.569   1.333  0.00  0.00    +0.034 A 
ATOM      9  C   UNL     1       7.923  -2.946   1.349  0.00  0.00    +0.056 A 
ATOM     10  N   UNL     1       7.806  -1.563   1.363  0.00  0.00    -0.307 N 
ATOM     11  H   UNL     1       8.605  -1.013   1.361  0.00  0.00    +0.170 HD
ATOM     12  C   UNL     1       6.595  -0.979   1.373  0.00  0.00    +0.330 A 
ATOM     13  O   UNL     1       6.535   0.235   1.381  0.00  0.00    -0.246 OA
ENDROOT
BRANCH   7  14
ATOM     14  C   UNL     1      10.581  -5.624   1.302  0.00  0.00    +0.242 C 
ATOM     15  N   UNL     1      10.500  -6.952   1.951  0.00  0.00    -0.265 NA
ATOM     16  C   UNL     1      11.388  -7.846   1.177  0.00  0.00    +0.180 C 
ATOM     17  N   UNL     1      11.958  -7.009   0.095  0.00  0.00    -0.177 NA
ATOM     18  O   UNL     1      10.989  -5.900  -0.057  0.00  0.00    -0.274 OA
ATOM     19  H   UNL     1      10.790  -6.901   2.916  0.00  0.00    +0.127 HD
ATOM     20  H   UNL     1      12.043  -7.535  -0.762  0.00  0.00    +0.156 HD
BRANCH  16  21
ATOM     21  C   UNL     1      12.488  -8.377   2.060  0.00  0.00    -0.014 A 
ATOM     22  C   UNL     1      12.262  -8.561   3.411  0.00  0.00    +0.007 A 
ATOM     23  C   UNL     1      13.271  -9.049   4.220  0.00  0.00    +0.013 A 
ATOM     24  C   UNL     1      14.506  -9.353   3.679  0.00  0.00    +0.055 A 
ATOM     25  C   UNL     1      14.732  -9.170   2.327  0.00  0.00    +0.013 A 
ATOM     26  C   UNL     1      13.721  -8.686   1.517  0.00  0.00    +0.007 A 
BRANCH  24  27
ATOM     27  C   UNL     1      15.606  -9.883   4.561  0.00  0.00    +0.417 C 
ATOM     28  F   UNL     1      15.540 -11.280   4.600  0.00  0.00    -0.166 F 
ATOM     29  F   UNL     1      16.846  -9.489   4.048  0.00  0.00    -0.166 F 
ATOM     30  F   UNL     1      15.453  -9.373   5.855  0.00  0.00    -0.166 F 
ENDBRANCH  24  27
ENDBRANCH  16  21
ENDBRANCH   7  14
BRANCH   1  31
ATOM     31  C   UNL     1       4.171  -0.963   1.399  0.00  0.00    +0.134 C 
BRANCH  31  32
ATOM     32  C   UNL     1       3.711  -0.707  -0.038  0.00  0.00    +0.057 C 
BRANCH  32  36
ATOM     33  C   UNL     1      -0.017   1.378   0.010  0.00  0.00    +0.000 A 
ATOM     34  C   UNL     1       1.171   2.086   0.002  0.00  0.00    +0.000 A 
ATOM     35  C   UNL     1       2.377   1.411  -0.013  0.00  0.00    +0.004 A 
ATOM     36  C   UNL     1       2.396   0.029  -0.020  0.00  0.00    -0.046 A 
ATOM     37  C   UNL     1       1.208  -0.679  -0.012  0.00  0.00    +0.004 A 
ATOM     38  C   UNL     1       0.002  -0.004   0.002  0.00  0.00    +0.000 A 
ENDBRANCH  32  36
ENDBRANCH  31  32
ENDBRANCH   1  31
TORSDOF 6
