REMARK  Name = ZINC45800152
REMARK  6 active torsions:
REMARK  status: ('A' for Active; 'I' for Inactive)
REMARK    1  A    between atoms: C_1  and  C_2
REMARK    2  A    between atoms: C_7  and  N_8
REMARK    3  A    between atoms: N_8  and  C_9
REMARK    4  A    between atoms: C_9  and  C_10
REMARK    5  A    between atoms: C_13  and  C_19
REMARK    6  A    between atoms: C_15  and  N_16
REMARK                            x       y       z     vdW  Elec       q    Type
REMARK                         _______ _______ _______ _____ _____    ______ ____
ROOT
ATOM      1  C   UNL     1       0.045   0.214   4.831  0.00  0.00    -0.000 A 
ATOM      2  C   UNL     1       1.230   0.518   5.477  0.00  0.00    +0.008 A 
ATOM      3  C   UNL     1       1.235   1.406   6.533  0.00  0.00    +0.013 A 
ATOM      4  C   UNL     1       0.041   1.998   6.949  0.00  0.00    +0.039 A 
ATOM      5  C   UNL     1      -1.151   1.686   6.293  0.00  0.00    +0.046 A 
ATOM      6  C   UNL     1      -1.141   0.801   5.235  0.00  0.00    +0.132 A 
ENDROOT
BRANCH   4   7
ATOM      7  C   UNL     1       0.038   2.949   8.081  0.00  0.00    +0.242 C 
ATOM      8  O   UNL     1      -1.003   3.463   8.441  0.00  0.00    -0.270 OA
ATOM      9  N   UNL     1       1.191   3.248   8.713  0.00  0.00    -0.325 N 
ATOM     10  H   UNL     1       2.022   2.838   8.425  0.00  0.00    +0.145 HD
ATOM     11  H   UNL     1       1.189   3.872   9.455  0.00  0.00    +0.145 HD
ENDBRANCH   4   7
BRANCH   6  12
ATOM     12  N   UNL     1      -2.403   0.474   4.534  0.00  0.00    +0.057 N 
ATOM     13  O   UNL     1      -3.440   0.986   4.885  0.00  0.00    -0.126 OA
ATOM     14  O   UNL     1      -2.396  -0.306   3.609  0.00  0.00    -0.126 OA
ENDBRANCH   6  12
BRANCH   1  15
ATOM     15  C   UNL     1       0.047  -0.757   3.679  0.00  0.00    +0.139 C 
BRANCH  15  16
ATOM     16  N   UNL     1       0.025  -0.016   2.415  0.00  0.00    -0.339 N 
ATOM     17  H   UNL     1       0.012   0.954   2.422  0.00  0.00    +0.146 HD
BRANCH  16  24
ATOM     18  C   UNL     1      -0.018   1.503   0.010  0.00  0.00    +0.045 C 
ATOM     19  C   UNL     1       0.002  -0.004   0.002  0.00  0.00    -0.029 A 
ATOM     20  C   UNL     1       0.006  -0.689  -1.198  0.00  0.00    +0.019 A 
ATOM     21  C   UNL     1       0.024  -2.072  -1.206  0.00  0.00    +0.014 A 
ATOM     22  C   UNL     1       0.039  -2.774  -0.014  0.00  0.00    +0.016 A 
ATOM     23  C   UNL     1       0.035  -2.095   1.189  0.00  0.00    +0.024 A 
ATOM     24  C   UNL     1       0.023  -0.706   1.200  0.00  0.00    +0.030 A 
ATOM     25  I   UNL     1       0.030  -3.106  -3.028  0.00  0.00    -0.044 I 
ENDBRANCH  16  24
ENDBRANCH  15  16
ENDBRANCH   1  15
TORSDOF 5
