REMARK  Name = ZINC60110495
REMARK  8 active torsions:
REMARK  status: ('A' for Active; 'I' for Inactive)
REMARK    1  A    between atoms: C_1  and  C_2
REMARK    2  A    between atoms: C_4  and  C_26
REMARK    3  A    between atoms: C_9  and  S_13
REMARK    4  A    between atoms: S_13  and  C_14
REMARK    5  A    between atoms: C_14  and  C_15
REMARK    6  A    between atoms: N_17  and  C_18
REMARK    7  A    between atoms: C_26  and  O_28
REMARK    8  A    between atoms: O_28  and  C_29
REMARK                            x       y       z     vdW  Elec       q    Type
REMARK                         _______ _______ _______ _____ _____    ______ ____
ROOT
ATOM      1  C   UNL     1      -0.742   1.007   0.276  0.00  0.00    +0.065 C 
ATOM      2  C   UNL     1      -0.447  -0.470   0.251  0.00  0.00    +0.041 A 
ATOM      3  C   UNL     1      -0.433  -1.136  -0.971  0.00  0.00    +0.039 A 
ATOM      4  C   UNL     1      -0.162  -2.500  -1.006  0.00  0.00    +0.077 A 
ATOM      5  C   UNL     1       0.091  -3.150   0.221  0.00  0.00    +0.099 A 
ATOM      6  C   UNL     1       0.378  -4.532   0.294  0.00  0.00    +0.284 A 
ATOM      7  O   UNL     1       0.421  -5.292  -0.824  0.00  0.00    -0.265 OA
ATOM      8  N   UNL     1       0.603  -5.064   1.484  0.00  0.00    -0.183 NA
ATOM      9  C   UNL     1       0.564  -4.325   2.591  0.00  0.00    +0.194 A 
ATOM     10  N   UNL     1       0.300  -3.031   2.577  0.00  0.00    -0.202 NA
ATOM     11  C   UNL     1       0.058  -2.398   1.421  0.00  0.00    +0.169 A 
ATOM     12  N   UNL     1      -0.205  -1.091   1.381  0.00  0.00    -0.232 NA
ENDROOT
BRANCH   4  13
ATOM     13  C   UNL     1      -0.138  -3.244  -2.285  0.00  0.00    +0.340 C 
ATOM     14  O   UNL     1       0.840  -3.895  -2.592  0.00  0.00    -0.245 OA
BRANCH  13  15
ATOM     15  O   UNL     1      -1.203  -3.200  -3.109  0.00  0.00    -0.464 OA
ATOM     16  C   UNL     1      -1.112  -3.942  -4.327  0.00  0.00    +0.280 C 
ENDBRANCH  13  15
ENDBRANCH   4  13
BRANCH   9  17
ATOM     17  S   UNL     1       0.875  -5.106   4.139  0.00  0.00    -0.077 S 
BRANCH  17  18
ATOM     18  C   UNL     1       1.182  -6.840   3.702  0.00  0.00    +0.173 C 
BRANCH  18  19
ATOM     19  C   UNL     1       1.466  -7.630   4.953  0.00  0.00    +0.227 C 
ATOM     20  O   UNL     1       1.462  -7.079   6.033  0.00  0.00    -0.275 OA
ATOM     21  N   UNL     1       1.725  -8.951   4.871  0.00  0.00    -0.285 N 
ATOM     22  H   UNL     1       1.810  -9.375   4.003  0.00  0.00    +0.155 HD
BRANCH  21  23
ATOM     23  C   UNL     1       1.870  -9.709   6.039  0.00  0.00    +0.036 A 
ATOM     24  C   UNL     1       2.754 -10.780   6.067  0.00  0.00    +0.026 A 
ATOM     25  C   UNL     1       2.897 -11.528   7.220  0.00  0.00    +0.043 A 
ATOM     26  C   UNL     1       2.160 -11.211   8.348  0.00  0.00    +0.159 A 
ATOM     27  C   UNL     1       1.277 -10.142   8.323  0.00  0.00    +0.160 A 
ATOM     28  C   UNL     1       1.136  -9.388   7.172  0.00  0.00    +0.064 A 
ATOM     29  F   UNL     1       0.559  -9.834   9.425  0.00  0.00    -0.202 F 
ATOM     30  F   UNL     1       2.301 -11.944   9.474  0.00  0.00    -0.202 F 
ENDBRANCH  21  23
ENDBRANCH  18  19
ENDBRANCH  17  18
ENDBRANCH   9  17
TORSDOF 6
