REMARK  Name = ZINC30576455
REMARK  9 active torsions:
REMARK  status: ('A' for Active; 'I' for Inactive)
REMARK    1  A    between atoms: C_1  and  C_2
REMARK    2  A    between atoms: C_2  and  O_3
REMARK    3  A    between atoms: O_3  and  C_4
REMARK    4  A    between atoms: C_10  and  C_13
REMARK    5  A    between atoms: N_15  and  N_16
REMARK    6  A    between atoms: C_17  and  C_19
REMARK    7  A    between atoms: C_19  and  C_21
REMARK    8  A    between atoms: C_19  and  O_22
REMARK    9  A    between atoms: O_22  and  C_23
REMARK                            x       y       z     vdW  Elec       q    Type
REMARK                         _______ _______ _______ _____ _____    ______ ____
ROOT
ATOM      1  C   UNL     1       4.407   8.319  -1.265  0.00  0.00    +0.234 C 
ATOM      2  O   UNL     1       5.480   7.909  -0.876  0.00  0.00    -0.274 OA
ATOM      3  N   UNL     1       3.310   7.543  -1.158  0.00  0.00    -0.234 N 
ATOM      4  H   UNL     1       2.336   7.915  -1.510  0.00  0.00    +0.173 HD
ENDROOT
BRANCH   1  11
ATOM      5  C   UNL     1       2.186  12.524  -1.910  0.00  0.00    +0.403 C 
ATOM      6  O   UNL     1       1.130  11.934  -1.797  0.00  0.00    -0.226 OA
ATOM      7  N   UNL     1       3.337  11.917  -1.558  0.00  0.00    -0.267 N 
ATOM      8  C   UNL     1       4.623  12.617  -1.688  0.00  0.00    +0.111 C 
ATOM      9  C   UNL     1       5.577  11.747  -2.512  0.00  0.00    +0.020 C 
ATOM     10  C   UNL     1       5.678  10.361  -1.871  0.00  0.00    +0.016 C 
ATOM     11  C   UNL     1       4.300   9.696  -1.867  0.00  0.00    +0.094 C 
ATOM     12  C   UNL     1       3.331  10.544  -1.036  0.00  0.00    +0.124 C 
BRANCH   5  13
ATOM     13  O   UNL     1       2.207  13.783  -2.387  0.00  0.00    -0.451 OA
BRANCH  13  15
ATOM     14  C   UNL     1       1.153  15.795  -3.264  0.00  0.00    +0.048 C 
ATOM     15  C   UNL     1       0.930  14.372  -2.746  0.00  0.00    +0.230 C 
ENDBRANCH  13  15
ENDBRANCH   5  13
ENDBRANCH   1  11
BRANCH   3  16
ATOM     16  N   UNL     1       3.409   6.263  -0.598  0.00  0.00    -0.231 N 
ATOM     17  C   UNL     1       2.312   5.487  -0.491  0.00  0.00    +0.270 C 
ATOM     18  O   UNL     1       1.239   5.897  -0.879  0.00  0.00    -0.270 OA
ATOM     19  H   UNL     1       4.383   5.891  -0.246  0.00  0.00    +0.173 HD
BRANCH  17  20
ATOM     20  C   UNL     1       2.420   4.110   0.112  0.00  0.00    +0.257 C 
ATOM     21  C   UNL     1       2.816   4.227   1.585  0.00  0.00    +0.062 C 
BRANCH  20  22
ATOM     22  O   UNL     1       1.158   3.446   0.009  0.00  0.00    -0.480 OA
BRANCH  22  23
ATOM     23  C   UNL     1       1.175   2.087   0.002  0.00  0.00    +0.122 A 
ATOM     24  C   UNL     1       2.367   1.406   0.205  0.00  0.00    +0.048 A 
ATOM     25  C   UNL     1       2.383   0.025   0.197  0.00  0.00    +0.042 A 
ATOM     26  C   UNL     1       1.210  -0.681  -0.012  0.00  0.00    +0.124 A 
ATOM     27  C   UNL     1       0.020  -0.003  -0.215  0.00  0.00    +0.042 A 
ATOM     28  C   UNL     1       0.001   1.379  -0.209  0.00  0.00    +0.048 A 
ATOM     29  F   UNL     1       1.227  -2.031  -0.019  0.00  0.00    -0.205 F 
ENDBRANCH  22  23
ENDBRANCH  20  22
ENDBRANCH  17  20
ENDBRANCH   3  16
TORSDOF 7
