REMARK  Name = ZINC39686162
REMARK  9 active torsions:
REMARK  status: ('A' for Active; 'I' for Inactive)
REMARK    1  A    between atoms: C_1  and  C_2
REMARK    2  A    between atoms: C_2  and  C_3
REMARK    3  A    between atoms: C_2  and  C_4
REMARK    4  A    between atoms: C_4  and  C_5
REMARK    5  A    between atoms: C_10  and  N_13
REMARK    6  A    between atoms: C_14  and  C_16
REMARK    7  A    between atoms: C_27  and  C_29
REMARK    8  A    between atoms: C_29  and  C_30
REMARK    9  A    between atoms: C_29  and  C_31
REMARK                            x       y       z     vdW  Elec       q    Type
REMARK                         _______ _______ _______ _____ _____    ______ ____
ROOT
ATOM      1  C   UNL     1      -7.970  -6.178   3.318  0.00  0.00    +0.100 C 
ATOM      2  C   UNL     1      -6.738  -6.821   3.993  0.00  0.00    +0.121 C 
ATOM      3  N   UNL     1      -7.239  -8.102   4.544  0.00  0.00    -0.300 N 
ATOM      4  C   UNL     1      -8.168  -8.611   3.506  0.00  0.00    +0.115 C 
ATOM      5  C   UNL     1      -8.906  -7.356   2.999  0.00  0.00    -0.004 C 
ATOM      6  C   UNL     1      -9.139  -7.454   1.495  0.00  0.00    -0.010 C 
ATOM      7  C   UNL     1     -10.118  -8.595   1.208  0.00  0.00    -0.082 C 
ATOM      8  N   UNL     1     -11.386  -8.342   1.904  0.00  0.00    +0.379 N 
ATOM      9  C   UNL     1     -11.168  -8.343   3.356  0.00  0.00    -0.082 C 
ATOM     10  C   UNL     1     -10.233  -7.190   3.734  0.00  0.00    -0.010 C 
ATOM     11  C   UNL     1      -6.922  -8.675   5.722  0.00  0.00    +0.218 C 
ATOM     12  O   UNL     1      -6.201  -8.094   6.504  0.00  0.00    -0.275 OA
ATOM     13  H   UNL     1     -11.751  -7.446   1.620  0.00  0.00    -0.086 HD
ATOM     14  H   UNL     1     -12.049  -9.064   1.665  0.00  0.00    -0.086 HD
ENDROOT
BRANCH   1  16
ATOM     15  N   UNL     1      -8.283  -4.423   1.604  0.00  0.00    -0.312 N 
ATOM     16  C   UNL     1      -7.565  -5.472   2.050  0.00  0.00    +0.218 C 
ATOM     17  O   UNL     1      -6.592  -5.848   1.431  0.00  0.00    -0.275 OA
ATOM     18  H   UNL     1      -9.061  -4.122   2.099  0.00  0.00    +0.149 HD
BRANCH  15  24
ATOM     19  C   UNL     1      -7.643  -0.162  -1.639  0.00  0.00    +0.216 C 
ATOM     20  O   UNL     1      -6.707   0.575  -1.412  0.00  0.00    -0.276 OA
ATOM     21  N   UNL     1      -7.581  -1.460  -1.279  0.00  0.00    -0.301 N 
ATOM     22  C   UNL     1      -8.704  -2.367  -1.553  0.00  0.00    +0.109 C 
ATOM     23  C   UNL     1      -9.112  -3.054  -0.246  0.00  0.00    +0.041 C 
ATOM     24  C   UNL     1      -7.889  -3.736   0.371  0.00  0.00    +0.076 C 
ATOM     25  C   UNL     1      -6.824  -2.685   0.691  0.00  0.00    +0.041 C 
ATOM     26  C   UNL     1      -6.387  -1.995  -0.610  0.00  0.00    +0.109 C 
BRANCH  19  27
ATOM     27  C   UNL     1      -8.874   0.372  -2.324  0.00  0.00    +0.099 C 
BRANCH  27  29
ATOM     28  C   UNL     1      -9.882   2.374  -3.428  0.00  0.00    +0.008 C 
ATOM     29  C   UNL     1      -8.687   1.861  -2.623  0.00  0.00    -0.008 C 
ATOM     30  C   UNL     1      -8.587   2.636  -1.307  0.00  0.00    +0.008 C 
ENDBRANCH  27  29
ENDBRANCH  19  27
ENDBRANCH  15  24
ENDBRANCH   1  16
BRANCH  11  31
ATOM     31  C   UNL     1      -7.465 -10.039   6.066  0.00  0.00    +0.069 C 
ATOM     32  C   UNL     1      -6.540 -11.115   5.493  0.00  0.00    +0.017 C 
ATOM     33  C   UNL     1      -7.540 -10.188   7.587  0.00  0.00    +0.017 C 
ENDBRANCH  11  31
TORSDOF 5
