REMARK  Name = ZINC12025732
REMARK  7 active torsions:
REMARK  status: ('A' for Active; 'I' for Inactive)
REMARK    1  A    between atoms: C_1  and  C_2
REMARK    2  A    between atoms: C_5  and  C_7
REMARK    3  A    between atoms: C_7  and  N_8
REMARK    4  A    between atoms: C_11  and  C_33
REMARK    5  A    between atoms: C_12  and  C_18
REMARK    6  A    between atoms: C_23  and  N_64
REMARK    7  A    between atoms: C_29  and  O_32
REMARK                            x       y       z     vdW  Elec       q    Type
REMARK                         _______ _______ _______ _____ _____    ______ ____
ROOT
ATOM      1  N   UNL     1       0.217  -1.431  -2.057  0.00  0.00    -0.321 N 
ATOM      2  C   UNL     1      -0.469  -0.730  -3.028  0.00  0.00    +0.131 A 
ATOM      3  C   UNL     1      -1.484   0.205  -2.662  0.00  0.00    +0.051 A 
ATOM      4  C   UNL     1      -1.941   0.564  -1.387  0.00  0.00    -0.019 A 
ATOM      5  C   UNL     1      -2.935   1.485  -1.258  0.00  0.00    +0.080 A 
ATOM      6  S   UNL     1      -3.292   1.925  -2.950  0.00  0.00    -0.064 S 
ATOM      7  C   UNL     1      -2.116   0.862  -3.746  0.00  0.00    +0.114 A 
ATOM      8  N   UNL     1      -1.776   0.613  -4.995  0.00  0.00    -0.228 NA
ATOM      9  C   UNL     1      -0.829  -0.264  -5.267  0.00  0.00    +0.224 A 
ATOM     10  N   UNL     1      -0.195  -0.915  -4.308  0.00  0.00    -0.220 NA
ATOM     11  C   UNL     1      -1.339  -0.074  -0.162  0.00  0.00    +0.046 C 
ATOM     12  H   UNL     1      -0.025  -1.330  -1.123  0.00  0.00    +0.148 HD
ENDROOT
BRANCH   5  13
ATOM     13  C   UNL     1      -3.558   1.993  -0.029  0.00  0.00    +0.254 C 
ATOM     14  O   UNL     1      -2.865   2.309   0.919  0.00  0.00    -0.269 OA
ATOM     15  N   UNL     1      -4.899   2.109   0.048  0.00  0.00    -0.297 N 
ATOM     16  C   UNL     1      -5.544   2.511   1.305  0.00  0.00    +0.106 C 
ATOM     17  C   UNL     1      -6.609   1.478   1.670  0.00  0.00    +0.004 C 
ATOM     18  C   UNL     1      -7.574   1.307   0.494  0.00  0.00    -0.066 C 
ATOM     19  C   UNL     1      -6.806   0.800  -0.729  0.00  0.00    +0.004 C 
ATOM     20  C   UNL     1      -5.743   1.831  -1.122  0.00  0.00    +0.106 C 
BRANCH  18  26
ATOM     21  C   UNL     1      -8.041  -0.996   1.078  0.00  0.00    -0.078 C 
ATOM     22  C   UNL     1      -9.167  -2.007   1.306  0.00  0.00    -0.016 C 
ATOM     23  C   UNL     1      -9.993  -1.577   2.521  0.00  0.00    +0.027 C 
ATOM     24  C   UNL     1     -10.541  -0.168   2.283  0.00  0.00    +0.098 C 
ATOM     25  C   UNL     1      -9.376   0.791   2.026  0.00  0.00    -0.047 C 
ATOM     26  N   UNL     1      -8.635   0.336   0.831  0.00  0.00    +0.383 N 
ATOM     27  H   UNL     1      -9.288   0.268   0.041  0.00  0.00    -0.081 HD
BRANCH  24  28
ATOM     28  O   UNL     1     -11.268   0.263   3.436  0.00  0.00    -0.394 OA
ATOM     29  H   UNL     1     -12.022  -0.300   3.659  0.00  0.00    +0.210 HD
ENDBRANCH  24  28
ENDBRANCH  18  26
ENDBRANCH   5  13
BRANCH   1  30
ATOM     30  C   UNL     1       1.312  -2.327  -2.438  0.00  0.00    +0.177 C 
BRANCH  30  35
ATOM     31  C   UNL     1       4.207  -3.111   1.618  0.00  0.00    +0.086 C 
ATOM     32  C   UNL     1       3.150  -3.307   0.562  0.00  0.00    +0.102 A 
ATOM     33  C   UNL     1       2.296  -4.343   0.486  0.00  0.00    +0.045 A 
ATOM     34  C   UNL     1       1.485  -4.124  -0.651  0.00  0.00    +0.046 A 
ATOM     35  C   UNL     1       1.891  -2.966  -1.202  0.00  0.00    +0.122 A 
ATOM     36  O   UNL     1       2.903  -2.478  -0.466  0.00  0.00    -0.463 OA
ENDBRANCH  30  35
ENDBRANCH   1  30
TORSDOF 5
