REMARK  Name = ZINC11439892
REMARK  14 active torsions:
REMARK  status: ('A' for Active; 'I' for Inactive)
REMARK    1  A    between atoms: C_1  and  O_2
REMARK    2  A    between atoms: O_2  and  C_3
REMARK    3  A    between atoms: C_3  and  C_5
REMARK    4  A    between atoms: C_6  and  C_15
REMARK    5  A    between atoms: C_7  and  C_11
REMARK    6  A    between atoms: C_9  and  N_10
REMARK    7  A    between atoms: C_11  and  O_13
REMARK    8  A    between atoms: O_13  and  C_14
REMARK    9  A    between atoms: C_15  and  O_16
REMARK   10  A    between atoms: O_16  and  C_17
REMARK   11  A    between atoms: C_17  and  C_19
REMARK   12  A    between atoms: C_19  and  C_20
REMARK   13  A    between atoms: C_20  and  N_21
REMARK   14  A    between atoms: N_24  and  C_25
REMARK                            x       y       z     vdW  Elec       q    Type
REMARK                         _______ _______ _______ _____ _____    ______ ____
ROOT
ATOM      1  C   UNL     1      -9.551   0.922   3.096  0.00  0.00    +0.309 C 
ATOM      2  O   UNL     1      -9.156   1.617   4.002  0.00  0.00    -0.251 OA
ENDROOT
BRANCH   1   3
ATOM      3  O   UNL     1     -10.810   0.458   3.106  0.00  0.00    -0.460 OA
BRANCH   3   4
ATOM      4  C   UNL     1     -11.642   0.830   4.236  0.00  0.00    +0.269 C 
BRANCH   4   6
ATOM      5  C   UNL     1     -14.025   0.901   3.418  0.00  0.00    +0.094 A 
ATOM      6  C   UNL     1     -13.011   0.222   4.075  0.00  0.00    +0.027 A 
ATOM      7  C   UNL     1     -13.298  -1.020   4.577  0.00  0.00    +0.105 A 
ATOM      8  S   UNL     1     -15.006  -1.244   4.119  0.00  0.00    -0.066 S 
ATOM      9  C   UNL     1     -15.269   0.265   3.306  0.00  0.00    +0.078 A 
BRANCH   9  10
ATOM     10  N   UNL     1     -16.416   0.725   2.705  0.00  0.00    -0.352 N 
ATOM     11  H   UNL     1     -17.216   0.177   2.703  0.00  0.00    +0.143 HD
ATOM     12  H   UNL     1     -16.425   1.598   2.281  0.00  0.00    +0.143 HD
ENDBRANCH   9  10
BRANCH   5  13
ATOM     13  C   UNL     1     -13.803   2.237   2.856  0.00  0.00    +0.342 C 
ATOM     14  O   UNL     1     -13.412   2.357   1.711  0.00  0.00    -0.245 OA
BRANCH  13  16
ATOM     15  C   UNL     1     -13.793   4.622   2.986  0.00  0.00    +0.280 C 
ATOM     16  O   UNL     1     -14.034   3.332   3.608  0.00  0.00    -0.464 OA
ENDBRANCH  13  16
ENDBRANCH   5  13
BRANCH   7  17
ATOM     17  C   UNL     1     -12.422  -1.933   5.307  0.00  0.00    +0.346 C 
ATOM     18  O   UNL     1     -11.269  -1.617   5.537  0.00  0.00    -0.244 OA
BRANCH  17  19
ATOM     19  O   UNL     1     -12.890  -3.127   5.726  0.00  0.00    -0.464 OA
ATOM     20  C   UNL     1     -11.979  -3.970   6.434  0.00  0.00    +0.280 C 
ENDBRANCH  17  19
ENDBRANCH   7  17
ENDBRANCH   4   6
ENDBRANCH   3   4
ENDBRANCH   1   3
BRANCH   1  21
ATOM     21  C   UNL     1      -8.629   0.577   1.955  0.00  0.00    +0.139 C 
BRANCH  21  22
ATOM     22  C   UNL     1      -7.264   1.227   2.188  0.00  0.00    +0.117 C 
BRANCH  22  23
ATOM     23  N   UNL     1      -6.368   0.892   1.079  0.00  0.00    -0.299 N 
ATOM     24  C   UNL     1      -5.103   1.358   1.069  0.00  0.00    +0.300 C 
ATOM     25  O   UNL     1      -4.706   2.058   1.981  0.00  0.00    -0.253 OA
ATOM     26  N   UNL     1      -4.279   1.049   0.049  0.00  0.00    -0.294 N 
ATOM     27  H   UNL     1      -6.684   0.334   0.351  0.00  0.00    +0.150 HD
ATOM     28  H   UNL     1      -4.595   0.491  -0.679  0.00  0.00    +0.151 HD
BRANCH  26  29
ATOM     29  C   UNL     1      -2.904   1.556   0.038  0.00  0.00    +0.037 C 
ATOM     30  C   UNL     1      -2.188   1.063  -1.221  0.00  0.00    +0.029 C 
ATOM     31  C   UNL     1      -0.753   1.593  -1.232  0.00  0.00    -0.008 C 
ATOM     32  C   UNL     1      -0.013   1.086   0.008  0.00  0.00    +0.007 C 
ATOM     33  C   UNL     1      -0.729   1.579   1.267  0.00  0.00    -0.008 C 
ATOM     34  C   UNL     1      -2.164   1.050   1.278  0.00  0.00    +0.029 C 
ATOM     35  C   UNL     1      -0.750   3.109   1.275  0.00  0.00    +0.007 C 
ATOM     36  C   UNL     1      -1.490   3.616   0.036  0.00  0.00    -0.008 C 
ATOM     37  C   UNL     1      -0.773   3.123  -1.223  0.00  0.00    +0.007 C 
ATOM     38  C   UNL     1      -2.925   3.086   0.047  0.00  0.00    +0.029 C 
ENDBRANCH  26  29
ENDBRANCH  22  23
ENDBRANCH  21  22
ENDBRANCH   1  21
TORSDOF 12
