REMARK  Name = ZINC10122830
REMARK  10 active torsions:
REMARK  status: ('A' for Active; 'I' for Inactive)
REMARK    1  A    between atoms: C_1  and  C_2
REMARK    2  A    between atoms: C_2  and  C_3
REMARK    3  A    between atoms: C_3  and  C_5
REMARK    4  A    between atoms: C_3  and  O_6
REMARK    5  A    between atoms: O_6  and  C_7
REMARK    6  A    between atoms: C_11  and  C_13
REMARK    7  A    between atoms: N_15  and  C_16
REMARK    8  A    between atoms: C_16  and  N_18
REMARK    9  A    between atoms: N_18  and  C_19
REMARK   10  A    between atoms: C_21  and  N_25
REMARK                            x       y       z     vdW  Elec       q    Type
REMARK                         _______ _______ _______ _____ _____    ______ ____
ROOT
ATOM      1  C   UNL     1      -0.516  -0.649  -6.028  0.00  0.00    +0.250 C 
ATOM      2  O   UNL     1      -0.438  -1.862  -6.020  0.00  0.00    -0.270 OA
ATOM      3  N   UNL     1      -0.823   0.014  -4.896  0.00  0.00    -0.264 N 
ATOM      4  H   UNL     1      -0.885   0.982  -4.902  0.00  0.00    +0.157 HD
ENDROOT
BRANCH   1   9
ATOM      5  C   UNL     1       0.273   0.122  -9.621  0.00  0.00    +0.122 A 
ATOM      6  C   UNL     1       0.183   1.508  -9.624  0.00  0.00    +0.046 A 
ATOM      7  C   UNL     1      -0.133   2.187  -8.461  0.00  0.00    +0.004 A 
ATOM      8  C   UNL     1      -0.366   1.492  -7.292  0.00  0.00    +0.013 A 
ATOM      9  C   UNL     1      -0.272   0.099  -7.279  0.00  0.00    +0.041 A 
ATOM     10  C   UNL     1       0.047  -0.585  -8.453  0.00  0.00    +0.058 A 
BRANCH   5  11
ATOM     11  O   UNL     1       0.584  -0.540 -10.767  0.00  0.00    -0.489 OA
BRANCH  11  12
ATOM     12  C   UNL     1       0.770   0.250 -11.943  0.00  0.00    +0.170 C 
ATOM     13  C   UNL     1      -0.586   0.517 -12.598  0.00  0.00    +0.052 C 
BRANCH  12  15
ATOM     14  C   UNL     1       3.068  -0.658 -12.318  0.00  0.00    +0.007 C 
ATOM     15  C   UNL     1       1.672  -0.501 -12.925  0.00  0.00    +0.041 C 
ENDBRANCH  12  15
ENDBRANCH  11  12
ENDBRANCH   5  11
ENDBRANCH   1   9
BRANCH   3  16
ATOM     16  C   UNL     1      -1.046  -0.668  -3.755  0.00  0.00    +0.141 C 
ATOM     17  S   UNL     1      -0.937  -2.376  -3.743  0.00  0.00    -0.018 S 
BRANCH  16  18
ATOM     18  N   UNL     1      -1.353  -0.005  -2.622  0.00  0.00    -0.294 N 
ATOM     19  H   UNL     1      -1.482   0.956  -2.643  0.00  0.00    +0.154 HD
BRANCH  18  20
ATOM     20  C   UNL     1      -1.487  -0.704  -1.415  0.00  0.00    +0.082 A 
ATOM     21  C   UNL     1      -2.262  -1.853  -1.360  0.00  0.00    +0.059 A 
ATOM     22  C   UNL     1      -2.396  -2.538  -0.167  0.00  0.00    +0.128 A 
ATOM     23  C   UNL     1      -1.756  -2.083   0.972  0.00  0.00    +0.036 A 
ATOM     24  C   UNL     1      -0.979  -0.941   0.922  0.00  0.00    +0.055 A 
ATOM     25  C   UNL     1      -0.838  -0.249  -0.270  0.00  0.00    +0.200 A 
ATOM     26  O   UNL     1      -0.074   0.874  -0.319  0.00  0.00    -0.286 OA
BRANCH  22  27
ATOM     27  N   UNL     1      -3.228  -3.761  -0.108  0.00  0.00    +0.056 N 
ATOM     28  O   UNL     1      -3.348  -4.366   0.943  0.00  0.00    -0.126 OA
ATOM     29  O   UNL     1      -3.792  -4.163  -1.109  0.00  0.00    -0.126 OA
ENDBRANCH  22  27
ENDBRANCH  18  20
ENDBRANCH  16  18
ENDBRANCH   3  16
TORSDOF 8
