REMARK  Name = ZINC15184345
REMARK  7 active torsions:
REMARK  status: ('A' for Active; 'I' for Inactive)
REMARK    1  A    between atoms: C_7  and  C_11
REMARK    2  A    between atoms: C_14  and  S_23
REMARK    3  A    between atoms: N_15  and  C_16
REMARK    4  A    between atoms: C_16  and  C_17
REMARK    5  A    between atoms: S_23  and  C_24
REMARK    6  A    between atoms: C_24  and  C_25
REMARK    7  A    between atoms: N_30  and  C_31
REMARK                            x       y       z     vdW  Elec       q    Type
REMARK                         _______ _______ _______ _____ _____    ______ ____
ROOT
ATOM      1  C   UNL     1      -2.538   1.335   0.215  0.00  0.00    +0.167 A 
ATOM      2  N   UNL     1      -3.615   2.086   0.240  0.00  0.00    -0.128 NA
ATOM      3  N   UNL     1      -4.652   1.376  -0.025  0.00  0.00    -0.122 NA
ATOM      4  C   UNL     1      -4.305   0.127  -0.227  0.00  0.00    +0.192 A 
ATOM      5  N   UNL     1      -2.946   0.055  -0.082  0.00  0.00    -0.300 N 
ENDROOT
BRANCH   1  12
ATOM      6  C   UNL     1      -0.591   4.012   3.518  0.00  0.00    +0.001 A 
ATOM      7  C   UNL     1       0.777   4.167   3.342  0.00  0.00    +0.002 A 
ATOM      8  C   UNL     1       1.422   3.561   2.287  0.00  0.00    +0.026 A 
ATOM      9  C   UNL     1       0.697   2.787   1.385  0.00  0.00    +0.047 A 
ATOM     10  C   UNL     1      -0.688   2.635   1.569  0.00  0.00    +0.010 A 
ATOM     11  C   UNL     1      -1.321   3.256   2.644  0.00  0.00    +0.011 A 
ATOM     12  C   UNL     1      -1.152   1.779   0.464  0.00  0.00    +0.044 A 
ATOM     13  C   UNL     1      -0.057   1.475  -0.279  0.00  0.00    +0.095 A 
ATOM     14  N   UNL     1       1.046   2.073   0.260  0.00  0.00    -0.360 N 
ATOM     15  H   UNL     1       1.945   2.005  -0.098  0.00  0.00    +0.165 HD
ENDBRANCH   1  12
BRANCH   5  16
ATOM     16  C   UNL     1      -2.103  -1.135  -0.216  0.00  0.00    +0.157 C 
BRANCH  16  17
ATOM     17  C   UNL     1      -1.863  -1.748   1.165  0.00  0.00    +0.138 C 
ATOM     18  C   UNL     1      -0.878  -2.931   1.050  0.00  0.00    +0.035 C 
ATOM     19  C   UNL     1      -1.480  -3.959   2.048  0.00  0.00    +0.031 C 
ATOM     20  C   UNL     1      -2.995  -3.678   1.883  0.00  0.00    +0.160 C 
ATOM     21  O   UNL     1      -3.095  -2.258   1.690  0.00  0.00    -0.375 OA
ENDBRANCH  16  17
ENDBRANCH   5  16
BRANCH   4  22
ATOM     22  S   UNL     1      -5.386  -1.210  -0.614  0.00  0.00    -0.077 S 
BRANCH  22  23
ATOM     23  C   UNL     1      -6.971  -0.337  -0.629  0.00  0.00    +0.173 C 
BRANCH  23  24
ATOM     24  C   UNL     1      -8.078  -1.310  -0.948  0.00  0.00    +0.231 C 
ATOM     25  O   UNL     1      -7.819  -2.478  -1.145  0.00  0.00    -0.274 OA
ATOM     26  N   UNL     1      -9.354  -0.881  -1.014  0.00  0.00    -0.239 N 
ATOM     27  C   UNL     1     -10.343  -1.752  -1.299  0.00  0.00    +0.306 C 
ATOM     28  O   UNL     1     -10.084  -2.922  -1.496  0.00  0.00    -0.252 OA
ATOM     29  N   UNL     1     -11.619  -1.323  -1.365  0.00  0.00    -0.296 N 
ATOM     30  H   UNL     1      -9.560   0.053  -0.856  0.00  0.00    +0.159 HD
ATOM     31  H   UNL     1     -11.825  -0.389  -1.207  0.00  0.00    +0.151 HD
BRANCH  29  32
ATOM     32  C   UNL     1     -12.694  -2.269  -1.675  0.00  0.00    +0.074 C 
ATOM     33  C   UNL     1     -12.880  -2.376  -3.202  0.00  0.00    +0.022 C 
ATOM     34  C   UNL     1     -14.411  -2.518  -3.390  0.00  0.00    +0.002 C 
ATOM     35  C   UNL     1     -14.978  -1.569  -2.305  0.00  0.00    +0.002 C 
ATOM     36  C   UNL     1     -14.028  -1.756  -1.104  0.00  0.00    +0.022 C 
ENDBRANCH  29  32
ENDBRANCH  23  24
ENDBRANCH  22  23
ENDBRANCH   4  22
TORSDOF 7
