REMARK  Name = ZINC66105586
REMARK  10 active torsions:
REMARK  status: ('A' for Active; 'I' for Inactive)
REMARK    1  A    between atoms: C_1  and  C_2
REMARK    2  A    between atoms: C_3  and  C_26
REMARK    3  A    between atoms: C_4  and  C_25
REMARK    4  A    between atoms: C_5  and  S_10
REMARK    5  A    between atoms: C_6  and  C_9
REMARK    6  A    between atoms: C_7  and  C_8
REMARK    7  A    between atoms: S_10  and  N_13
REMARK    8  A    between atoms: C_17  and  C_20
REMARK    9  A    between atoms: C_20  and  C_21
REMARK   10  A    between atoms: C_21  and  C_22
REMARK                            x       y       z     vdW  Elec       q    Type
REMARK                         _______ _______ _______ _____ _____    ______ ____
ROOT
ATOM      1  S   UNL     1      -0.957  -4.346   0.182  0.00  0.00    +0.061 S 
ATOM      2  O   UNL     1      -1.685  -4.384   1.402  0.00  0.00    -0.153 OA
ATOM      3  O   UNL     1      -1.563  -4.610  -1.075  0.00  0.00    -0.153 OA
ENDROOT
BRANCH   1   8
ATOM      4  C   UNL     1       1.488   1.156  -0.200  0.00  0.00    +0.044 C 
ATOM      5  C   UNL     1       0.878  -0.218  -0.105  0.00  0.00    -0.044 A 
ATOM      6  C   UNL     1       0.492  -0.719   1.124  0.00  0.00    -0.043 A 
ATOM      7  C   UNL     1      -0.068  -1.980   1.212  0.00  0.00    -0.021 A 
ATOM      8  C   UNL     1      -0.243  -2.739   0.070  0.00  0.00    +0.112 A 
ATOM      9  C   UNL     1       0.141  -2.237  -1.159  0.00  0.00    -0.021 A 
ATOM     10  C   UNL     1       0.698  -0.975  -1.247  0.00  0.00    -0.043 A 
ATOM     11  C   UNL     1       1.112  -0.426  -2.588  0.00  0.00    +0.044 C 
ATOM     12  C   UNL     1      -0.050  -3.066  -2.404  0.00  0.00    +0.046 C 
ATOM     13  C   UNL     1      -0.487  -2.526   2.552  0.00  0.00    +0.046 C 
ATOM     14  C   UNL     1       0.684   0.109   2.369  0.00  0.00    +0.044 C 
ENDBRANCH   1   8
BRANCH   1  15
ATOM     15  N   UNL     1       0.290  -5.425   0.342  0.00  0.00    -0.176 NA
ATOM     16  C   UNL     1       0.857  -6.093  -0.838  0.00  0.00    +0.109 C 
ATOM     17  C   UNL     1       2.372  -5.867  -0.852  0.00  0.00    +0.017 C 
ATOM     18  C   UNL     1       2.965  -6.332   0.480  0.00  0.00    +0.006 C 
ATOM     19  C   UNL     1       2.365  -5.510   1.623  0.00  0.00    +0.005 C 
ATOM     20  C   UNL     1       0.854  -5.727   1.664  0.00  0.00    +0.113 C 
BRANCH  19  21
ATOM     21  C   UNL     1       2.983  -5.953   2.950  0.00  0.00    +0.014 C 
BRANCH  21  22
ATOM     22  C   UNL     1       4.476  -5.619   2.954  0.00  0.00    +0.096 C 
BRANCH  22  23
ATOM     23  C   UNL     1       5.086  -6.055   4.261  0.00  0.00    +0.210 C 
ATOM     24  O   UNL     1       4.394  -6.581   5.107  0.00  0.00    -0.276 OA
ATOM     25  N   UNL     1       6.400  -5.861   4.490  0.00  0.00    -0.329 N 
ATOM     26  H   UNL     1       6.953  -5.440   3.814  0.00  0.00    +0.145 HD
ATOM     27  H   UNL     1       6.792  -6.141   5.332  0.00  0.00    +0.145 HD
ENDBRANCH  22  23
ENDBRANCH  21  22
ENDBRANCH  19  21
ENDBRANCH   1  15
TORSDOF 5
