REMARK  Name = ZINC65742796
REMARK  17 active torsions:
REMARK  status: ('A' for Active; 'I' for Inactive)
REMARK    1  A    between atoms: C_1  and  O_2
REMARK    2  A    between atoms: O_2  and  C_3
REMARK    3  A    between atoms: C_6  and  C_11
REMARK    4  A    between atoms: C_8  and  O_9
REMARK    5  A    between atoms: O_9  and  C_10
REMARK    6  A    between atoms: C_15  and  C_22
REMARK    7  A    between atoms: C_17  and  O_20
REMARK    8  A    between atoms: O_20  and  C_21
REMARK    9  A    between atoms: C_22  and  C_23
REMARK   10  A    between atoms: C_23  and  C_24
REMARK   11  A    between atoms: C_24  and  O_25
REMARK   12  A    between atoms: O_25  and  C_26
REMARK   13  A    between atoms: C_28  and  O_41
REMARK   14  A    between atoms: C_30  and  O_40
REMARK   15  A    between atoms: C_32  and  O_39
REMARK   16  A    between atoms: C_34  and  C_37
REMARK   17  A    between atoms: C_37  and  O_38
REMARK                            x       y       z     vdW  Elec       q    Type
REMARK                         _______ _______ _______ _____ _____    ______ ____
ROOT
ATOM      1  C   UNL     1      -4.965  -2.615   0.036  0.00  0.00    +0.137 A 
ATOM      2  C   UNL     1      -6.169  -1.994   0.041  0.00  0.00    +0.058 A 
ATOM      3  C   UNL     1      -7.175  -3.059   0.051  0.00  0.00    +0.025 A 
ATOM      4  C   UNL     1      -8.572  -3.079   0.059  0.00  0.00    +0.015 A 
ATOM      5  C   UNL     1      -9.234  -4.274   0.067  0.00  0.00    -0.043 A 
ATOM      6  C   UNL     1      -8.530  -5.469   0.066  0.00  0.00    +0.053 A 
ATOM      7  C   UNL     1      -7.146  -5.472   0.059  0.00  0.00    +0.163 A 
ATOM      8  C   UNL     1      -6.452  -4.263   0.050  0.00  0.00    +0.177 A 
ATOM      9  O   UNL     1      -5.140  -3.951   0.036  0.00  0.00    -0.451 OA
ENDROOT
BRANCH   1  13
ATOM     10  C   UNL     1      -1.201  -0.638   0.010  0.00  0.00    +0.162 A 
ATOM     11  C   UNL     1      -2.373   0.103   0.019  0.00  0.00    +0.050 A 
ATOM     12  C   UNL     1      -3.596  -0.535   0.028  0.00  0.00    +0.015 A 
ATOM     13  C   UNL     1      -3.655  -1.930   0.027  0.00  0.00    +0.021 A 
ATOM     14  C   UNL     1      -2.475  -2.675   0.017  0.00  0.00    +0.061 A 
ATOM     15  C   UNL     1      -1.253  -2.030   0.003  0.00  0.00    +0.162 A 
BRANCH  10  17
ATOM     16  C   UNL     1      -0.017   1.425   0.010  0.00  0.00    +0.277 C 
ATOM     17  O   UNL     1       0.002  -0.004   0.002  0.00  0.00    -0.491 OA
ENDBRANCH  10  17
BRANCH  15  18
ATOM     18  O   UNL     1      -0.102  -2.753  -0.011  0.00  0.00    -0.491 OA
ATOM     19  C   UNL     1      -0.230  -4.176  -0.018  0.00  0.00    +0.277 C 
ENDBRANCH  15  18
ENDBRANCH   1  13
BRANCH   7  20
ATOM     20  O   UNL     1      -6.467  -6.649   0.059  0.00  0.00    -0.491 OA
ATOM     21  C   UNL     1      -7.245  -7.848   0.068  0.00  0.00    +0.277 C 
ENDBRANCH   7  20
BRANCH   5  22
ATOM     22  C   UNL     1     -10.741  -4.294   0.076  0.00  0.00    +0.037 C 
BRANCH  22  23
ATOM     23  C   UNL     1     -11.260  -4.305  -1.363  0.00  0.00    +0.033 C 
BRANCH  23  24
ATOM     24  C   UNL     1     -12.790  -4.325  -1.354  0.00  0.00    +0.163 C 
BRANCH  24  25
ATOM     25  O   UNL     1     -13.274  -4.335  -2.698  0.00  0.00    -0.349 OA
BRANCH  25  26
ATOM     26  C   UNL     1     -14.700  -4.355  -2.802  0.00  0.00    +0.282 C 
ATOM     27  C   UNL     1     -15.102  -4.614  -4.256  0.00  0.00    +0.201 C 
ATOM     28  C   UNL     1     -16.629  -4.574  -4.371  0.00  0.00    +0.179 C 
ATOM     29  C   UNL     1     -17.132  -3.219  -3.861  0.00  0.00    +0.177 C 
ATOM     30  C   UNL     1     -16.651  -3.014  -2.422  0.00  0.00    +0.178 C 
ATOM     31  O   UNL     1     -15.225  -3.094  -2.382  0.00  0.00    -0.341 OA
BRANCH  29  32
ATOM     32  O   UNL     1     -16.618  -2.176  -4.691  0.00  0.00    -0.386 OA
ATOM     33  H   UNL     1     -16.881  -2.247  -5.619  0.00  0.00    +0.210 HD
ENDBRANCH  29  32
BRANCH  28  34
ATOM     34  O   UNL     1     -17.011  -4.744  -5.737  0.00  0.00    -0.386 OA
ATOM     35  H   UNL     1     -16.718  -5.580  -6.126  0.00  0.00    +0.210 HD
ENDBRANCH  28  34
BRANCH  27  36
ATOM     36  O   UNL     1     -14.532  -3.608  -5.096  0.00  0.00    -0.384 OA
ATOM     37  H   UNL     1     -13.566  -3.575  -5.070  0.00  0.00    +0.210 HD
ENDBRANCH  27  36
BRANCH  30  38
ATOM     38  C   UNL     1     -17.099  -1.637  -1.927  0.00  0.00    +0.190 C 
BRANCH  38  39
ATOM     39  O   UNL     1     -16.753  -1.491  -0.548  0.00  0.00    -0.392 OA
ATOM     40  H   UNL     1     -17.007  -0.640  -0.166  0.00  0.00    +0.210 HD
ENDBRANCH  38  39
ENDBRANCH  30  38
ENDBRANCH  25  26
ENDBRANCH  24  25
ENDBRANCH  23  24
ENDBRANCH  22  23
ENDBRANCH   5  22
TORSDOF 14
