REMARK  Name = ZINC24539379
REMARK  8 active torsions:
REMARK  status: ('A' for Active; 'I' for Inactive)
REMARK    1  A    between atoms: C_7  and  C_11
REMARK    2  A    between atoms: C_11  and  C_12
REMARK    3  A    between atoms: C_12  and  C_14
REMARK    4  A    between atoms: C_12  and  N_28
REMARK    5  A    between atoms: N_16  and  C_17
REMARK    6  A    between atoms: C_17  and  C_18
REMARK    7  A    between atoms: C_21  and  C_24
REMARK    8  A    between atoms: C_29  and  C_31
REMARK                            x       y       z     vdW  Elec       q    Type
REMARK                         _______ _______ _______ _____ _____    ______ ____
ROOT
ATOM      1  C   UNL     1       1.148   5.892   3.070  0.00  0.00    +0.163 C 
ENDROOT
BRANCH   1   2
ATOM      2  C   UNL     1       1.141   5.397   1.647  0.00  0.00    +0.234 C 
ATOM      3  O   UNL     1       1.122   6.190   0.729  0.00  0.00    -0.274 OA
ATOM      4  N   UNL     1       1.157   4.074   1.394  0.00  0.00    -0.310 N 
ATOM      5  H   UNL     1       1.174   3.355   2.226  0.00  0.00    +0.149 HD
BRANCH   4   6
ATOM      6  C   UNL     1       1.151   3.592   0.010  0.00  0.00    +0.139 C 
BRANCH   6   7
ATOM      7  C   UNL     1       1.171   2.086   0.002  0.00  0.00    -0.030 A 
ATOM      8  C   UNL     1      -0.017   1.378   0.010  0.00  0.00    +0.006 A 
ATOM      9  C   UNL     1       0.002  -0.004   0.002  0.00  0.00    +0.013 A 
ATOM     10  C   UNL     1       1.208  -0.679  -0.014  0.00  0.00    +0.055 A 
ATOM     11  C   UNL     1       2.396   0.029  -0.021  0.00  0.00    +0.013 A 
ATOM     12  C   UNL     1       2.377   1.411  -0.014  0.00  0.00    +0.006 A 
BRANCH  10  13
ATOM     13  C   UNL     1       1.229  -2.186  -0.022  0.00  0.00    +0.417 C 
ATOM     14  F   UNL     1       1.222  -2.645  -1.343  0.00  0.00    -0.166 F 
ATOM     15  F   UNL     1       2.384  -2.640   0.624  0.00  0.00    -0.166 F 
ATOM     16  F   UNL     1       0.100  -2.671   0.646  0.00  0.00    -0.166 F 
ENDBRANCH  10  13
ENDBRANCH   6   7
ENDBRANCH   4   6
ENDBRANCH   1   2
BRANCH   1  17
ATOM     17  N   UNL     1       1.601   7.285   3.101  0.00  0.00    -0.300 N 
ATOM     18  C   UNL     1       0.916   8.232   2.430  0.00  0.00    +0.246 C 
ATOM     19  O   UNL     1      -0.078   7.931   1.799  0.00  0.00    -0.270 OA
ATOM     20  H   UNL     1       2.502   7.558   3.671  0.00  0.00    +0.150 HD
BRANCH  18  21
ATOM     21  C   UNL     1       1.374   9.637   2.461  0.00  0.00    +0.055 A 
ATOM     22  C   UNL     1       2.513   9.987   3.188  0.00  0.00    +0.014 A 
ATOM     23  C   UNL     1       2.938  11.299   3.208  0.00  0.00    +0.001 A 
ATOM     24  C   UNL     1       2.232  12.270   2.518  0.00  0.00    +0.001 A 
ATOM     25  C   UNL     1       1.100  11.932   1.800  0.00  0.00    +0.021 A 
ATOM     26  C   UNL     1       0.666  10.621   1.766  0.00  0.00    +0.053 A 
ATOM     27 CL   UNL     1      -0.755  10.197   0.864  0.00  0.00    -0.083 Cl
ENDBRANCH  18  21
ENDBRANCH   1  17
BRANCH   1  28
ATOM     28  C   UNL     1      -0.267   5.804   3.647  0.00  0.00    +0.069 C 
BRANCH  28  35
ATOM     29  C   UNL     1      -0.456   9.911   5.899  0.00  0.00    +0.001 A 
ATOM     30  C   UNL     1      -0.397   9.774   7.280  0.00  0.00    +0.002 A 
ATOM     31  C   UNL     1      -0.294   8.528   7.859  0.00  0.00    +0.026 A 
ATOM     32  C   UNL     1      -0.248   7.394   7.054  0.00  0.00    +0.047 A 
ATOM     33  C   UNL     1      -0.308   7.538   5.656  0.00  0.00    +0.003 A 
ATOM     34  C   UNL     1      -0.412   8.811   5.090  0.00  0.00    +0.010 A 
ATOM     35  C   UNL     1      -0.238   6.182   5.106  0.00  0.00    -0.020 A 
ATOM     36  C   UNL     1      -0.150   5.340   6.147  0.00  0.00    +0.087 A 
ATOM     37  N   UNL     1      -0.149   6.046   7.319  0.00  0.00    -0.360 N 
ATOM     38  H   UNL     1      -0.085   5.694   8.359  0.00  0.00    +0.165 HD
ENDBRANCH  28  35
ENDBRANCH   1  28
TORSDOF 8
