REMARK  Name = ZINC63362214
REMARK  8 active torsions:
REMARK  status: ('A' for Active; 'I' for Inactive)
REMARK    1  A    between atoms: C_1  and  C_2
REMARK    2  A    between atoms: C_2  and  C_3
REMARK    3  A    between atoms: C_8  and  N_9
REMARK    4  A    between atoms: C_10  and  C_12
REMARK    5  A    between atoms: C_15  and  N_18
REMARK    6  A    between atoms: C_21  and  C_39
REMARK    7  A    between atoms: C_27  and  O_32
REMARK    8  A    between atoms: O_32  and  C_33
REMARK                            x       y       z     vdW  Elec       q    Type
REMARK                         _______ _______ _______ _____ _____    ______ ____
ROOT
ATOM      1  N   UNL     1      -7.564   0.290   3.834  0.00  0.00    -0.192 N 
ATOM      2  C   UNL     1      -8.310   0.181   4.953  0.00  0.00    +0.253 C 
ATOM      3  O   UNL     1      -7.931  -0.142   6.058  0.00  0.00    -0.272 OA
ATOM      4  C   UNL     1      -9.718   0.549   4.541  0.00  0.00    +0.137 C 
ATOM      5  C   UNL     1     -10.678  -0.609   4.811  0.00  0.00    +0.139 C 
ATOM      6  C   UNL     1     -11.116  -1.159   3.462  0.00  0.00    -0.034 C 
ATOM      7  C   UNL     1     -10.813  -2.455   3.473  0.00  0.00    +0.003 A 
ATOM      8  C   UNL     1     -11.048  -3.524   2.491  0.00  0.00    +0.055 A 
ATOM      9  C   UNL     1     -10.592  -4.764   2.818  0.00  0.00    +0.121 A 
ATOM     10  C   UNL     1      -9.927  -5.064   4.016  0.00  0.00    +0.047 A 
ATOM     11  C   UNL     1      -9.663  -4.157   4.991  0.00  0.00    +0.029 A 
ATOM     12  C   UNL     1     -10.112  -2.778   4.753  0.00  0.00    +0.043 A 
ATOM     13  N   UNL     1     -10.017  -1.711   5.514  0.00  0.00    -0.375 N 
ATOM     14  C   UNL     1     -11.699  -0.308   2.361  0.00  0.00    +0.052 C 
ATOM     15  C   UNL     1     -10.742   0.883   2.158  0.00  0.00    +0.115 C 
ATOM     16  N   UNL     1      -9.612   0.714   3.076  0.00  0.00    -0.268 N 
ATOM     17  C   UNL     1      -8.308   0.635   2.775  0.00  0.00    +0.316 C 
ATOM     18  O   UNL     1      -7.854   0.849   1.668  0.00  0.00    -0.252 OA
ATOM     19  C   UNL     1     -10.177   1.843   5.217  0.00  0.00    +0.044 C 
ATOM     20  H   UNL     1      -9.586  -1.654   6.381  0.00  0.00    +0.160 HD
ENDROOT
BRANCH   1  24
ATOM     21  C   UNL     1      -3.447  -0.351   3.693  0.00  0.00    +0.037 A 
ATOM     22  C   UNL     1      -4.120   0.127   2.566  0.00  0.00    +0.015 A 
ATOM     23  C   UNL     1      -5.480   0.337   2.616  0.00  0.00    +0.025 A 
ATOM     24  C   UNL     1      -6.183   0.075   3.787  0.00  0.00    +0.045 A 
ATOM     25  C   UNL     1      -5.516  -0.400   4.911  0.00  0.00    +0.025 A 
ATOM     26  C   UNL     1      -4.157  -0.618   4.867  0.00  0.00    +0.015 A 
BRANCH  21  28
ATOM     27  N   UNL     1      -1.305  -0.320   2.511  0.00  0.00    -0.281 N 
ATOM     28  C   UNL     1      -1.989  -0.578   3.644  0.00  0.00    +0.248 C 
ATOM     29  O   UNL     1      -1.405  -0.998   4.624  0.00  0.00    -0.270 OA
ATOM     30  H   UNL     1      -1.758   0.075   1.750  0.00  0.00    +0.155 HD
BRANCH  27  36
ATOM     31  C   UNL     1       0.607  -1.059   1.236  0.00  0.00    -0.026 A 
ATOM     32  C   UNL     1       1.955  -1.350   1.161  0.00  0.00    +0.005 A 
ATOM     33  C   UNL     1       2.757  -1.212   2.279  0.00  0.00    +0.000 A 
ATOM     34  C   UNL     1       2.212  -0.781   3.475  0.00  0.00    +0.002 A 
ATOM     35  C   UNL     1       0.865  -0.489   3.557  0.00  0.00    +0.023 A 
ATOM     36  C   UNL     1       0.058  -0.621   2.434  0.00  0.00    +0.037 A 
BRANCH  31  38
ATOM     37  C   UNL     1      -0.382   0.137  -0.698  0.00  0.00    +0.009 C 
ATOM     38  C   UNL     1      -0.266  -1.211   0.017  0.00  0.00    +0.033 C 
ENDBRANCH  31  38
ENDBRANCH  27  36
ENDBRANCH  21  28
ENDBRANCH   1  24
BRANCH   9  39
ATOM     39  O   UNL     1     -10.794  -5.774   1.931  0.00  0.00    -0.495 OA
ATOM     40  C   UNL     1     -10.307  -7.066   2.297  0.00  0.00    +0.277 C 
ENDBRANCH   9  39
TORSDOF 5
