REMARK  Name = ZINC43604392
REMARK  11 active torsions:
REMARK  status: ('A' for Active; 'I' for Inactive)
REMARK    1  A    between atoms: C_1  and  C_2
REMARK    2  A    between atoms: C_19  and  C_21
REMARK    3  A    between atoms: C_21  and  N_22
REMARK    4  A    between atoms: N_22  and  C_23
REMARK    5  A    between atoms: C_23  and  C_24
REMARK    6  A    between atoms: C_24  and  C_25
REMARK    7  A    between atoms: C_25  and  C_33
REMARK    8  A    between atoms: C_29  and  C_31
REMARK    9  A    between atoms: C_29  and  C_32
REMARK   10  A    between atoms: C_36  and  O_39
REMARK   11  A    between atoms: O_39  and  C_40
REMARK                            x       y       z     vdW  Elec       q    Type
REMARK                         _______ _______ _______ _____ _____    ______ ____
ROOT
ATOM      1  N   UNL     1      -3.411  -2.700   4.836  0.00  0.00    +0.380 N 
ATOM      2  H   UNL     1      -4.034  -3.355   4.387  0.00  0.00    -0.086 HD
ATOM      3  H   UNL     1      -2.534  -2.674   4.337  0.00  0.00    -0.086 HD
ENDROOT
BRANCH   1   4
ATOM      4  C   UNL     1      -4.019  -1.363   4.829  0.00  0.00    -0.068 C 
BRANCH   4  20
ATOM      5  C   UNL     1      -4.910   2.817   0.843  0.00  0.00    +0.012 C 
ATOM      6  C   UNL     1      -4.207   1.473   0.638  0.00  0.00    -0.022 C 
ATOM      7  C   UNL     1      -3.607   1.418  -0.766  0.00  0.00    +0.007 C 
ATOM      8  C   UNL     1      -2.666   2.607  -0.972  0.00  0.00    +0.005 C 
ATOM      9  C   UNL     1      -1.494   2.510   0.009  0.00  0.00    +0.030 C 
ATOM     10  C   UNL     1      -2.045   2.381   1.413  0.00  0.00    -0.073 C 
ATOM     11  C   UNL     1      -1.632   3.170   2.374  0.00  0.00    +0.008 C 
ATOM     12  C   UNL     1      -3.084   1.316   1.675  0.00  0.00    +0.021 C 
ATOM     13  C   UNL     1      -3.697   1.530   3.058  0.00  0.00    +0.016 C 
ATOM     14  C   UNL     1      -4.788   0.526   3.338  0.00  0.00    +0.042 C 
ATOM     15  C   UNL     1      -5.845   0.422   2.222  0.00  0.00    +0.181 C 
ATOM     16  C   UNL     1      -5.204   0.337   0.845  0.00  0.00    +0.052 C 
ATOM     17  O   UNL     1      -6.417  -0.888   2.494  0.00  0.00    -0.461 OA
ATOM     18  C   UNL     1      -5.397  -1.726   2.780  0.00  0.00    +0.309 C 
ATOM     19  O   UNL     1      -5.387  -2.917   2.579  0.00  0.00    -0.251 OA
ATOM     20  C   UNL     1      -4.266  -0.923   3.384  0.00  0.00    +0.087 C 
ENDBRANCH   4  20
ENDBRANCH   1   4
BRANCH   1  21
ATOM     21  C   UNL     1      -3.173  -3.123   6.223  0.00  0.00    -0.082 C 
BRANCH  21  22
ATOM     22  C   UNL     1      -2.540  -4.516   6.230  0.00  0.00    -0.007 C 
BRANCH  22  23
ATOM     23  C   UNL     1      -2.427  -5.017   7.671  0.00  0.00    -0.001 C 
ATOM     24  C   UNL     1      -1.877  -6.446   7.675  0.00  0.00    +0.039 C 
ATOM     25  C   UNL     1      -2.863  -7.367   6.952  0.00  0.00    +0.161 C 
ATOM     26  O   UNL     1      -4.139  -7.292   7.592  0.00  0.00    -0.374 OA
ATOM     27  C   UNL     1      -4.724  -5.989   7.577  0.00  0.00    +0.065 C 
ATOM     28  C   UNL     1      -3.812  -5.013   8.325  0.00  0.00    +0.046 C 
ATOM     29  C   UNL     1      -4.893  -5.522   6.130  0.00  0.00    +0.041 C 
ATOM     30  C   UNL     1      -6.092  -6.036   8.261  0.00  0.00    +0.041 C 
BRANCH  23  31
ATOM     31  C   UNL     1      -1.501  -4.116   8.447  0.00  0.00    -0.041 A 
ATOM     32  C   UNL     1      -1.991  -3.363   9.498  0.00  0.00    +0.008 A 
ATOM     33  C   UNL     1      -1.144  -2.536  10.211  0.00  0.00    +0.046 A 
ATOM     34  C   UNL     1       0.199  -2.461   9.871  0.00  0.00    +0.120 A 
ATOM     35  C   UNL     1       0.688  -3.218   8.816  0.00  0.00    +0.046 A 
ATOM     36  C   UNL     1      -0.162  -4.047   8.110  0.00  0.00    +0.008 A 
BRANCH  34  37
ATOM     37  O   UNL     1       1.034  -1.648  10.569  0.00  0.00    -0.495 OA
ATOM     38  C   UNL     1       2.404  -1.622  10.164  0.00  0.00    +0.277 C 
ENDBRANCH  34  37
ENDBRANCH  23  31
ENDBRANCH  22  23
ENDBRANCH  21  22
ENDBRANCH   1  21
TORSDOF 7
