REMARK  Name = ZINC64438357
REMARK  5 active torsions:
REMARK  status: ('A' for Active; 'I' for Inactive)
REMARK    1  A    between atoms: C_1  and  C_2
REMARK    2  A    between atoms: C_2  and  C_3
REMARK    3  A    between atoms: C_2  and  C_4
REMARK    4  A    between atoms: C_7  and  C_10
REMARK    5  A    between atoms: C_12  and  C_16
REMARK                            x       y       z     vdW  Elec       q    Type
REMARK                         _______ _______ _______ _____ _____    ______ ____
ROOT
ATOM      1  C   UNL     1       2.787  -1.911   4.668  0.00  0.00    +0.091 C 
ATOM      2  C   UNL     1       2.250  -2.710   5.611  0.00  0.00    +0.039 C 
ATOM      3  C   UNL     1       3.382  -2.913   6.603  0.00  0.00    +0.217 C 
ATOM      4  N   UNL     1       4.484  -2.130   6.020  0.00  0.00    -0.172 NA
ATOM      5  N   UNL     1       4.081  -1.624   4.971  0.00  0.00    -0.153 NA
ENDROOT
BRANCH   3   6
ATOM      6  C   UNL     1       3.752  -4.371   6.697  0.00  0.00    +0.146 C 
ATOM      7  N   UNL     1       4.578  -4.958   5.899  0.00  0.00    -0.164 NA
ATOM      8  N   UNL     1       4.742  -6.289   6.248  0.00  0.00    -0.187 N 
ATOM      9  C   UNL     1       5.665  -7.217   5.868  0.00  0.00    +0.209 C 
ATOM     10  N   UNL     1       6.096  -8.034   6.803  0.00  0.00    -0.238 NA
ATOM     11  C   UNL     1       5.665  -7.920   8.099  0.00  0.00    +0.072 A 
ATOM     12  C   UNL     1       6.403  -8.508   9.130  0.00  0.00    +0.028 A 
ATOM     13  C   UNL     1       5.970  -8.402  10.434  0.00  0.00    +0.002 A 
ATOM     14  C   UNL     1       4.806  -7.716  10.733  0.00  0.00    +0.001 A 
ATOM     15  C   UNL     1       4.069  -7.126   9.720  0.00  0.00    +0.009 A 
ATOM     16  C   UNL     1       4.494  -7.222   8.416  0.00  0.00    +0.018 A 
ATOM     17  C   UNL     1       3.726  -6.576   7.291  0.00  0.00    +0.216 C 
ATOM     18  N   UNL     1       3.249  -5.237   7.654  0.00  0.00    -0.306 N 
ATOM     19  H   UNL     1       2.692  -5.004   8.412  0.00  0.00    +0.149 HD
ENDBRANCH   3   6
BRANCH   1  23
ATOM     20  C   UNL     1       0.731  -0.503   1.223  0.00  0.00    -0.045 A 
ATOM     21  C   UNL     1       2.051  -0.146   1.431  0.00  0.00    +0.004 A 
ATOM     22  C   UNL     1       2.723  -0.600   2.548  0.00  0.00    +0.010 A 
ATOM     23  C   UNL     1       2.070  -1.420   3.466  0.00  0.00    +0.002 A 
ATOM     24  C   UNL     1       0.740  -1.776   3.251  0.00  0.00    +0.010 A 
ATOM     25  C   UNL     1       0.076  -1.312   2.134  0.00  0.00    +0.004 A 
BRANCH  20  27
ATOM     26  C   UNL     1      -0.019   1.526   0.010  0.00  0.00    +0.012 C 
ATOM     27  C   UNL     1       0.002  -0.004   0.002  0.00  0.00    +0.013 C 
ATOM     28  C   UNL     1       0.718  -0.497  -1.257  0.00  0.00    +0.012 C 
ENDBRANCH  20  27
ENDBRANCH   1  23
TORSDOF 3
