REMARK  Name = ZINC33378559
REMARK  6 active torsions:
REMARK  status: ('A' for Active; 'I' for Inactive)
REMARK    1  A    between atoms: C_6  and  C_7
REMARK    2  A    between atoms: C_10  and  C_12
REMARK    3  A    between atoms: N_13  and  N_14
REMARK    4  A    between atoms: C_19  and  C_22
REMARK    5  A    between atoms: C_22  and  C_23
REMARK    6  A    between atoms: N_25  and  C_26
REMARK                            x       y       z     vdW  Elec       q    Type
REMARK                         _______ _______ _______ _____ _____    ______ ____
ROOT
ATOM      1  N   UNL     1      -6.636   0.296   0.040  0.00  0.00    -0.127 NA
ATOM      2  C   UNL     1      -7.149   1.509   0.050  0.00  0.00    +0.183 C 
ATOM      3  N   UNL     1      -6.481   2.716   0.049  0.00  0.00    -0.263 N 
ATOM      4  C   UNL     1      -7.114   3.877   0.059  0.00  0.00    +0.233 C 
ATOM      5  O   UNL     1      -6.520   4.934   0.058  0.00  0.00    -0.274 OA
ATOM      6  C   UNL     1      -8.632   3.803   0.074  0.00  0.00    +0.149 C 
ATOM      7  S   UNL     1      -8.873   1.978   0.060  0.00  0.00    -0.075 S 
ATOM      8  H   UNL     1      -5.511   2.713   0.040  0.00  0.00    +0.157 HD
ENDROOT
BRANCH   1  10
ATOM      9  C   UNL     1      -4.846  -1.069   0.023  0.00  0.00    +0.181 C 
ATOM     10  N   UNL     1      -5.356   0.137   0.033  0.00  0.00    -0.152 NA
BRANCH   9  14
ATOM     11  C   UNL     1      -1.286  -0.800   0.008  0.00  0.00    +0.136 A 
ATOM     12  C   UNL     1      -1.404  -2.159   0.000  0.00  0.00    +0.050 A 
ATOM     13  C   UNL     1      -2.773  -2.453   0.005  0.00  0.00    +0.051 A 
ATOM     14  C   UNL     1      -3.440  -1.244   0.016  0.00  0.00    +0.148 A 
ATOM     15  O   UNL     1      -2.519  -0.258   0.023  0.00  0.00    -0.454 OA
BRANCH  11  21
ATOM     16  C   UNL     1      -0.028   1.349   0.022  0.00  0.00    +0.013 A 
ATOM     17  C   UNL     1       1.162   2.046   0.021  0.00  0.00    +0.021 A 
ATOM     18  C   UNL     1       2.367   1.365   0.005  0.00  0.00    +0.041 A 
ATOM     19  C   UNL     1       2.386  -0.020  -0.010  0.00  0.00    +0.021 A 
ATOM     20  C   UNL     1       1.204  -0.729  -0.009  0.00  0.00    +0.013 A 
ATOM     21  C   UNL     1      -0.016  -0.048   0.007  0.00  0.00    +0.017 A 
ATOM     22 CL   UNL     1       3.861   2.249   0.004  0.00  0.00    -0.084 Cl
ENDBRANCH  11  21
ENDBRANCH   9  14
ENDBRANCH   1  10
BRANCH   6  23
ATOM     23  C   UNL     1      -9.206   4.436   1.343  0.00  0.00    +0.120 C 
BRANCH  23  24
ATOM     24  C   UNL     1     -10.711   4.452   1.260  0.00  0.00    +0.219 C 
ATOM     25  O   UNL     1     -11.269   4.002   0.282  0.00  0.00    -0.275 OA
ATOM     26  N   UNL     1     -11.436   4.966   2.273  0.00  0.00    -0.285 N 
ATOM     27  H   UNL     1     -10.994   5.264   3.084  0.00  0.00    +0.155 HD
BRANCH  26  28
ATOM     28  C   UNL     1     -12.827   5.070   2.156  0.00  0.00    +0.033 A 
ATOM     29  C   UNL     1     -13.494   6.148   2.723  0.00  0.00    +0.025 A 
ATOM     30  C   UNL     1     -14.867   6.248   2.606  0.00  0.00    +0.022 A 
ATOM     31  C   UNL     1     -15.577   5.276   1.924  0.00  0.00    +0.041 A 
ATOM     32  C   UNL     1     -14.914   4.201   1.358  0.00  0.00    +0.022 A 
ATOM     33  C   UNL     1     -13.541   4.099   1.467  0.00  0.00    +0.025 A 
ATOM     34 CL   UNL     1     -17.302   5.404   1.779  0.00  0.00    -0.084 Cl
ENDBRANCH  26  28
ENDBRANCH  23  24
ENDBRANCH   6  23
TORSDOF 6
