REMARK  Name = ZINC39631016
REMARK  11 active torsions:
REMARK  status: ('A' for Active; 'I' for Inactive)
REMARK    1  A    between atoms: C_1  and  C_2
REMARK    2  A    between atoms: C_2  and  C_3
REMARK    3  A    between atoms: C_2  and  C_4
REMARK    4  A    between atoms: C_2  and  C_33
REMARK    5  A    between atoms: C_4  and  N_5
REMARK    6  A    between atoms: C_6  and  C_8
REMARK    7  A    between atoms: C_19  and  C_21
REMARK    8  A    between atoms: C_24  and  C_26
REMARK    9  A    between atoms: C_33  and  N_34
REMARK   10  A    between atoms: N_34  and  C_35
REMARK   11  A    between atoms: N_34  and  C_36
REMARK                            x       y       z     vdW  Elec       q    Type
REMARK                         _______ _______ _______ _____ _____    ______ ____
ROOT
ATOM      1  C   UNL     1      -2.974   0.071   3.658  0.00  0.00    +0.100 C 
ATOM      2  C   UNL     1      -2.910   1.608   3.803  0.00  0.00    +0.121 C 
ATOM      3  N   UNL     1      -4.311   2.060   3.625  0.00  0.00    -0.294 N 
ATOM      4  C   UNL     1      -5.120   1.039   4.333  0.00  0.00    +0.115 C 
ATOM      5  C   UNL     1      -4.425  -0.298   4.010  0.00  0.00    -0.004 C 
ATOM      6  C   UNL     1      -5.103  -0.970   2.820  0.00  0.00    -0.010 C 
ATOM      7  C   UNL     1      -6.526  -1.379   3.212  0.00  0.00    -0.082 C 
ATOM      8  N   UNL     1      -6.474  -2.299   4.355  0.00  0.00    +0.379 N 
ATOM      9  C   UNL     1      -5.905  -1.617   5.523  0.00  0.00    -0.082 C 
ATOM     10  C   UNL     1      -4.457  -1.217   5.228  0.00  0.00    -0.010 C 
ATOM     11  C   UNL     1      -4.749   3.152   2.968  0.00  0.00    +0.282 C 
ATOM     12  O   UNL     1      -5.941   3.389   2.910  0.00  0.00    -0.267 OA
ATOM     13  H   UNL     1      -7.407  -2.615   4.573  0.00  0.00    -0.086 HD
ATOM     14  H   UNL     1      -5.899  -3.094   4.119  0.00  0.00    -0.086 HD
ENDROOT
BRANCH  11  15
ATOM     15  C   UNL     1      -3.791   4.053   2.323  0.00  0.00    +0.190 A 
ATOM     16  C   UNL     1      -4.101   5.201   1.627  0.00  0.00    +0.055 A 
ATOM     17  C   UNL     1      -2.891   5.745   1.186  0.00  0.00    +0.050 A 
ATOM     18  C   UNL     1      -1.896   4.919   1.624  0.00  0.00    +0.136 A 
ATOM     19  O   UNL     1      -2.449   3.906   2.313  0.00  0.00    -0.450 OA
BRANCH  18  20
ATOM     20  C   UNL     1      -0.451   5.110   1.385  0.00  0.00    +0.017 A 
ATOM     21  C   UNL     1      -0.001   6.215   0.660  0.00  0.00    +0.014 A 
ATOM     22  C   UNL     1       1.349   6.389   0.441  0.00  0.00    +0.039 A 
ATOM     23  C   UNL     1       2.259   5.469   0.938  0.00  0.00    +0.123 A 
ATOM     24  C   UNL     1       1.818   4.370   1.658  0.00  0.00    +0.039 A 
ATOM     25  C   UNL     1       0.470   4.189   1.889  0.00  0.00    +0.014 A 
ATOM     26  F   UNL     1       3.581   5.644   0.720  0.00  0.00    -0.205 F 
ENDBRANCH  18  20
ENDBRANCH  11  15
BRANCH   1  28
ATOM     27  N   UNL     1      -2.091  -1.533   1.996  0.00  0.00    -0.315 N 
ATOM     28  C   UNL     1      -2.658  -0.336   2.242  0.00  0.00    +0.218 C 
ATOM     29  O   UNL     1      -2.914   0.414   1.324  0.00  0.00    -0.275 OA
ATOM     30  H   UNL     1      -1.886  -2.133   2.731  0.00  0.00    +0.149 HD
BRANCH  27  31
ATOM     31  C   UNL     1      -1.783  -1.929   0.620  0.00  0.00    +0.108 C 
BRANCH  31  33
ATOM     32  C   UNL     1       0.140  -3.296   1.442  0.00  0.00    +0.010 C 
ATOM     33  C   UNL     1      -1.149  -3.322   0.619  0.00  0.00    -0.034 C 
ATOM     34  C   UNL     1      -2.126  -4.327   1.232  0.00  0.00    +0.010 C 
BRANCH  33  35
ATOM     35  C   UNL     1      -0.828  -3.735  -0.819  0.00  0.00    -0.072 C 
BRANCH  35  36
ATOM     36  N   UNL     1      -0.237  -5.080  -0.821  0.00  0.00    +0.376 N 
ATOM     37  C   UNL     1      -1.308  -6.085  -0.848  0.00  0.00    -0.097 C 
ATOM     38  C   UNL     1       0.613  -5.239  -2.009  0.00  0.00    -0.097 C 
ATOM     39  H   UNL     1       0.320  -5.204   0.011  0.00  0.00    -0.083 HD
ENDBRANCH  35  36
ENDBRANCH  33  35
ENDBRANCH  31  33
ENDBRANCH  27  31
ENDBRANCH   1  28
TORSDOF 7
