REMARK  Name = ZINC43218791
REMARK  7 active torsions:
REMARK  status: ('A' for Active; 'I' for Inactive)
REMARK    1  A    between atoms: C_1  and  C_2
REMARK    2  A    between atoms: C_2  and  C_3
REMARK    3  A    between atoms: C_3  and  C_4
REMARK    4  A    between atoms: C_4  and  N_5
REMARK    5  A    between atoms: C_10  and  C_27
REMARK    6  A    between atoms: C_13  and  C_18
REMARK    7  A    between atoms: C_13  and  C_24
REMARK                            x       y       z     vdW  Elec       q    Type
REMARK                         _______ _______ _______ _____ _____    ______ ____
ROOT
ATOM      1  N   UNL     1       1.767  -2.565  -2.252  0.00  0.00    -0.242 N 
ATOM      2  C   UNL     1       0.996  -2.770  -3.369  0.00  0.00    +0.224 C 
ATOM      3  O   UNL     1      -0.154  -2.432  -3.547  0.00  0.00    -0.275 OA
ATOM      4  C   UNL     1       1.858  -3.475  -4.286  0.00  0.00    +0.077 C 
ATOM      5  C   UNL     1       1.995  -3.765  -5.723  0.00  0.00    -0.025 C 
ATOM      6  N   UNL     1       3.365  -4.382  -5.791  0.00  0.00    +0.398 N 
ATOM      7  C   UNL     1       4.135  -3.916  -4.599  0.00  0.00    +0.074 C 
ATOM      8  C   UNL     1       3.261  -2.821  -3.968  0.00  0.00    +0.090 C 
ATOM      9  C   UNL     1       3.094  -2.802  -2.474  0.00  0.00    +0.225 C 
ATOM     10  O   UNL     1       3.957  -2.966  -1.639  0.00  0.00    -0.275 OA
ATOM     11  H   UNL     1       3.288  -5.388  -5.777  0.00  0.00    -0.083 HD
ATOM     12  H   UNL     1       3.831  -4.086  -6.636  0.00  0.00    -0.083 HD
ENDROOT
BRANCH   5  13
ATOM     13  C   UNL     1       0.942  -4.742  -6.178  0.00  0.00    -0.039 A 
ATOM     14  C   UNL     1       0.224  -5.468  -5.246  0.00  0.00    +0.023 A 
ATOM     15  C   UNL     1      -0.743  -6.366  -5.662  0.00  0.00    +0.043 A 
ATOM     16  C   UNL     1      -0.993  -6.536  -7.012  0.00  0.00    +0.041 A 
ATOM     17  C   UNL     1      -0.276  -5.810  -7.945  0.00  0.00    +0.061 A 
ATOM     18  C   UNL     1       0.689  -4.908  -7.527  0.00  0.00    +0.061 A 
ATOM     19 CL   UNL     1       1.585  -3.991  -8.698  0.00  0.00    -0.082 Cl
ATOM     20 CL   UNL     1      -0.588  -6.024  -9.639  0.00  0.00    -0.082 Cl
ATOM     21 CL   UNL     1      -1.642  -7.278  -4.491  0.00  0.00    -0.083 Cl
ENDBRANCH   5  13
BRANCH   7  22
ATOM     22  C   UNL     1       4.355  -5.059  -3.642  0.00  0.00    -0.047 A 
ATOM     23  C   UNL     1       5.386  -5.002  -2.722  0.00  0.00    +0.003 A 
ATOM     24  C   UNL     1       5.587  -6.050  -1.844  0.00  0.00    +0.000 A 
ATOM     25  C   UNL     1       4.758  -7.155  -1.885  0.00  0.00    +0.000 A 
ATOM     26  C   UNL     1       3.727  -7.212  -2.803  0.00  0.00    +0.000 A 
ATOM     27  C   UNL     1       3.522  -6.162  -3.679  0.00  0.00    +0.003 A 
ENDBRANCH   7  22
BRANCH   7  28
ATOM     28  C   UNL     1       5.456  -3.331  -5.027  0.00  0.00    +0.350 C 
ATOM     29  O   UNL     1       5.763  -3.318  -6.207  0.00  0.00    -0.248 OA
ATOM     30  O   UNL     1       6.218  -2.871  -4.193  0.00  0.00    -0.248 OA
ENDBRANCH   7  28
BRANCH   1  31
ATOM     31  C   UNL     1       1.225  -2.132  -0.961  0.00  0.00    +0.116 C 
BRANCH  31  32
ATOM     32  C   UNL     1       1.218  -0.603  -0.898  0.00  0.00    +0.019 C 
BRANCH  32  34
ATOM     33  C   UNL     1       0.646   1.378   0.513  0.00  0.00    +0.004 C 
ATOM     34  C   UNL     1       0.652  -0.151   0.450  0.00  0.00    -0.002 C 
ENDBRANCH  32  34
ENDBRANCH  31  32
ENDBRANCH   1  31
TORSDOF 6
