REMARK  Name = ZINC39210392
REMARK  5 active torsions:
REMARK  status: ('A' for Active; 'I' for Inactive)
REMARK    1  A    between atoms: C_6  and  C_7
REMARK    2  A    between atoms: C_11  and  C_13
REMARK    3  A    between atoms: C_17  and  C_27
REMARK    4  A    between atoms: C_22  and  N_26
REMARK    5  A    between atoms: C_23  and  C_24
REMARK                            x       y       z     vdW  Elec       q    Type
REMARK                         _______ _______ _______ _____ _____    ______ ____
ROOT
ATOM      1  C   UNL     1      -0.710  -4.817  -0.218  0.00  0.00    +0.067 C 
ATOM      2  C   UNL     1      -1.283  -5.613   0.961  0.00  0.00    +0.137 C 
ATOM      3  C   UNL     1      -2.462  -4.893   1.573  0.00  0.00    +0.083 C 
ATOM      4  N   UNL     1      -2.107  -4.587   2.792  0.00  0.00    -0.150 NA
ATOM      5  N   UNL     1      -0.799  -4.982   3.076  0.00  0.00    -0.115 NA
ATOM      6  C   UNL     1      -0.225  -5.550   2.059  0.00  0.00    +0.227 C 
ATOM      7  O   UNL     1       1.040  -5.969   1.838  0.00  0.00    -0.425 OA
ATOM      8  C   UNL     1       1.519  -5.671   0.603  0.00  0.00    +0.200 C 
ATOM      9  C   UNL     1       0.750  -5.147  -0.375  0.00  0.00    +0.091 C 
ENDROOT
BRANCH   3  10
ATOM     10  C   UNL     1      -3.751  -4.597   0.927  0.00  0.00    +0.000 A 
ATOM     11  C   UNL     1      -4.295  -5.494   0.001  0.00  0.00    +0.011 A 
ATOM     12  C   UNL     1      -5.502  -5.211  -0.601  0.00  0.00    +0.022 A 
ATOM     13  C   UNL     1      -6.178  -4.042  -0.291  0.00  0.00    +0.059 A 
ATOM     14  C   UNL     1      -5.646  -3.149   0.626  0.00  0.00    +0.060 A 
ATOM     15  C   UNL     1      -4.440  -3.422   1.240  0.00  0.00    +0.031 A 
ATOM     16 CL   UNL     1      -6.500  -1.687   1.007  0.00  0.00    -0.082 Cl
ATOM     17 CL   UNL     1      -7.697  -3.694  -1.054  0.00  0.00    -0.082 Cl
ENDBRANCH   3  10
BRANCH   1  22
ATOM     18  C   UNL     1      -0.883  -6.454  -2.107  0.00  0.00    +0.080 C 
ATOM     19  N   UNL     1      -0.444  -6.112  -3.287  0.00  0.00    -0.153 NA
ATOM     20  N   UNL     1      -0.649  -4.762  -3.553  0.00  0.00    -0.161 NA
ATOM     21  C   UNL     1      -1.227  -4.146  -2.574  0.00  0.00    +0.118 C 
ATOM     22  C   UNL     1      -1.459  -5.190  -1.499  0.00  0.00    +0.092 C 
BRANCH  18  28
ATOM     23  C   UNL     1       0.244  -8.642  -1.752  0.00  0.00    +0.012 A 
ATOM     24  C   UNL     1       0.284  -9.893  -1.175  0.00  0.00    +0.039 A 
ATOM     25  C   UNL     1      -0.743 -10.307  -0.341  0.00  0.00    +0.123 A 
ATOM     26  C   UNL     1      -1.816  -9.468  -0.081  0.00  0.00    +0.039 A 
ATOM     27  C   UNL     1      -1.867  -8.215  -0.652  0.00  0.00    +0.012 A 
ATOM     28  C   UNL     1      -0.835  -7.790  -1.494  0.00  0.00    -0.001 A 
ATOM     29  F   UNL     1      -0.698 -11.535   0.222  0.00  0.00    -0.205 F 
ENDBRANCH  18  28
ENDBRANCH   1  22
BRANCH   8  30
ATOM     30  N   UNL     1       2.845  -5.911   0.337  0.00  0.00    -0.328 N 
ATOM     31  H   UNL     1       3.417  -6.285   1.025  0.00  0.00    +0.145 HD
ATOM     32  H   UNL     1       3.209  -5.706  -0.538  0.00  0.00    +0.145 HD
ENDBRANCH   8  30
BRANCH   9  33
ATOM     33  C   UNL     1       1.361  -4.891  -1.644  0.00  0.00    +0.100 C 
ATOM     34  N   UNL     1       1.845  -4.688  -2.651  0.00  0.00    -0.191 NA
ENDBRANCH   9  33
TORSDOF 5
