REMARK  Name = ZINC06462602
REMARK  6 active torsions:
REMARK  status: ('A' for Active; 'I' for Inactive)
REMARK    1  A    between atoms: C_1  and  C_2
REMARK    2  A    between atoms: C_2  and  C_3
REMARK    3  A    between atoms: C_3  and  N_4
REMARK    4  A    between atoms: N_9  and  C_10
REMARK    5  A    between atoms: C_10  and  N_12
REMARK    6  A    between atoms: C_13  and  C_15
REMARK                            x       y       z     vdW  Elec       q    Type
REMARK                         _______ _______ _______ _____ _____    ______ ____
ROOT
ATOM      1  C   UNL     1      -3.252  -0.787   2.342  0.00  0.00    +0.143 C 
ATOM      2  S   UNL     1      -3.799   0.086   3.709  0.00  0.00    -0.018 S 
ENDROOT
BRANCH   1   8
ATOM      3  N   UNL     1      -0.698   1.558   1.213  0.00  0.00    -0.213 N 
ATOM      4  C   UNL     1      -1.692   0.937   1.890  0.00  0.00    +0.240 A 
ATOM      5  N   UNL     1      -2.011   1.710   2.904  0.00  0.00    -0.092 NA
ATOM      6  N   UNL     1      -1.287   2.770   2.908  0.00  0.00    -0.021 NA
ATOM      7  N   UNL     1      -0.461   2.752   1.918  0.00  0.00    -0.043 NA
ATOM      8  N   UNL     1      -2.265  -0.286   1.573  0.00  0.00    -0.265 N 
ATOM      9  H   UNL     1      -1.955  -0.781   0.799  0.00  0.00    +0.157 HD
BRANCH   3  10
ATOM     10  C   UNL     1      -0.013   1.086   0.008  0.00  0.00    +0.148 C 
BRANCH  10  12
ATOM     11  C   UNL     1      -0.037   1.099  -2.490  0.00  0.00    +0.005 C 
ATOM     12  C   UNL     1      -0.753   1.593  -1.232  0.00  0.00    +0.020 C 
ENDBRANCH  10  12
ENDBRANCH   3  10
ENDBRANCH   1   8
BRANCH   1  13
ATOM     13  N   UNL     1      -3.809  -1.975   2.034  0.00  0.00    -0.263 N 
ATOM     14  C   UNL     1      -4.796  -2.476   2.803  0.00  0.00    +0.251 C 
ATOM     15  O   UNL     1      -5.185  -1.856   3.773  0.00  0.00    -0.270 OA
ATOM     16  H   UNL     1      -3.499  -2.470   1.260  0.00  0.00    +0.157 HD
BRANCH  14  17
ATOM     17  C   UNL     1      -5.406  -3.778   2.466  0.00  0.00    +0.057 A 
ATOM     18  C   UNL     1      -4.966  -4.490   1.348  0.00  0.00    +0.034 A 
ATOM     19  C   UNL     1      -5.538  -5.709   1.042  0.00  0.00    +0.042 A 
ATOM     20  C   UNL     1      -6.553  -6.220   1.834  0.00  0.00    +0.021 A 
ATOM     21  C   UNL     1      -6.997  -5.519   2.939  0.00  0.00    +0.022 A 
ATOM     22  C   UNL     1      -6.430  -4.300   3.260  0.00  0.00    +0.053 A 
ATOM     23 CL   UNL     1      -6.989  -3.420   4.649  0.00  0.00    -0.083 Cl
ATOM     24 CL   UNL     1      -4.988  -6.599  -0.344  0.00  0.00    -0.084 Cl
ENDBRANCH  14  17
ENDBRANCH   1  13
TORSDOF 5
