REMARK  Name = ZINC20154578
REMARK  6 active torsions:
REMARK  status: ('A' for Active; 'I' for Inactive)
REMARK    1  A    between atoms: C_1  and  C_2
REMARK    2  A    between atoms: C_9  and  C_11
REMARK    3  A    between atoms: C_13  and  N_18
REMARK    4  A    between atoms: C_16  and  O_17
REMARK    5  A    between atoms: N_18  and  C_19
REMARK    6  A    between atoms: C_19  and  N_21
REMARK                            x       y       z     vdW  Elec       q    Type
REMARK                         _______ _______ _______ _____ _____    ______ ____
ROOT
ATOM      1  C   UNL     1      -4.747   1.381  -0.158  0.00  0.00    +0.080 A 
ATOM      2  C   UNL     1      -3.598   2.172  -0.105  0.00  0.00    +0.040 A 
ATOM      3  C   UNL     1      -2.352   1.573  -0.033  0.00  0.00    +0.034 A 
ATOM      4  C   UNL     1      -2.243   0.187  -0.020  0.00  0.00    +0.027 A 
ATOM      5  C   UNL     1      -3.376  -0.601  -0.067  0.00  0.00    +0.048 A 
ATOM      6  C   UNL     1      -4.630  -0.015  -0.139  0.00  0.00    +0.129 A 
ENDROOT
BRANCH   1  15
ATOM      7  C   UNL     1     -11.899   3.158  -0.552  0.00  0.00    +0.044 C 
ATOM      8  C   UNL     1     -10.399   3.282  -0.474  0.00  0.00    -0.048 A 
ATOM      9  C   UNL     1      -9.811   4.539  -0.456  0.00  0.00    +0.007 A 
ATOM     10  C   UNL     1      -8.440   4.669  -0.384  0.00  0.00    +0.049 A 
ATOM     11  C   UNL     1      -7.640   3.538  -0.331  0.00  0.00    +0.156 A 
ATOM     12  C   UNL     1      -8.230   2.264  -0.350  0.00  0.00    +0.110 A 
ATOM     13  C   UNL     1      -9.620   2.148  -0.422  0.00  0.00    +0.035 A 
ATOM     14  N   UNL     1      -7.215   1.363  -0.294  0.00  0.00    -0.209 NA
ATOM     15  C   UNL     1      -6.079   2.012  -0.234  0.00  0.00    +0.232 A 
ATOM     16  O   UNL     1      -6.304   3.340  -0.259  0.00  0.00    -0.435 OA
ENDBRANCH   1  15
BRANCH   6  17
ATOM     17  O   UNL     1      -5.742  -0.792  -0.191  0.00  0.00    -0.506 OA
ATOM     18  H   UNL     1      -5.649  -1.887  -0.176  0.00  0.00    +0.292 HD
ENDBRANCH   6  17
BRANCH   3  19
ATOM     19  N   UNL     1      -1.197   2.366   0.021  0.00  0.00    -0.297 N 
ATOM     20  H   UNL     1      -1.112   3.257  -0.619  0.00  0.00    +0.154 HD
BRANCH  19  21
ATOM     21  C   UNL     1      -0.192   2.036   0.856  0.00  0.00    +0.132 C 
ATOM     22  S   UNL     1      -0.381   0.735   1.951  0.00  0.00    -0.019 S 
BRANCH  21  23
ATOM     23  N   UNL     1       0.964   2.728   0.824  0.00  0.00    -0.340 N 
ATOM     24  H   UNL     1       1.785   2.459   1.506  0.00  0.00    +0.144 HD
ATOM     25  H   UNL     1       1.088   3.561   0.117  0.00  0.00    +0.144 HD
ENDBRANCH  21  23
ENDBRANCH  19  21
ENDBRANCH   3  19
TORSDOF 5
