REMARK  Name = ZINC18057256
REMARK  8 active torsions:
REMARK  status: ('A' for Active; 'I' for Inactive)
REMARK    1  A    between atoms: C_1  and  C_2
REMARK    2  A    between atoms: C_2  and  C_3
REMARK    3  A    between atoms: C_3  and  C_4
REMARK    4  A    between atoms: C_4  and  C_5
REMARK    5  A    between atoms: C_5  and  C_7
REMARK    6  A    between atoms: C_5  and  N_19
REMARK    7  A    between atoms: N_9  and  C_10
REMARK    8  A    between atoms: C_14  and  N_16
REMARK                            x       y       z     vdW  Elec       q    Type
REMARK                         _______ _______ _______ _____ _____    ______ ____
ROOT
ATOM      1  N   UNL     1       2.861  -2.114  -2.473  0.00  0.00    -0.230 N 
ATOM      2  C   UNL     1       3.700  -2.508  -1.506  0.00  0.00    +0.227 C 
ATOM      3  O   UNL     1       3.410  -3.229  -0.575  0.00  0.00    -0.275 OA
ATOM      4  C   UNL     1       5.067  -1.911  -1.760  0.00  0.00    +0.100 C 
ATOM      5  C   UNL     1       4.873  -1.099  -3.053  0.00  0.00    +0.100 C 
ATOM      6  C   UNL     1       3.417  -1.323  -3.399  0.00  0.00    +0.227 C 
ATOM      7  O   UNL     1       2.843  -0.857  -4.360  0.00  0.00    -0.275 OA
ATOM      8  C   UNL     1       5.752  -1.654  -4.194  0.00  0.00    +0.062 C 
ATOM      9  C   UNL     1       5.384  -3.124  -4.311  0.00  0.00    -0.035 A 
ATOM     10  C   UNL     1       4.913  -3.723  -5.445  0.00  0.00    +0.004 A 
ATOM     11  C   UNL     1       4.615  -5.079  -5.412  0.00  0.00    +0.000 A 
ATOM     12  C   UNL     1       4.793  -5.807  -4.251  0.00  0.00    +0.000 A 
ATOM     13  C   UNL     1       5.272  -5.192  -3.101  0.00  0.00    +0.004 A 
ATOM     14  C   UNL     1       5.562  -3.858  -3.140  0.00  0.00    -0.035 A 
ATOM     15  C   UNL     1       6.080  -3.059  -1.955  0.00  0.00    +0.062 C 
ATOM     16  C   UNL     1       7.345  -2.398  -2.480  0.00  0.00    -0.035 A 
ATOM     17  C   UNL     1       7.173  -1.641  -3.653  0.00  0.00    -0.035 A 
ATOM     18  C   UNL     1       8.221  -0.982  -4.229  0.00  0.00    +0.004 A 
ATOM     19  C   UNL     1       9.470  -1.054  -3.627  0.00  0.00    +0.000 A 
ATOM     20  C   UNL     1       9.645  -1.781  -2.464  0.00  0.00    +0.000 A 
ATOM     21  C   UNL     1       8.571  -2.476  -1.883  0.00  0.00    +0.004 A 
ENDROOT
BRANCH   1  22
ATOM     22  C   UNL     1       1.455  -2.521  -2.517  0.00  0.00    +0.170 C 
BRANCH  22  23
ATOM     23  C   UNL     1       1.369  -4.023  -2.596  0.00  0.00    +0.238 C 
ATOM     24  O   UNL     1       2.382  -4.689  -2.614  0.00  0.00    -0.273 OA
ATOM     25  N   UNL     1       0.165  -4.628  -2.647  0.00  0.00    -0.284 N 
ATOM     26  H   UNL     1      -0.646  -4.101  -2.565  0.00  0.00    +0.155 HD
BRANCH  25  27
ATOM     27  C   UNL     1       0.085  -6.014  -2.818  0.00  0.00    +0.036 A 
ATOM     28  C   UNL     1       1.037  -6.843  -2.240  0.00  0.00    +0.023 A 
ATOM     29  C   UNL     1       0.955  -8.211  -2.410  0.00  0.00    +0.004 A 
ATOM     30  C   UNL     1      -0.074  -8.755  -3.156  0.00  0.00    +0.033 A 
ATOM     31  C   UNL     1      -1.024  -7.933  -3.734  0.00  0.00    +0.128 A 
ATOM     32  C   UNL     1      -0.951  -6.564  -3.562  0.00  0.00    +0.056 A 
BRANCH  31  33
ATOM     33  N   UNL     1      -2.123  -8.520  -4.532  0.00  0.00    +0.056 N 
ATOM     34  O   UNL     1      -2.191  -9.718  -4.679  0.00  0.00    -0.126 OA
ATOM     35  O   UNL     1      -2.954  -7.802  -5.037  0.00  0.00    -0.126 OA
ENDBRANCH  31  33
ENDBRANCH  25  27
ENDBRANCH  22  23
BRANCH  22  36
ATOM     36  C   UNL     1       0.744  -2.035  -1.252  0.00  0.00    +0.032 C 
BRANCH  36  37
ATOM     37  C   UNL     1       0.722  -0.505  -1.235  0.00  0.00    +0.002 C 
BRANCH  37  39
ATOM     38  C   UNL     1      -0.010   1.510   0.047  0.00  0.00    +0.004 C 
ATOM     39  C   UNL     1       0.011  -0.020   0.030  0.00  0.00    -0.003 C 
ENDBRANCH  37  39
ENDBRANCH  36  37
ENDBRANCH  22  36
ENDBRANCH   1  22
TORSDOF 7
