REMARK  Name = ZINC53418437
REMARK  3 active torsions:
REMARK  status: ('A' for Active; 'I' for Inactive)
REMARK    1  A    between atoms: C_7  and  S_11
REMARK    2  A    between atoms: S_11  and  C_12
REMARK    3  A    between atoms: C_12  and  C_13
REMARK                            x       y       z     vdW  Elec       q    Type
REMARK                         _______ _______ _______ _____ _____    ______ ____
ROOT
ATOM      1  C   UNL     1       4.254  -3.474   3.168  0.00  0.00    +0.173 C 
ENDROOT
BRANCH   1   2
ATOM      2  C   UNL     1       4.078  -4.540   4.219  0.00  0.00    +0.229 C 
ATOM      3  O   UNL     1       2.979  -4.756   4.686  0.00  0.00    -0.275 OA
ATOM      4  N   UNL     1       5.141  -5.254   4.640  0.00  0.00    -0.264 N 
ATOM      5  C   UNL     1       4.978  -6.237   5.609  0.00  0.00    +0.165 A 
ATOM      6  N   UNL     1       3.878  -6.609   6.216  0.00  0.00    -0.229 NA
ATOM      7  C   UNL     1       3.868  -7.581   7.139  0.00  0.00    +0.054 A 
ATOM      8  C   UNL     1       5.076  -8.138   7.388  0.00  0.00    +0.014 A 
ATOM      9  S   UNL     1       6.144  -7.245   6.284  0.00  0.00    -0.057 S 
ATOM     10  C   UNL     1       4.999  -9.212   8.430  0.00  0.00    +0.045 C 
ATOM     11  C   UNL     1       3.640  -8.982   9.128  0.00  0.00    +0.011 C 
ATOM     12  C   UNL     1       2.832  -8.271   8.024  0.00  0.00    +0.056 C 
ATOM     13  H   UNL     1       6.019  -5.082   4.267  0.00  0.00    +0.157 HD
ENDBRANCH   1   2
BRANCH   1  14
ATOM     14  S   UNL     1       2.652  -2.699   2.818  0.00  0.00    -0.077 S 
BRANCH  14  21
ATOM     15  C   UNL     1      -0.019   1.523   0.010  0.00  0.00    +0.002 C 
ATOM     16  C   UNL     1       1.401   2.081  -0.000  0.00  0.00    +0.008 C 
ATOM     17  C   UNL     1       2.313   1.154  -0.810  0.00  0.00    +0.076 C 
ATOM     18  C   UNL     1       2.868   0.091   0.102  0.00  0.00    +0.134 A 
ATOM     19  N   UNL     1       4.104  -0.303   0.193  0.00  0.00    -0.134 NA
ATOM     20  N   UNL     1       4.202  -1.242   1.067  0.00  0.00    -0.122 NA
ATOM     21  C   UNL     1       3.022  -1.493   1.589  0.00  0.00    +0.192 A 
ATOM     22  N   UNL     1       2.140  -0.643   0.995  0.00  0.00    -0.306 N 
ATOM     23  C   UNL     1       0.707  -0.519   1.260  0.00  0.00    +0.125 C 
ATOM     24  C   UNL     1       0.002  -0.004   0.002  0.00  0.00    +0.022 C 
ENDBRANCH  14  21
ENDBRANCH   1  14
TORSDOF 3
