REMARK  Name = ZINC67542329
REMARK  8 active torsions:
REMARK  status: ('A' for Active; 'I' for Inactive)
REMARK    1  A    between atoms: C_1  and  C_2
REMARK    2  A    between atoms: C_2  and  C_3
REMARK    3  A    between atoms: C_3  and  C_4
REMARK    4  A    between atoms: C_4  and  N_5
REMARK    5  A    between atoms: C_6  and  C_8
REMARK    6  A    between atoms: C_12  and  C_30
REMARK    7  A    between atoms: N_18  and  C_19
REMARK    8  A    between atoms: C_24  and  N_25
REMARK                            x       y       z     vdW  Elec       q    Type
REMARK                         _______ _______ _______ _____ _____    ______ ____
ROOT
ATOM      1  C   UNL     1      -4.622  -4.620   0.032  0.00  0.00    +0.092 C 
ATOM      2  C   UNL     1      -4.431  -6.066   0.494  0.00  0.00    +0.016 C 
ATOM      3  C   UNL     1      -5.773  -6.636   0.959  0.00  0.00    +0.023 C 
ATOM      4  C   UNL     1      -6.291  -5.814   2.143  0.00  0.00    +0.074 C 
ATOM      5  N   UNL     1      -6.340  -4.399   1.751  0.00  0.00    -0.282 N 
ATOM      6  C   UNL     1      -5.127  -3.774   1.205  0.00  0.00    +0.122 C 
ATOM      7  C   UNL     1      -7.476  -3.687   1.888  0.00  0.00    +0.307 C 
ATOM      8  O   UNL     1      -8.441  -4.182   2.438  0.00  0.00    -0.252 OA
ATOM      9  N   UNL     1      -7.542  -2.426   1.417  0.00  0.00    -0.266 N 
ATOM     10  C   UNL     1      -7.693  -6.292   2.526  0.00  0.00    +0.028 C 
ATOM     11  H   UNL     1      -6.796  -2.054   0.920  0.00  0.00    +0.156 HD
ENDROOT
BRANCH   9  12
ATOM     12  C   UNL     1      -8.687  -1.653   1.644  0.00  0.00    +0.079 A 
ATOM     13  C   UNL     1      -9.924  -2.261   1.828  0.00  0.00    +0.028 A 
ATOM     14  C   UNL     1     -11.030  -1.454   2.050  0.00  0.00    +0.022 A 
ATOM     15  C   UNL     1     -10.871  -0.081   2.082  0.00  0.00    +0.113 A 
ATOM     16  N   UNL     1      -9.686   0.470   1.904  0.00  0.00    -0.235 NA
ATOM     17  C   UNL     1      -8.604  -0.261   1.695  0.00  0.00    +0.175 A 
BRANCH  17  18
ATOM     18  N   UNL     1      -7.367   0.367   1.517  0.00  0.00    -0.220 N 
ATOM     19  C   UNL     1      -7.169   1.637   1.078  0.00  0.00    +0.116 A 
ATOM     20  C   UNL     1      -5.834   1.856   1.047  0.00  0.00    +0.041 A 
ATOM     21  C   UNL     1      -5.195   0.690   1.479  0.00  0.00    +0.135 A 
ATOM     22  N   UNL     1      -6.110  -0.200   1.766  0.00  0.00    -0.173 NA
ENDBRANCH  17  18
ENDBRANCH   9  12
BRANCH   1  24
ATOM     23  N   UNL     1      -3.233  -2.804  -0.913  0.00  0.00    -0.315 N 
ATOM     24  C   UNL     1      -3.306  -4.070  -0.456  0.00  0.00    +0.218 C 
ATOM     25  O   UNL     1      -2.313  -4.766  -0.436  0.00  0.00    -0.275 OA
ATOM     26  H   UNL     1      -4.027  -2.248  -0.929  0.00  0.00    +0.149 HD
BRANCH  23  27
ATOM     27  C   UNL     1      -1.954  -2.270  -1.387  0.00  0.00    +0.104 C 
BRANCH  27  28
ATOM     28  C   UNL     1      -2.145  -0.823  -1.848  0.00  0.00    +0.018 C 
BRANCH  28  30
ATOM     29  C   UNL     1      -1.000   1.181  -2.804  0.00  0.00    +0.004 C 
ATOM     30  C   UNL     1      -0.809  -0.265  -2.343  0.00  0.00    -0.002 C 
ENDBRANCH  28  30
ENDBRANCH  27  28
ENDBRANCH  23  27
ENDBRANCH   1  24
TORSDOF 6
