REMARK  Name = ZINC04867385
REMARK  4 active torsions:
REMARK  status: ('A' for Active; 'I' for Inactive)
REMARK    1  A    between atoms: C_4  and  C_7
REMARK    2  A    between atoms: C_10  and  C_20
REMARK    3  A    between atoms: C_13  and  C_15
REMARK    4  A    between atoms: C_25  and  O_26
REMARK                            x       y       z     vdW  Elec       q    Type
REMARK                         _______ _______ _______ _____ _____    ______ ____
ROOT
ATOM      1  C   UNL     1       3.695  -0.684  -0.038  0.00  0.00    +0.266 C 
ATOM      2  O   UNL     1       4.735  -0.063  -0.144  0.00  0.00    -0.268 OA
ATOM      3  N   UNL     1       3.720  -2.028   0.056  0.00  0.00    -0.181 N 
ATOM      4  C   UNL     1       4.932  -2.856   0.161  0.00  0.00    +0.141 C 
ATOM      5  C   UNL     1       4.383  -4.295   0.239  0.00  0.00    +0.087 C 
ATOM      6  C   UNL     1       2.883  -4.117   0.168  0.00  0.00    +0.075 C 
ATOM      7  N   UNL     1       2.602  -2.860   0.075  0.00  0.00    -0.180 NA
ENDROOT
BRANCH   1  11
ATOM      8  C   UNL     1      -0.015   1.381   0.032  0.00  0.00    +0.000 A 
ATOM      9  C   UNL     1       1.170   2.094   0.039  0.00  0.00    +0.001 A 
ATOM     10  C   UNL     1       2.379   1.430   0.017  0.00  0.00    +0.013 A 
ATOM     11  C   UNL     1       2.404   0.034  -0.014  0.00  0.00    +0.039 A 
ATOM     12  C   UNL     1       1.204  -0.679  -0.021  0.00  0.00    +0.013 A 
ATOM     13  C   UNL     1       0.002  -0.002   0.002  0.00  0.00    +0.001 A 
ENDBRANCH   1  11
BRANCH   4  14
ATOM     14  C   UNL     1       5.703  -2.511   1.409  0.00  0.00    +0.017 A 
ATOM     15  C   UNL     1       5.055  -1.934   2.485  0.00  0.00    +0.009 A 
ATOM     16  C   UNL     1       5.762  -1.617   3.630  0.00  0.00    +0.001 A 
ATOM     17  C   UNL     1       7.118  -1.876   3.702  0.00  0.00    +0.004 A 
ATOM     18  C   UNL     1       7.770  -2.454   2.630  0.00  0.00    +0.046 A 
ATOM     19  C   UNL     1       7.062  -2.778   1.482  0.00  0.00    +0.122 A 
BRANCH  19  20
ATOM     20  O   UNL     1       7.700  -3.351   0.428  0.00  0.00    -0.506 OA
ATOM     21  H   UNL     1       8.060  -2.716  -0.207  0.00  0.00    +0.292 HD
ENDBRANCH  19  20
ENDBRANCH   4  14
BRANCH   6  22
ATOM     22  C   UNL     1       1.900  -5.204   0.203  0.00  0.00    +0.035 A 
ATOM     23  C   UNL     1       0.519  -5.134   0.138  0.00  0.00    +0.017 A 
ATOM     24  C   UNL     1      -0.198  -6.307   0.192  0.00  0.00    +0.008 A 
ATOM     25  C   UNL     1       0.465  -7.487   0.306  0.00  0.00    +0.046 A 
ATOM     26  S   UNL     1       2.171  -6.964   0.335  0.00  0.00    -0.095 S 
ENDBRANCH   6  22
TORSDOF 4
