REMARK  Name = ZINC16491993
REMARK  9 active torsions:
REMARK  status: ('A' for Active; 'I' for Inactive)
REMARK    1  A    between atoms: C_1  and  C_2
REMARK    2  A    between atoms: C_4  and  C_34
REMARK    3  A    between atoms: C_6  and  S_8
REMARK    4  A    between atoms: S_8  and  C_9
REMARK    5  A    between atoms: C_9  and  C_10
REMARK    6  A    between atoms: C_13  and  C_16
REMARK    7  A    between atoms: N_18  and  N_19
REMARK    8  A    between atoms: C_20  and  C_22
REMARK    9  A    between atoms: C_22  and  N_23
REMARK                            x       y       z     vdW  Elec       q    Type
REMARK                         _______ _______ _______ _____ _____    ______ ____
ROOT
ATOM      1  C   UNL     1       5.662   2.146  -4.758  0.00  0.00    +0.260 C 
ATOM      2  O   UNL     1       6.518   1.524  -4.159  0.00  0.00    -0.269 OA
ATOM      3  N   UNL     1       4.661   2.741  -4.079  0.00  0.00    -0.230 N 
ATOM      4  H   UNL     1       3.978   3.236  -4.557  0.00  0.00    +0.173 HD
ENDROOT
BRANCH   1   8
ATOM      5  C   UNL     1       5.823   2.440  -8.992  0.00  0.00    -0.037 A 
ATOM      6  C   UNL     1       6.799   1.732  -8.314  0.00  0.00    +0.005 A 
ATOM      7  C   UNL     1       6.753   1.633  -6.938  0.00  0.00    +0.013 A 
ATOM      8  C   UNL     1       5.718   2.248  -6.232  0.00  0.00    +0.038 A 
ATOM      9  C   UNL     1       4.734   2.956  -6.923  0.00  0.00    +0.013 A 
ATOM     10  C   UNL     1       4.795   3.052  -8.298  0.00  0.00    +0.005 A 
BRANCH   5  11
ATOM     11  C   UNL     1       5.881   2.545 -10.495  0.00  0.00    +0.112 C 
BRANCH  11  12
ATOM     12  S   UNL     1       4.968   1.167 -11.232  0.00  0.00    -0.081 S 
BRANCH  12  18
ATOM     13  C   UNL     1       6.882   4.117 -14.949  0.00  0.00    +0.066 C 
ATOM     14  C   UNL     1       6.083   2.900 -14.563  0.00  0.00    +0.043 A 
ATOM     15  C   UNL     1       5.536   2.080 -15.539  0.00  0.00    +0.046 A 
ATOM     16  C   UNL     1       4.808   0.970 -15.140  0.00  0.00    +0.043 A 
ATOM     17  N   UNL     1       4.658   0.726 -13.849  0.00  0.00    -0.227 NA
ATOM     18  C   UNL     1       5.194   1.530 -12.941  0.00  0.00    +0.189 A 
ATOM     19  N   UNL     1       5.891   2.602 -13.289  0.00  0.00    -0.227 NA
ATOM     20  C   UNL     1       4.196   0.051 -16.166  0.00  0.00    +0.066 C 
ENDBRANCH  12  18
ENDBRANCH  11  12
ENDBRANCH   5  11
ENDBRANCH   1   8
BRANCH   3  21
ATOM     21  N   UNL     1       4.608   2.643  -2.682  0.00  0.00    -0.233 N 
ATOM     22  C   UNL     1       3.607   3.239  -2.003  0.00  0.00    +0.247 C 
ATOM     23  O   UNL     1       2.753   3.858  -2.601  0.00  0.00    -0.273 OA
ATOM     24  H   UNL     1       5.291   2.147  -2.204  0.00  0.00    +0.173 HD
BRANCH  22  25
ATOM     25  C   UNL     1       3.550   3.134  -0.501  0.00  0.00    +0.210 C 
BRANCH  25  26
ATOM     26  N   UNL     1       2.378   3.860  -0.005  0.00  0.00    -0.261 N 
ATOM     27  C   UNL     1       2.577   5.178   0.394  0.00  0.00    +0.050 A 
ATOM     28  C   UNL     1       3.681   5.878  -0.083  0.00  0.00    +0.024 A 
ATOM     29  C   UNL     1       3.897   7.185   0.307  0.00  0.00    +0.002 A 
ATOM     30  C   UNL     1       3.024   7.810   1.179  0.00  0.00    +0.001 A 
ATOM     31  C   UNL     1       1.920   7.129   1.656  0.00  0.00    +0.016 A 
ATOM     32  C   UNL     1       1.697   5.819   1.267  0.00  0.00    +0.030 A 
ATOM     33  S   UNL     1       0.292   4.937   1.870  0.00  0.00    -0.114 S 
ATOM     34  C   UNL     1      -0.068   3.788   0.507  0.00  0.00    +0.170 C 
ATOM     35  C   UNL     1       1.226   3.195   0.020  0.00  0.00    +0.230 C 
ATOM     36  O   UNL     1       1.218   2.047  -0.371  0.00  0.00    -0.274 OA
ENDBRANCH  25  26
ENDBRANCH  22  25
ENDBRANCH   3  21
TORSDOF 7
