REMARK  Name = ZINC05675966
REMARK  5 active torsions:
REMARK  status: ('A' for Active; 'I' for Inactive)
REMARK    1  A    between atoms: C_6  and  C_7
REMARK    2  A    between atoms: C_10  and  C_12
REMARK    3  A    between atoms: N_13  and  N_14
REMARK    4  A    between atoms: C_15  and  C_17
REMARK    5  A    between atoms: C_17  and  C_18
REMARK                            x       y       z     vdW  Elec       q    Type
REMARK                         _______ _______ _______ _____ _____    ______ ____
ROOT
ATOM      1  C   UNL     1       1.949  -5.681  -3.273  0.00  0.00    +0.176 C 
ATOM      2  N   UNL     1       1.691  -4.429  -3.024  0.00  0.00    -0.185 NA
ENDROOT
BRANCH   1   6
ATOM      3  C   UNL     1       2.121  -7.481  -0.142  0.00  0.00    +0.136 A 
ATOM      4  C   UNL     1       2.504  -8.479  -0.988  0.00  0.00    +0.050 A 
ATOM      5  C   UNL     1       2.489  -7.948  -2.284  0.00  0.00    +0.051 A 
ATOM      6  C   UNL     1       2.101  -6.631  -2.170  0.00  0.00    +0.148 A 
ATOM      7  O   UNL     1       1.881  -6.371  -0.865  0.00  0.00    -0.454 OA
BRANCH   3  13
ATOM      8  C   UNL     1       2.265  -8.812   1.958  0.00  0.00    +0.012 A 
ATOM      9  C   UNL     1       2.147  -8.913   3.329  0.00  0.00    +0.016 A 
ATOM     10  C   UNL     1       1.748  -7.817   4.075  0.00  0.00    +0.018 A 
ATOM     11  C   UNL     1       1.470  -6.612   3.452  0.00  0.00    +0.016 A 
ATOM     12  C   UNL     1       1.589  -6.496   2.083  0.00  0.00    +0.012 A 
ATOM     13  C   UNL     1       1.992  -7.598   1.324  0.00  0.00    +0.017 A 
ATOM     14 BR   UNL     1       1.581  -7.967   5.952  0.00  0.00    -0.050 Br
ENDBRANCH   3  13
ENDBRANCH   1   6
BRANCH   2  15
ATOM     15  N   UNL     1       1.714  -3.959  -1.704  0.00  0.00    -0.207 N 
ATOM     16  C   UNL     1       1.529  -2.648  -1.453  0.00  0.00    +0.239 C 
ATOM     17  O   UNL     1       1.342  -1.875  -2.370  0.00  0.00    -0.274 OA
ATOM     18  H   UNL     1       1.863  -4.577  -0.972  0.00  0.00    +0.177 HD
BRANCH  16  19
ATOM     19  C   UNL     1       1.553  -2.142  -0.034  0.00  0.00    +0.162 C 
BRANCH  19  20
ATOM     20  C   UNL     1       1.323  -0.653  -0.028  0.00  0.00    +0.112 A 
ATOM     21  N   UNL     1       0.198   0.030   0.049  0.00  0.00    -0.144 NA
ATOM     22  N   UNL     1       0.175   1.291   0.042  0.00  0.00    -0.126 NA
ATOM     23  C   UNL     1       1.287   2.010  -0.042  0.00  0.00    +0.179 A 
ATOM     24  S   UNL     1       2.499   0.694  -0.121  0.00  0.00    -0.035 S 
ATOM     25  N   UNL     1       1.460   3.386  -0.065  0.00  0.00    -0.336 N 
ATOM     26  H   UNL     1       0.690   3.972  -0.013  0.00  0.00    +0.144 HD
ATOM     27  H   UNL     1       2.352   3.761  -0.132  0.00  0.00    +0.144 HD
ENDBRANCH  19  20
ENDBRANCH  16  19
ENDBRANCH   2  15
TORSDOF 5
