REMARK  Name = ZINC34692110
REMARK  5 active torsions:
REMARK  status: ('A' for Active; 'I' for Inactive)
REMARK    1  A    between atoms: C_3  and  N_8
REMARK    2  A    between atoms: C_15  and  C_18
REMARK    3  A    between atoms: C_18  and  N_19
REMARK    4  A    between atoms: C_26  and  C_28
REMARK    5  A    between atoms: C_31  and  C_34
REMARK                            x       y       z     vdW  Elec       q    Type
REMARK                         _______ _______ _______ _____ _____    ______ ____
ROOT
ATOM      1  N   UNL     1       9.991   2.167  -1.893  0.00  0.00    +0.382 N 
ATOM      2  C   UNL     1      11.211   1.368  -1.982  0.00  0.00    -0.077 C 
ATOM      3  C   UNL     1      11.658   1.299  -3.426  0.00  0.00    +0.000 C 
ATOM      4  C   UNL     1      12.675   2.421  -3.701  0.00  0.00    +0.106 C 
ATOM      5  N   UNL     1      12.283   3.672  -3.022  0.00  0.00    -0.299 N 
ATOM      6  C   UNL     1      10.910   4.134  -2.981  0.00  0.00    +0.089 C 
ATOM      7  C   UNL     1      10.199   3.555  -1.736  0.00  0.00    -0.059 C 
ATOM      8  C   UNL     1      13.235   4.410  -2.418  0.00  0.00    +0.247 C 
ATOM      9  O   UNL     1      12.924   5.389  -1.768  0.00  0.00    -0.270 OA
ATOM     10  H   UNL     1       9.454   2.019  -2.735  0.00  0.00    -0.082 HD
ENDROOT
BRANCH   8  11
ATOM     11  C   UNL     1      14.658   4.029  -2.547  0.00  0.00    +0.037 A 
ATOM     12  C   UNL     1      15.156   3.581  -3.771  0.00  0.00    +0.013 A 
ATOM     13  C   UNL     1      16.484   3.228  -3.884  0.00  0.00    +0.013 A 
ATOM     14  C   UNL     1      17.323   3.317  -2.787  0.00  0.00    +0.055 A 
ATOM     15  C   UNL     1      16.835   3.760  -1.570  0.00  0.00    +0.013 A 
ATOM     16  C   UNL     1      15.510   4.122  -1.445  0.00  0.00    +0.013 A 
BRANCH  14  17
ATOM     17  C   UNL     1      18.773   2.928  -2.918  0.00  0.00    +0.417 C 
ATOM     18  F   UNL     1      19.524   4.049  -3.290  0.00  0.00    -0.166 F 
ATOM     19  F   UNL     1      19.238   2.441  -1.692  0.00  0.00    -0.166 F 
ATOM     20  F   UNL     1      18.904   1.935  -3.894  0.00  0.00    -0.166 F 
ENDBRANCH  14  17
ENDBRANCH   8  11
BRANCH   1  21
ATOM     21  C   UNL     1       9.203   1.684  -0.752  0.00  0.00    -0.045 C 
BRANCH  21  29
ATOM     22  N   UNL     1       6.896  -3.789   0.197  0.00  0.00    -0.269 N 
ATOM     23  C   UNL     1       7.338  -2.581   0.597  0.00  0.00    +0.307 C 
ATOM     24  O   UNL     1       7.802  -2.442   1.713  0.00  0.00    -0.252 OA
ATOM     25  N   UNL     1       7.267  -1.526  -0.238  0.00  0.00    -0.281 N 
ATOM     26  C   UNL     1       6.605  -1.640  -1.547  0.00  0.00    +0.137 C 
ATOM     27  C   UNL     1       7.555  -1.094  -2.619  0.00  0.00    +0.179 C 
ATOM     28  O   UNL     1       7.990   0.214  -2.240  0.00  0.00    -0.375 OA
ATOM     29  C   UNL     1       8.738   0.252  -1.022  0.00  0.00    +0.119 C 
ATOM     30  C   UNL     1       7.844  -0.224   0.134  0.00  0.00    +0.139 C 
ATOM     31  H   UNL     1       6.570  -3.911  -0.709  0.00  0.00    +0.156 HD
BRANCH  22  34
ATOM     32  C   UNL     1       5.890  -6.866   1.943  0.00  0.00    +0.003 A 
ATOM     33  C   UNL     1       5.877  -5.801   1.063  0.00  0.00    +0.023 A 
ATOM     34  C   UNL     1       6.907  -4.869   1.087  0.00  0.00    +0.036 A 
ATOM     35  C   UNL     1       7.947  -5.011   1.996  0.00  0.00    +0.043 A 
ATOM     36  C   UNL     1       7.955  -6.078   2.874  0.00  0.00    +0.043 A 
ATOM     37  C   UNL     1       6.927  -7.005   2.847  0.00  0.00    +0.020 A 
ATOM     38 CL   UNL     1       9.255  -6.257   4.010  0.00  0.00    -0.083 Cl
ENDBRANCH  22  34
ENDBRANCH  21  29
ENDBRANCH   1  21
TORSDOF 5
