REMARK  Name = ZINC45675763
REMARK  7 active torsions:
REMARK  status: ('A' for Active; 'I' for Inactive)
REMARK    1  A    between atoms: C_4  and  S_7
REMARK    2  A    between atoms: S_7  and  C_8
REMARK    3  A    between atoms: C_8  and  C_9
REMARK    4  A    between atoms: C_9  and  C_10
REMARK    5  A    between atoms: C_10  and  N_11
REMARK    6  A    between atoms: C_12  and  C_14
REMARK    7  A    between atoms: C_16  and  N_21
REMARK                            x       y       z     vdW  Elec       q    Type
REMARK                         _______ _______ _______ _____ _____    ______ ____
ROOT
ATOM      1  N   UNL     1       5.530  -5.756  -0.084  0.00  0.00    -0.311 N 
ATOM      2  C   UNL     1       5.422  -7.099  -0.090  0.00  0.00    +0.246 C 
ATOM      3  O   UNL     1       4.324  -7.620  -0.082  0.00  0.00    -0.270 OA
ATOM      4  H   UNL     1       6.407  -5.340  -0.091  0.00  0.00    +0.149 HD
ENDROOT
BRANCH   2   5
ATOM      5  C   UNL     1       6.638  -7.938  -0.107  0.00  0.00    +0.057 A 
ATOM      6  C   UNL     1       7.901  -7.343  -0.111  0.00  0.00    +0.047 A 
ATOM      7  C   UNL     1       9.032  -8.132  -0.127  0.00  0.00    +0.127 A 
ATOM      8  C   UNL     1       8.918  -9.511  -0.139  0.00  0.00    +0.034 A 
ATOM      9  C   UNL     1       7.671 -10.109  -0.135  0.00  0.00    +0.023 A 
ATOM     10  C   UNL     1       6.529  -9.331  -0.113  0.00  0.00    +0.053 A 
ATOM     11 CL   UNL     1       4.964 -10.082  -0.102  0.00  0.00    -0.083 Cl
BRANCH   7  12
ATOM     12  N   UNL     1      10.371  -7.502  -0.131  0.00  0.00    +0.056 N 
ATOM     13  O   UNL     1      10.473  -6.297  -0.121  0.00  0.00    -0.126 OA
ATOM     14  O   UNL     1      11.364  -8.192  -0.144  0.00  0.00    -0.126 OA
ENDBRANCH   7  12
ENDBRANCH   2   5
BRANCH   1  15
ATOM     15  C   UNL     1       4.325  -4.923  -0.067  0.00  0.00    +0.105 C 
BRANCH  15  16
ATOM     16  C   UNL     1       4.724  -3.447  -0.064  0.00  0.00    +0.030 C 
BRANCH  16  17
ATOM     17  C   UNL     1       3.465  -2.578  -0.046  0.00  0.00    +0.076 C 
BRANCH  17  18
ATOM     18  S   UNL     1       3.939  -0.827  -0.042  0.00  0.00    -0.125 S 
BRANCH  18  22
ATOM     19  C   UNL     1      -0.017   1.379   0.010  0.00  0.00    +0.000 A 
ATOM     20  C   UNL     1       1.169   2.090   0.002  0.00  0.00    +0.001 A 
ATOM     21  C   UNL     1       2.377   1.421  -0.013  0.00  0.00    +0.015 A 
ATOM     22  C   UNL     1       2.400   0.031  -0.021  0.00  0.00    +0.008 A 
ATOM     23  C   UNL     1       1.206  -0.680  -0.013  0.00  0.00    +0.015 A 
ATOM     24  C   UNL     1       0.002  -0.004   0.002  0.00  0.00    +0.001 A 
ENDBRANCH  18  22
ENDBRANCH  17  18
ENDBRANCH  16  17
ENDBRANCH  15  16
ENDBRANCH   1  15
TORSDOF 7
