REMARK  Name = ZINC38556209
REMARK  8 active torsions:
REMARK  status: ('A' for Active; 'I' for Inactive)
REMARK    1  A    between atoms: C_1  and  C_2
REMARK    2  A    between atoms: C_7  and  C_8
REMARK    3  A    between atoms: C_8  and  C_10
REMARK    4  A    between atoms: C_10  and  S_11
REMARK    5  A    between atoms: S_11  and  C_12
REMARK    6  A    between atoms: C_16  and  C_20
REMARK    7  A    between atoms: N_18  and  N_19
REMARK    8  A    between atoms: C_23  and  C_26
REMARK                            x       y       z     vdW  Elec       q    Type
REMARK                         _______ _______ _______ _____ _____    ______ ____
ROOT
ATOM      1  C   UNL     1       0.880  -0.635   6.586  0.00  0.00    +0.214 C 
ATOM      2  N   UNL     1       2.118  -1.422   6.390  0.00  0.00    -0.228 NA
ATOM      3  N   UNL     1       1.821  -2.731   6.992  0.00  0.00    -0.234 NA
ATOM      4  C   UNL     1       0.397  -2.953   6.627  0.00  0.00    +0.185 C 
ATOM      5  N   UNL     1      -0.220  -1.610   6.737  0.00  0.00    -0.197 NA
ATOM      6  H   UNL     1       2.336  -1.516   5.410  0.00  0.00    +0.143 HD
ATOM      7  H   UNL     1       1.937  -2.703   7.994  0.00  0.00    +0.143 HD
ENDROOT
BRANCH   4   8
ATOM      8  C   UNL     1      -0.261  -3.929   7.604  0.00  0.00    +0.187 C 
ATOM      9  C   UNL     1       0.470  -5.260   7.607  0.00  0.00    +0.034 C 
ATOM     10  C   UNL     1      -0.461  -6.140   7.191  0.00  0.00    +0.091 C 
ATOM     11  N   UNL     1      -1.637  -5.505   6.946  0.00  0.00    -0.154 NA
ATOM     12  N   UNL     1      -1.615  -4.286   7.150  0.00  0.00    -0.176 NA
BRANCH  10  13
ATOM     13  C   UNL     1      -0.234  -7.597   7.024  0.00  0.00    +0.002 A 
ATOM     14  C   UNL     1       1.014  -8.147   7.309  0.00  0.00    +0.010 A 
ATOM     15  C   UNL     1       1.219  -9.503   7.152  0.00  0.00    +0.001 A 
ATOM     16  C   UNL     1       0.189 -10.315   6.713  0.00  0.00    +0.000 A 
ATOM     17  C   UNL     1      -1.051  -9.774   6.428  0.00  0.00    +0.001 A 
ATOM     18  C   UNL     1      -1.270  -8.420   6.587  0.00  0.00    +0.010 A 
ENDBRANCH  10  13
ENDBRANCH   4   8
BRANCH   5  19
ATOM     19  N   UNL     1      -0.890  -1.446   8.017  0.00  0.00    -0.264 NA
ATOM     20  H   UNL     1      -1.280  -0.520   8.105  0.00  0.00    +0.137 HD
ATOM     21  H   UNL     1      -1.600  -2.152   8.146  0.00  0.00    +0.137 HD
ENDBRANCH   5  19
BRANCH   1  22
ATOM     22  S   UNL     1       0.580   0.423   5.143  0.00  0.00    -0.116 S 
BRANCH  22  23
ATOM     23  C   UNL     1       0.491  -0.743   3.756  0.00  0.00    +0.151 C 
BRANCH  23  24
ATOM     24  C   UNL     1       0.242   0.015   2.478  0.00  0.00    +0.173 C 
ATOM     25  O   UNL     1       0.135   1.223   2.500  0.00  0.00    -0.291 OA
BRANCH  24  32
ATOM     26  C   UNL     1      -0.503   1.454   0.080  0.00  0.00    +0.044 C 
ATOM     27  C   UNL     1      -0.231  -0.028   0.036  0.00  0.00    -0.040 A 
ATOM     28  C   UNL     1      -0.330  -0.713  -1.157  0.00  0.00    +0.004 A 
ATOM     29  C   UNL     1      -0.079  -2.073  -1.200  0.00  0.00    +0.000 A 
ATOM     30  C   UNL     1       0.271  -2.757  -0.049  0.00  0.00    +0.001 A 
ATOM     31  C   UNL     1       0.374  -2.086   1.151  0.00  0.00    +0.011 A 
ATOM     32  C   UNL     1       0.129  -0.710   1.202  0.00  0.00    +0.021 A 
ENDBRANCH  24  32
ENDBRANCH  23  24
ENDBRANCH  22  23
ENDBRANCH   1  22
TORSDOF 7
