REMARK  Name = ZINC11997633
REMARK  5 active torsions:
REMARK  status: ('A' for Active; 'I' for Inactive)
REMARK    1  A    between atoms: C_3  and  C_9
REMARK    2  A    between atoms: C_9  and  N_10
REMARK    3  A    between atoms: C_13  and  N_65
REMARK    4  A    between atoms: C_21  and  C_24
REMARK    5  A    between atoms: C_21  and  N_67
REMARK                            x       y       z     vdW  Elec       q    Type
REMARK                         _______ _______ _______ _____ _____    ______ ____
ROOT
ATOM      1  C   UNL     1      -4.788  -2.186   1.042  0.00  0.00    -0.079 C 
ATOM      2  C   UNL     1      -5.736  -3.321   1.434  0.00  0.00    -0.022 C 
ATOM      3  C   UNL     1      -5.247  -4.629   0.806  0.00  0.00    +0.009 C 
ATOM      4  C   UNL     1      -3.815  -4.905   1.270  0.00  0.00    -0.022 C 
ATOM      5  C   UNL     1      -2.922  -3.724   0.882  0.00  0.00    -0.079 C 
ATOM      6  N   UNL     1      -3.431  -2.501   1.538  0.00  0.00    +0.382 N 
ATOM      7  H   UNL     1      -3.477  -2.661   2.552  0.00  0.00    -0.081 HD
ENDROOT
BRANCH   6  11
ATOM      8  N   UNL     1      -2.263   1.744   0.624  0.00  0.00    -0.297 N 
ATOM      9  C   UNL     1      -2.098   1.024   1.898  0.00  0.00    +0.106 C 
ATOM     10  C   UNL     1      -3.097  -0.134   1.940  0.00  0.00    +0.004 C 
ATOM     11  C   UNL     1      -2.521  -1.369   1.272  0.00  0.00    -0.067 C 
ATOM     12  C   UNL     1      -2.316  -1.217  -0.225  0.00  0.00    -0.006 C 
ATOM     13  C   UNL     1      -1.226  -0.184  -0.521  0.00  0.00    +0.094 C 
ATOM     14  C   UNL     1      -1.861   1.190  -0.521  0.00  0.00    +0.216 C 
ATOM     15  O   UNL     1      -2.001   1.792  -1.565  0.00  0.00    -0.276 OA
BRANCH   8  16
ATOM     16  C   UNL     1      -2.877   3.074   0.614  0.00  0.00    +0.145 C 
BRANCH  16  19
ATOM     17  C   UNL     1      -0.425   5.838  -0.157  0.00  0.00    +0.039 A 
ATOM     18  C   UNL     1      -1.405   4.875  -0.307  0.00  0.00    +0.011 A 
ATOM     19  C   UNL     1      -1.808   4.122   0.779  0.00  0.00    +0.005 A 
ATOM     20  C   UNL     1      -1.233   4.335   2.021  0.00  0.00    +0.131 A 
ATOM     21  C   UNL     1      -0.247   5.295   2.172  0.00  0.00    +0.077 A 
ATOM     22  C   UNL     1       0.155   6.049   1.083  0.00  0.00    +0.126 A 
ATOM     23  F   UNL     1       1.113   6.990   1.229  0.00  0.00    -0.205 F 
ATOM     24  F   UNL     1      -1.631   3.603   3.084  0.00  0.00    -0.205 F 
ENDBRANCH  16  19
ENDBRANCH   8  16
ENDBRANCH   6  11
BRANCH   3  30
ATOM     25  C   UNL     1      -5.621  -7.019   0.723  0.00  0.00    -0.077 C 
ATOM     26  C   UNL     1      -6.469  -8.157   1.298  0.00  0.00    -0.019 C 
ATOM     27  C   UNL     1      -7.929  -7.958   0.884  0.00  0.00    -0.004 C 
ATOM     28  C   UNL     1      -8.410  -6.591   1.377  0.00  0.00    -0.019 C 
ATOM     29  C   UNL     1      -7.507  -5.499   0.800  0.00  0.00    -0.077 C 
ATOM     30  N   UNL     1      -6.120  -5.734   1.256  0.00  0.00    +0.389 N 
ATOM     31  H   UNL     1      -6.108  -5.771   2.282  0.00  0.00    -0.080 HD
ENDBRANCH   3  30
BRANCH   3  32
ATOM     32  C   UNL     1      -5.276  -4.508  -0.696  0.00  0.00    +0.200 C 
ATOM     33  O   UNL     1      -5.880  -3.596  -1.219  0.00  0.00    -0.278 OA
ATOM     34  N   UNL     1      -4.629  -5.413  -1.457  0.00  0.00    -0.330 N 
ATOM     35  H   UNL     1      -4.206  -6.181  -1.043  0.00  0.00    +0.145 HD
ATOM     36  H   UNL     1      -4.587  -5.295  -2.419  0.00  0.00    +0.145 HD
ENDBRANCH   3  32
TORSDOF 5
