REMARK  Name = ZINC43218792
REMARK  7 active torsions:
REMARK  status: ('A' for Active; 'I' for Inactive)
REMARK    1  A    between atoms: C_1  and  C_2
REMARK    2  A    between atoms: C_2  and  C_3
REMARK    3  A    between atoms: C_3  and  C_4
REMARK    4  A    between atoms: C_4  and  N_5
REMARK    5  A    between atoms: C_10  and  C_27
REMARK    6  A    between atoms: C_13  and  C_18
REMARK    7  A    between atoms: C_13  and  C_24
REMARK                            x       y       z     vdW  Elec       q    Type
REMARK                         _______ _______ _______ _____ _____    ______ ____
ROOT
ATOM      1  N   UNL     1       0.967  -2.908  -3.177  0.00  0.00    -0.242 N 
ATOM      2  C   UNL     1       0.628  -3.269  -4.458  0.00  0.00    +0.224 C 
ATOM      3  O   UNL     1      -0.440  -3.123  -5.011  0.00  0.00    -0.275 OA
ATOM      4  C   UNL     1       1.829  -3.862  -4.999  0.00  0.00    +0.077 C 
ATOM      5  C   UNL     1       2.433  -4.205  -6.295  0.00  0.00    -0.025 C 
ATOM      6  N   UNL     1       3.893  -4.367  -5.992  0.00  0.00    +0.398 N 
ATOM      7  C   UNL     1       4.101  -3.990  -4.556  0.00  0.00    +0.074 C 
ATOM      8  C   UNL     1       2.954  -2.985  -4.318  0.00  0.00    +0.090 C 
ATOM      9  C   UNL     1       2.315  -2.944  -2.957  0.00  0.00    +0.225 C 
ATOM     10  O   UNL     1       2.881  -2.945  -1.885  0.00  0.00    -0.275 OA
ATOM     11  H   UNL     1       4.169  -5.327  -6.138  0.00  0.00    -0.083 HD
ATOM     12  H   UNL     1       4.435  -3.759  -6.588  0.00  0.00    -0.083 HD
ENDROOT
BRANCH   5  13
ATOM     13  C   UNL     1       2.217  -3.092  -7.287  0.00  0.00    -0.039 A 
ATOM     14  C   UNL     1       3.164  -2.094  -7.423  0.00  0.00    +0.023 A 
ATOM     15  C   UNL     1       2.967  -1.072  -8.334  0.00  0.00    +0.043 A 
ATOM     16  C   UNL     1       1.822  -1.048  -9.110  0.00  0.00    +0.041 A 
ATOM     17  C   UNL     1       0.874  -2.046  -8.975  0.00  0.00    +0.061 A 
ATOM     18  C   UNL     1       1.075  -3.072  -8.067  0.00  0.00    +0.061 A 
ATOM     19 CL   UNL     1      -0.111  -4.329  -7.901  0.00  0.00    -0.082 Cl
ATOM     20 CL   UNL     1      -0.563  -2.016  -9.948  0.00  0.00    -0.082 Cl
ATOM     21 CL   UNL     1       4.156   0.181  -8.502  0.00  0.00    -0.083 Cl
ENDBRANCH   5  13
BRANCH   7  22
ATOM     22  C   UNL     1       3.979  -5.198  -3.664  0.00  0.00    -0.047 A 
ATOM     23  C   UNL     1       3.461  -6.378  -4.165  0.00  0.00    +0.003 A 
ATOM     24  C   UNL     1       3.349  -7.486  -3.346  0.00  0.00    +0.000 A 
ATOM     25  C   UNL     1       3.755  -7.414  -2.026  0.00  0.00    +0.000 A 
ATOM     26  C   UNL     1       4.274  -6.235  -1.526  0.00  0.00    +0.000 A 
ATOM     27  C   UNL     1       4.389  -5.128  -2.345  0.00  0.00    +0.003 A 
ENDBRANCH   7  22
BRANCH   7  28
ATOM     28  C   UNL     1       5.436  -3.318  -4.368  0.00  0.00    +0.350 C 
ATOM     29  O   UNL     1       6.186  -3.176  -5.319  0.00  0.00    -0.248 OA
ATOM     30  O   UNL     1       5.767  -2.917  -3.266  0.00  0.00    -0.248 OA
ENDBRANCH   7  28
BRANCH   1  31
ATOM     31  C   UNL     1      -0.011  -2.521  -2.158  0.00  0.00    +0.116 C 
BRANCH  31  32
ATOM     32  C   UNL     1      -0.246  -1.010  -2.225  0.00  0.00    +0.019 C 
BRANCH  32  34
ATOM     33  C   UNL     1      -1.504   0.905  -1.229  0.00  0.00    +0.004 C 
ATOM     34  C   UNL     1      -1.268  -0.605  -1.161  0.00  0.00    -0.002 C 
ENDBRANCH  32  34
ENDBRANCH  31  32
ENDBRANCH   1  31
TORSDOF 6
