REMARK  Name = ZINC17211343
REMARK  8 active torsions:
REMARK  status: ('A' for Active; 'I' for Inactive)
REMARK    1  A    between atoms: C_4  and  C_7
REMARK    2  A    between atoms: C_8  and  C_9
REMARK    3  A    between atoms: C_9  and  C_11
REMARK    4  A    between atoms: C_9  and  O_35
REMARK    5  A    between atoms: C_11  and  N_25
REMARK    6  A    between atoms: C_13  and  O_24
REMARK    7  A    between atoms: N_25  and  N_26
REMARK    8  A    between atoms: C_27  and  C_29
REMARK                            x       y       z     vdW  Elec       q    Type
REMARK                         _______ _______ _______ _____ _____    ______ ____
ROOT
ATOM      1  C   UNL     1       2.451  -3.952  -1.045  0.00  0.00    +0.078 C 
ATOM      2  C   UNL     1       1.696  -3.726  -2.175  0.00  0.00    +0.087 C 
ATOM      3  C   UNL     1       1.928  -4.543  -3.426  0.00  0.00    +0.259 C 
ATOM      4  N   UNL     1       1.089  -4.254  -4.600  0.00  0.00    -0.353 N 
ATOM      5  C   UNL     1       0.182  -3.301  -4.500  0.00  0.00    +0.062 A 
ATOM      6  C   UNL     1      -0.649  -2.985  -5.601  0.00  0.00    +0.047 A 
ATOM      7  C   UNL     1      -1.578  -2.002  -5.482  0.00  0.00    +0.043 A 
ATOM      8  C   UNL     1      -1.737  -1.285  -4.291  0.00  0.00    +0.022 A 
ATOM      9  C   UNL     1      -0.975  -1.535  -3.198  0.00  0.00    +0.029 A 
ATOM     10  C   UNL     1       0.015  -2.546  -3.245  0.00  0.00    +0.063 A 
ATOM     11  N   UNL     1       0.755  -2.794  -2.177  0.00  0.00    -0.352 N 
ATOM     12 CL   UNL     1      -2.591  -1.625  -6.840  0.00  0.00    -0.083 Cl
ATOM     13  H   UNL     1       1.200  -4.751  -5.425  0.00  0.00    +0.163 HD
ATOM     14  H   UNL     1       0.607  -2.274  -1.371  0.00  0.00    +0.166 HD
ENDROOT
BRANCH   3  15
ATOM     15  O   UNL     1       3.293  -4.371  -3.813  0.00  0.00    -0.367 OA
ATOM     16  H   UNL     1       3.522  -4.800  -4.649  0.00  0.00    +0.212 HD
ENDBRANCH   3  15
BRANCH   1  17
ATOM     17  N   UNL     1       3.463  -4.860  -1.074  0.00  0.00    -0.264 N 
ATOM     18  H   UNL     1       3.569  -5.444  -1.841  0.00  0.00    +0.170 HD
BRANCH  17  19
ATOM     19  N   UNL     1       4.353  -4.952   0.004  0.00  0.00    -0.233 N 
ATOM     20  C   UNL     1       5.348  -5.860  -0.019  0.00  0.00    +0.260 C 
ATOM     21  O   UNL     1       5.532  -6.535  -1.012  0.00  0.00    -0.269 OA
ATOM     22  H   UNL     1       4.253  -4.362   0.767  0.00  0.00    +0.173 HD
BRANCH  20  23
ATOM     23  C   UNL     1       6.219  -6.035   1.167  0.00  0.00    +0.041 A 
ATOM     24  C   UNL     1       5.951  -5.359   2.361  0.00  0.00    +0.033 A 
ATOM     25  C   UNL     1       6.789  -5.552   3.442  0.00  0.00    +0.111 A 
ATOM     26  N   UNL     1       7.828  -6.359   3.358  0.00  0.00    -0.263 NA
ATOM     27  C   UNL     1       8.116  -7.015   2.252  0.00  0.00    +0.111 A 
ATOM     28  C   UNL     1       7.328  -6.886   1.125  0.00  0.00    +0.033 A 
ENDBRANCH  20  23
ENDBRANCH  17  19
ENDBRANCH   1  17
BRANCH   1  29
ATOM     29  C   UNL     1       2.155  -3.194   0.223  0.00  0.00    +0.185 C 
BRANCH  29  31
ATOM     30  C   UNL     1       3.399  -1.799   1.815  0.00  0.00    +0.006 C 
ATOM     31  C   UNL     1       3.382  -2.429   0.648  0.00  0.00    +0.010 C 
BRANCH  30  35
ATOM     32  C   UNL     1       0.639  -2.885   4.855  0.00  0.00    +0.000 A 
ATOM     33  C   UNL     1       0.268  -2.971   3.525  0.00  0.00    +0.001 A 
ATOM     34  C   UNL     1       1.160  -2.620   2.532  0.00  0.00    +0.008 A 
ATOM     35  C   UNL     1       2.438  -2.176   2.873  0.00  0.00    -0.025 A 
ATOM     36  C   UNL     1       2.806  -2.091   4.216  0.00  0.00    +0.008 A 
ATOM     37  C   UNL     1       1.905  -2.446   5.199  0.00  0.00    +0.001 A 
ENDBRANCH  30  35
ENDBRANCH  29  31
BRANCH  29  38
ATOM     38  O   UNL     1       1.786  -4.113   1.253  0.00  0.00    -0.382 OA
ATOM     39  H   UNL     1       2.495  -4.716   1.515  0.00  0.00    +0.211 HD
ENDBRANCH  29  38
ENDBRANCH   1  29
TORSDOF 8
