REMARK  Name = ZINC05648579
REMARK  6 active torsions:
REMARK  status: ('A' for Active; 'I' for Inactive)
REMARK    1  A    between atoms: C_1  and  C_2
REMARK    2  A    between atoms: C_7  and  N_8
REMARK    3  A    between atoms: C_9  and  O_28
REMARK    4  A    between atoms: C_10  and  C_17
REMARK    5  A    between atoms: N_18  and  N_19
REMARK    6  A    between atoms: C_20  and  C_22
REMARK                            x       y       z     vdW  Elec       q    Type
REMARK                         _______ _______ _______ _____ _____    ______ ____
ROOT
ATOM      1  N   UNL     1      -1.253   2.957   0.029  0.00  0.00    -0.232 N 
ATOM      2  C   UNL     1      -0.108   3.710   0.022  0.00  0.00    +0.215 A 
ATOM      3  C   UNL     1       1.125   3.068   0.007  0.00  0.00    +0.119 A 
ATOM      4  C   UNL     1       1.152   1.647  -0.000  0.00  0.00    +0.266 A 
ATOM      5  O   UNL     1       2.214   1.052  -0.013  0.00  0.00    -0.267 OA
ATOM      6  N   UNL     1      -0.011   0.966   0.007  0.00  0.00    -0.274 N 
ATOM      7  H   UNL     1       0.003  -0.034   0.006  0.00  0.00    +0.173 HD
ATOM      8  C   UNL     1      -1.189   1.614   0.017  0.00  0.00    +0.337 A 
ATOM      9  O   UNL     1      -2.220   0.970   0.018  0.00  0.00    -0.246 OA
ENDROOT
BRANCH   1  16
ATOM     10  C   UNL     1      -2.429   3.553   2.551  0.00  0.00    +0.046 C 
ATOM     11  C   UNL     1      -3.111   3.901   1.253  0.00  0.00    -0.026 A 
ATOM     12  C   UNL     1      -4.342   4.527   1.264  0.00  0.00    +0.005 A 
ATOM     13  C   UNL     1      -4.968   4.845   0.073  0.00  0.00    +0.000 A 
ATOM     14  C   UNL     1      -4.364   4.539  -1.133  0.00  0.00    +0.002 A 
ATOM     15  C   UNL     1      -3.131   3.918  -1.151  0.00  0.00    +0.026 A 
ATOM     16  C   UNL     1      -2.502   3.592   0.044  0.00  0.00    +0.057 A 
ENDBRANCH   1  16
BRANCH   3  17
ATOM     17  C   UNL     1       2.375   3.843  -0.001  0.00  0.00    +0.149 C 
ATOM     18  N   UNL     1       3.520   3.228  -0.015  0.00  0.00    -0.187 NA
BRANCH  18  19
ATOM     19  N   UNL     1       4.711   3.966  -0.023  0.00  0.00    -0.203 N 
ATOM     20  C   UNL     1       5.899   3.329  -0.038  0.00  0.00    +0.263 C 
ATOM     21  O   UNL     1       5.937   2.113  -0.044  0.00  0.00    -0.268 OA
ATOM     22  H   UNL     1       4.681   4.936  -0.018  0.00  0.00    +0.178 HD
BRANCH  20  23
ATOM     23  C   UNL     1       7.155   4.107  -0.046  0.00  0.00    +0.038 A 
ATOM     24  C   UNL     1       7.115   5.503  -0.044  0.00  0.00    +0.013 A 
ATOM     25  C   UNL     1       8.291   6.223  -0.047  0.00  0.00    +0.001 A 
ATOM     26  C   UNL     1       9.509   5.566  -0.062  0.00  0.00    +0.000 A 
ATOM     27  C   UNL     1       9.556   4.183  -0.069  0.00  0.00    +0.001 A 
ATOM     28  C   UNL     1       8.387   3.451  -0.061  0.00  0.00    +0.013 A 
ENDBRANCH  20  23
ENDBRANCH  18  19
ENDBRANCH   3  17
BRANCH   2  29
ATOM     29  O   UNL     1      -0.177   5.057   0.029  0.00  0.00    -0.493 OA
ATOM     30  H   UNL     1       0.660   5.540   0.023  0.00  0.00    +0.294 HD
ENDBRANCH   2  29
TORSDOF 5
