REMARK  Name = ZINC10012221
REMARK  9 active torsions:
REMARK  status: ('A' for Active; 'I' for Inactive)
REMARK    1  A    between atoms: C_1  and  N_2
REMARK    2  A    between atoms: N_2  and  C_3
REMARK    3  A    between atoms: C_4  and  C_6
REMARK    4  A    between atoms: C_11  and  N_12
REMARK    5  A    between atoms: N_12  and  C_13
REMARK    6  A    between atoms: C_13  and  N_15
REMARK    7  A    between atoms: C_16  and  C_18
REMARK    8  A    between atoms: C_19  and  C_20
REMARK    9  A    between atoms: C_24  and  N_26
REMARK                            x       y       z     vdW  Elec       q    Type
REMARK                         _______ _______ _______ _____ _____    ______ ____
ROOT
ATOM      1  C   UNL     1      -2.415   9.544  -0.416  0.00  0.00    +0.141 C 
ATOM      2  S   UNL     1      -1.032  10.501  -0.732  0.00  0.00    -0.018 S 
ENDROOT
BRANCH   1   3
ATOM      3  N   UNL     1      -2.348   8.203  -0.533  0.00  0.00    -0.264 N 
ATOM      4  C   UNL     1      -1.192   7.616  -0.899  0.00  0.00    +0.242 C 
ATOM      5  O   UNL     1      -0.208   8.296  -1.124  0.00  0.00    -0.270 OA
ATOM      6  H   UNL     1      -3.132   7.661  -0.354  0.00  0.00    +0.157 HD
BRANCH   4   7
ATOM      7  C   UNL     1      -1.119   6.160  -1.027  0.00  0.00    +0.068 C 
ATOM      8  C   UNL     1       0.038   5.572  -1.393  0.00  0.00    +0.013 C 
BRANCH   8   9
ATOM      9  C   UNL     1       0.112   4.108  -1.522  0.00  0.00    -0.023 A 
ATOM     10  C   UNL     1      -1.016   3.322  -1.263  0.00  0.00    +0.008 A 
ATOM     11  C   UNL     1      -0.941   1.951  -1.391  0.00  0.00    +0.003 A 
ATOM     12  C   UNL     1       0.250   1.351  -1.762  0.00  0.00    +0.033 A 
ATOM     13  C   UNL     1       1.370   2.122  -2.019  0.00  0.00    +0.127 A 
ATOM     14  C   UNL     1       1.310   3.494  -1.901  0.00  0.00    +0.040 A 
BRANCH  13  15
ATOM     15  N   UNL     1       2.637   1.471  -2.421  0.00  0.00    +0.056 N 
ATOM     16  O   UNL     1       2.693   0.258  -2.525  0.00  0.00    -0.126 OA
ATOM     17  O   UNL     1       3.625   2.147  -2.647  0.00  0.00    -0.126 OA
ENDBRANCH  13  15
ENDBRANCH   8   9
ENDBRANCH   4   7
ENDBRANCH   1   3
BRANCH   1  18
ATOM     18  N   UNL     1      -3.572  10.131  -0.049  0.00  0.00    -0.296 N 
ATOM     19  H   UNL     1      -4.366   9.593   0.092  0.00  0.00    +0.154 HD
BRANCH  18  25
ATOM     20  C   UNL     1      -4.754  12.231  -0.294  0.00  0.00    +0.058 A 
ATOM     21  C   UNL     1      -4.796  13.616  -0.112  0.00  0.00    +0.015 A 
ATOM     22  C   UNL     1      -3.733  14.264   0.478  0.00  0.00    +0.001 A 
ATOM     23  C   UNL     1      -2.621  13.550   0.893  0.00  0.00    +0.002 A 
ATOM     24  C   UNL     1      -2.567  12.181   0.725  0.00  0.00    +0.024 A 
ATOM     25  C   UNL     1      -3.626  11.511   0.126  0.00  0.00    +0.045 A 
BRANCH  20  29
ATOM     26  C   UNL     1      -8.277  11.104  -1.147  0.00  0.00    +0.132 C 
ATOM     27  N   UNL     1      -7.139  11.717  -0.458  0.00  0.00    -0.304 N 
ATOM     28  C   UNL     1      -7.360  12.533   0.738  0.00  0.00    +0.132 C 
ATOM     29  C   UNL     1      -5.889  11.531  -0.925  0.00  0.00    +0.248 C 
ATOM     30  O   UNL     1      -5.696  10.786  -1.867  0.00  0.00    -0.270 OA
ENDBRANCH  20  29
ENDBRANCH  18  25
ENDBRANCH   1  18
TORSDOF 7
