REMARK  Name = ZINC06963536
REMARK  5 active torsions:
REMARK  status: ('A' for Active; 'I' for Inactive)
REMARK    1  A    between atoms: C_1  and  C_2
REMARK    2  A    between atoms: C_4  and  N_26
REMARK    3  A    between atoms: C_9  and  C_18
REMARK    4  A    between atoms: C_23  and  O_24
REMARK    5  A    between atoms: O_24  and  C_25
REMARK                            x       y       z     vdW  Elec       q    Type
REMARK                         _______ _______ _______ _____ _____    ______ ____
ROOT
ATOM      1  C   UNL     1      -0.921  -2.548  -0.743  0.00  0.00    +0.046 C 
ATOM      2  C   UNL     1       0.182  -1.835  -1.481  0.00  0.00    -0.027 A 
ATOM      3  C   UNL     1       0.786  -2.439  -2.563  0.00  0.00    +0.038 A 
ATOM      4  C   UNL     1       1.798  -1.784  -3.240  0.00  0.00    +0.127 A 
ATOM      5  C   UNL     1       2.200  -0.528  -2.833  0.00  0.00    +0.038 A 
ATOM      6  C   UNL     1       1.597   0.091  -1.746  0.00  0.00    -0.017 A 
ATOM      7  C   UNL     1       0.587  -0.567  -1.066  0.00  0.00    +0.034 A 
ATOM      8  N   UNL     1      -0.056  -0.004   0.037  0.00  0.00    -0.336 N 
ATOM      9  C   UNL     1      -0.018   1.459   0.010  0.00  0.00    +0.108 C 
ATOM     10  C   UNL     1       1.438   1.930  -0.036  0.00  0.00    +0.029 C 
ATOM     11  C   UNL     1       2.074   1.460  -1.362  0.00  0.00    +0.049 C 
ATOM     12  C   UNL     1       1.618   2.486  -2.374  0.00  0.00    -0.023 C 
ATOM     13  C   UNL     1       1.259   3.594  -1.774  0.00  0.00    -0.030 C 
ATOM     14  C   UNL     1       1.433   3.467  -0.274  0.00  0.00    +0.033 C 
ATOM     15  H   UNL     1       0.328  -0.359   0.899  0.00  0.00    +0.147 HD
ENDROOT
BRANCH   9  16
ATOM     16  C   UNL     1      -0.746   1.958  -1.211  0.00  0.00    +0.015 A 
ATOM     17  C   UNL     1      -0.815   1.172  -2.345  0.00  0.00    +0.009 A 
ATOM     18  C   UNL     1      -1.484   1.630  -3.465  0.00  0.00    +0.001 A 
ATOM     19  C   UNL     1      -2.085   2.875  -3.454  0.00  0.00    +0.004 A 
ATOM     20  C   UNL     1      -2.019   3.665  -2.323  0.00  0.00    +0.046 A 
ATOM     21  C   UNL     1      -1.354   3.205  -1.195  0.00  0.00    +0.125 A 
BRANCH  21  22
ATOM     22  O   UNL     1      -1.292   3.978  -0.079  0.00  0.00    -0.495 OA
ATOM     23  C   UNL     1      -1.940   5.251  -0.135  0.00  0.00    +0.277 C 
ENDBRANCH  21  22
ENDBRANCH   9  16
BRANCH   4  24
ATOM     24  N   UNL     1       2.450  -2.429  -4.401  0.00  0.00    +0.056 N 
ATOM     25  O   UNL     1       2.095  -3.538  -4.760  0.00  0.00    -0.126 OA
ATOM     26  O   UNL     1       3.342  -1.852  -4.997  0.00  0.00    -0.126 OA
ENDBRANCH   4  24
TORSDOF 3
