REMARK  Name = ZINC17004324
REMARK  10 active torsions:
REMARK  status: ('A' for Active; 'I' for Inactive)
REMARK    1  A    between atoms: C_1  and  C_2
REMARK    2  A    between atoms: C_5  and  S_8
REMARK    3  A    between atoms: S_8  and  O_11
REMARK    4  A    between atoms: O_11  and  C_12
REMARK    5  A    between atoms: C_14  and  N_52
REMARK    6  A    between atoms: C_18  and  O_31
REMARK    7  A    between atoms: C_20  and  O_22
REMARK    8  A    between atoms: O_22  and  C_23
REMARK    9  A    between atoms: C_23  and  C_25
REMARK   10  A    between atoms: O_31  and  C_32
REMARK                            x       y       z     vdW  Elec       q    Type
REMARK                         _______ _______ _______ _____ _____    ______ ____
ROOT
ATOM      1  C   UNL     1      -2.416   7.987   0.782  0.00  0.00    +0.183 C 
ATOM      2  C   UNL     1      -2.385   9.517   0.715  0.00  0.00    -0.013 C 
ATOM      3  C   UNL     1      -2.333   9.955  -0.751  0.00  0.00    +0.149 C 
ATOM      4  O   UNL     1      -1.187   9.378  -1.379  0.00  0.00    -0.349 OA
ATOM      5  C   UNL     1      -1.184   7.949  -1.388  0.00  0.00    +0.293 C 
ATOM      6  C   UNL     1      -1.190   7.431   0.052  0.00  0.00    +0.262 C 
ENDROOT
BRANCH   2   9
ATOM      7  H   UNL     1      -3.601  11.069   1.311  0.00  0.00    -0.089 HD
ATOM      8  H   UNL     1      -4.427   9.678   0.923  0.00  0.00    -0.089 HD
ATOM      9  N   UNL     1      -3.592  10.052   1.371  0.00  0.00    +0.383 N 
ATOM     10  H   UNL     1      -3.590   9.774   2.359  0.00  0.00    -0.089 HD
ENDBRANCH   2   9
BRANCH   5  11
ATOM     11  O   UNL     1      -0.013   7.479  -2.059  0.00  0.00    -0.351 OA
ATOM     12  C   UNL     1       0.035   7.814  -3.447  0.00  0.00    +0.197 C 
ENDBRANCH   5  11
BRANCH   1  13
ATOM     13  O   UNL     1      -2.390   7.568   2.148  0.00  0.00    -0.229 OA
BRANCH  13  14
ATOM     14  S   UNL     1      -3.766   7.289   2.736  0.00  0.00    +0.112 S 
ATOM     15  O   UNL     1      -3.580   7.092   4.131  0.00  0.00    -0.142 OA
ATOM     16  O   UNL     1      -4.639   8.283   2.217  0.00  0.00    -0.142 OA
BRANCH  14  21
ATOM     17  C   UNL     1      -5.634   2.012   0.485  0.00  0.00    +0.044 C 
ATOM     18  C   UNL     1      -5.167   3.330   1.047  0.00  0.00    -0.050 A 
ATOM     19  C   UNL     1      -4.444   3.362   2.224  0.00  0.00    +0.005 A 
ATOM     20  C   UNL     1      -4.016   4.571   2.740  0.00  0.00    +0.030 A 
ATOM     21  C   UNL     1      -4.311   5.748   2.078  0.00  0.00    +0.117 A 
ATOM     22  C   UNL     1      -5.039   5.716   0.903  0.00  0.00    +0.030 A 
ATOM     23  C   UNL     1      -5.462   4.507   0.385  0.00  0.00    +0.005 A 
ENDBRANCH  14  21
ENDBRANCH  13  14
ENDBRANCH   1  13
BRANCH   6  24
ATOM     24  O   UNL     1      -1.246   5.980   0.046  0.00  0.00    -0.450 OA
BRANCH  24  25
ATOM     25  C   UNL     1      -0.070   5.322   0.031  0.00  0.00    +0.340 C 
ATOM     26  O   UNL     1       0.973   5.944   0.024  0.00  0.00    -0.245 OA
BRANCH  25  27
ATOM     27  C   UNL     1      -0.050   3.845   0.023  0.00  0.00    +0.059 A 
ATOM     28  C   UNL     1       1.167   3.160   0.008  0.00  0.00    +0.015 A 
ATOM     29  C   UNL     1       1.178   1.781   0.000  0.00  0.00    +0.001 A 
ATOM     30  C   UNL     1      -0.013   1.076   0.008  0.00  0.00    +0.000 A 
ATOM     31  C   UNL     1      -1.222   1.748   0.017  0.00  0.00    +0.001 A 
ATOM     32  C   UNL     1      -1.248   3.127   0.031  0.00  0.00    +0.015 A 
ENDBRANCH  25  27
ENDBRANCH  24  25
ENDBRANCH   6  24
TORSDOF 8
