REMARK  Name = ZINC39687160
REMARK  7 active torsions:
REMARK  status: ('A' for Active; 'I' for Inactive)
REMARK    1  A    between atoms: C_1  and  C_2
REMARK    2  A    between atoms: C_2  and  C_4
REMARK    3  A    between atoms: C_2  and  N_12
REMARK    4  A    between atoms: C_4  and  C_5
REMARK    5  A    between atoms: C_13  and  C_15
REMARK    6  A    between atoms: C_26  and  C_28
REMARK    7  A    between atoms: C_31  and  C_33
REMARK                            x       y       z     vdW  Elec       q    Type
REMARK                         _______ _______ _______ _____ _____    ______ ____
ROOT
ATOM      1  C   UNL     1      -3.465  -1.164  -1.134  0.00  0.00    +0.100 C 
ATOM      2  C   UNL     1      -4.361  -0.271  -0.248  0.00  0.00    +0.121 C 
ATOM      3  N   UNL     1      -4.986   0.686  -1.192  0.00  0.00    -0.294 N 
ATOM      4  C   UNL     1      -5.291  -0.128  -2.393  0.00  0.00    +0.115 C 
ATOM      5  C   UNL     1      -4.080  -1.071  -2.540  0.00  0.00    -0.004 C 
ATOM      6  C   UNL     1      -4.538  -2.449  -3.009  0.00  0.00    -0.010 C 
ATOM      7  C   UNL     1      -5.093  -2.341  -4.432  0.00  0.00    -0.082 C 
ATOM      8  N   UNL     1      -4.053  -1.817  -5.326  0.00  0.00    +0.379 N 
ATOM      9  C   UNL     1      -3.685  -0.455  -4.923  0.00  0.00    -0.082 C 
ATOM     10  C   UNL     1      -3.071  -0.483  -3.521  0.00  0.00    -0.010 C 
ATOM     11  C   UNL     1      -5.223   1.999  -1.002  0.00  0.00    +0.282 C 
ATOM     12  O   UNL     1      -5.749   2.656  -1.881  0.00  0.00    -0.267 OA
ATOM     13  H   UNL     1      -3.240  -2.412  -5.278  0.00  0.00    -0.086 HD
ATOM     14  H   UNL     1      -4.401  -1.804  -6.273  0.00  0.00    -0.086 HD
ENDROOT
BRANCH  11  15
ATOM     15  C   UNL     1      -4.848   2.635   0.264  0.00  0.00    +0.190 A 
ATOM     16  C   UNL     1      -5.038   3.960   0.591  0.00  0.00    +0.055 A 
ATOM     17  C   UNL     1      -4.536   4.132   1.885  0.00  0.00    +0.050 A 
ATOM     18  C   UNL     1      -4.064   2.919   2.297  0.00  0.00    +0.136 A 
ATOM     19  O   UNL     1      -4.262   2.024   1.315  0.00  0.00    -0.450 OA
BRANCH  18  20
ATOM     20  C   UNL     1      -3.443   2.637   3.607  0.00  0.00    +0.017 A 
ATOM     21  C   UNL     1      -3.304   3.657   4.551  0.00  0.00    +0.011 A 
ATOM     22  C   UNL     1      -2.723   3.386   5.773  0.00  0.00    +0.001 A 
ATOM     23  C   UNL     1      -2.280   2.108   6.064  0.00  0.00    +0.000 A 
ATOM     24  C   UNL     1      -2.414   1.093   5.133  0.00  0.00    +0.001 A 
ATOM     25  C   UNL     1      -2.998   1.349   3.909  0.00  0.00    +0.011 A 
ENDBRANCH  18  20
ENDBRANCH  11  15
BRANCH   1  27
ATOM     26  N   UNL     1      -1.018  -1.497  -1.289  0.00  0.00    -0.312 N 
ATOM     27  C   UNL     1      -2.051  -0.643  -1.145  0.00  0.00    +0.218 C 
ATOM     28  O   UNL     1      -1.842   0.546  -1.023  0.00  0.00    -0.275 OA
ATOM     29  H   UNL     1      -1.185  -2.447  -1.386  0.00  0.00    +0.149 HD
BRANCH  26  31
ATOM     30  C   UNL     1       0.860  -0.854   0.139  0.00  0.00    +0.028 C 
ATOM     31  C   UNL     1       0.356  -0.990  -1.300  0.00  0.00    +0.074 C 
BRANCH  31  32
ATOM     32  C   UNL     1       1.253  -1.964  -2.065  0.00  0.00    +0.060 C 
BRANCH  32  33
ATOM     33  C   UNL     1       0.832  -2.005  -3.511  0.00  0.00    -0.010 A 
ATOM     34  C   UNL     1      -0.046  -2.978  -3.949  0.00  0.00    +0.006 A 
ATOM     35  C   UNL     1      -0.433  -3.015  -5.275  0.00  0.00    +0.000 A 
ATOM     36  C   UNL     1       0.059  -2.079  -6.166  0.00  0.00    +0.003 A 
ATOM     37  C   UNL     1       0.937  -1.105  -5.731  0.00  0.00    +0.038 A 
ATOM     38  C   UNL     1       1.321  -1.064  -4.401  0.00  0.00    +0.127 A 
ATOM     39  F   UNL     1       2.176  -0.109  -3.974  0.00  0.00    -0.205 F 
ENDBRANCH  32  33
ENDBRANCH  31  32
ENDBRANCH  26  31
ENDBRANCH   1  27
TORSDOF 6
