REMARK  Name = ZINC22196186
REMARK  10 active torsions:
REMARK  status: ('A' for Active; 'I' for Inactive)
REMARK    1  A    between atoms: C_1  and  C_2
REMARK    2  A    between atoms: C_7  and  S_8
REMARK    3  A    between atoms: S_8  and  N_11
REMARK    4  A    between atoms: N_11  and  C_12
REMARK    5  A    between atoms: C_15  and  C_18
REMARK    6  A    between atoms: C_18  and  O_20
REMARK    7  A    between atoms: O_20  and  C_21
REMARK    8  A    between atoms: C_21  and  C_23
REMARK    9  A    between atoms: C_21  and  C_24
REMARK   10  A    between atoms: N_26  and  C_27
REMARK                            x       y       z     vdW  Elec       q    Type
REMARK                         _______ _______ _______ _____ _____    ______ ____
ROOT
ATOM      1  C   UNL     1       5.113   0.991  -1.517  0.00  0.00    +0.048 A 
ATOM      2  C   UNL     1       4.368   2.064  -1.035  0.00  0.00    +0.025 A 
ATOM      3  C   UNL     1       4.810   3.348  -1.223  0.00  0.00    +0.017 A 
ATOM      4  C   UNL     1       6.006   3.580  -1.910  0.00  0.00    +0.059 A 
ATOM      5  C   UNL     1       6.749   2.501  -2.398  0.00  0.00    +0.017 A 
ATOM      6  C   UNL     1       6.304   1.219  -2.202  0.00  0.00    +0.025 A 
ENDROOT
BRANCH   1   7
ATOM      7  N   UNL     1       4.665  -0.310  -1.319  0.00  0.00    -0.216 N 
ATOM      8  H   UNL     1       4.671  -1.026  -2.154  0.00  0.00    +0.174 HD
BRANCH   7   9
ATOM      9  S   UNL     1       4.121  -0.780   0.172  0.00  0.00    +0.073 S 
ATOM     10  O   UNL     1       3.849  -2.172   0.085  0.00  0.00    -0.150 OA
ATOM     11  O   UNL     1       3.134   0.165   0.562  0.00  0.00    -0.150 OA
BRANCH   9  18
ATOM     12  C   UNL     1       6.720  -2.313  -0.024  0.00  0.00    +0.049 C 
ATOM     13  C   UNL     1       6.615  -1.344   1.126  0.00  0.00    +0.011 A 
ATOM     14  C   UNL     1       7.670  -1.202   2.011  0.00  0.00    +0.128 A 
ATOM     15  C   UNL     1       7.571  -0.312   3.067  0.00  0.00    +0.039 A 
ATOM     16  C   UNL     1       6.420   0.433   3.236  0.00  0.00    +0.005 A 
ATOM     17  C   UNL     1       5.367   0.290   2.353  0.00  0.00    +0.029 A 
ATOM     18  C   UNL     1       5.464  -0.599   1.298  0.00  0.00    +0.114 A 
ATOM     19  F   UNL     1       8.796  -1.930   1.844  0.00  0.00    -0.205 F 
ENDBRANCH   9  18
ENDBRANCH   7   9
ENDBRANCH   1   7
BRANCH   4  20
ATOM     20  C   UNL     1       6.481   4.959  -2.120  0.00  0.00    +0.340 C 
ATOM     21  O   UNL     1       7.521   5.159  -2.717  0.00  0.00    -0.245 OA
BRANCH  20  22
ATOM     22  O   UNL     1       5.764   5.998  -1.649  0.00  0.00    -0.449 OA
BRANCH  22  23
ATOM     23  C   UNL     1       6.293   7.328  -1.892  0.00  0.00    +0.259 C 
ATOM     24  C   UNL     1       7.206   7.734  -0.733  0.00  0.00    +0.062 C 
BRANCH  23  25
ATOM     25  C   UNL     1       5.154   8.309  -2.002  0.00  0.00    +0.258 C 
ATOM     26  O   UNL     1       4.016   7.943  -1.796  0.00  0.00    -0.271 OA
ATOM     27  N   UNL     1       5.400   9.594  -2.328  0.00  0.00    -0.280 N 
ATOM     28  H   UNL     1       6.436   9.944  -2.438  0.00  0.00    +0.155 HD
BRANCH  27  29
ATOM     29  C   UNL     1       4.335  10.482  -2.526  0.00  0.00    +0.072 A 
ATOM     30  C   UNL     1       3.176  10.358  -1.772  0.00  0.00    +0.064 A 
ATOM     31  C   UNL     1       2.127  11.237  -1.969  0.00  0.00    +0.125 A 
ATOM     32  C   UNL     1       2.232  12.241  -2.918  0.00  0.00    +0.041 A 
ATOM     33  C   UNL     1       3.385  12.366  -3.670  0.00  0.00    +0.043 A 
ATOM     34  C   UNL     1       4.440  11.494  -3.473  0.00  0.00    +0.145 A 
ATOM     35  F   UNL     1       5.568  11.621  -4.205  0.00  0.00    -0.204 F 
ATOM     36  F   UNL     1       0.999  11.117  -1.236  0.00  0.00    -0.205 F 
ENDBRANCH  27  29
ENDBRANCH  23  25
ENDBRANCH  22  23
ENDBRANCH  20  22
ENDBRANCH   4  20
TORSDOF 8
