REMARK  Name = ZINC11996581
REMARK  7 active torsions:
REMARK  status: ('A' for Active; 'I' for Inactive)
REMARK    1  A    between atoms: C_4  and  O_7
REMARK    2  A    between atoms: O_7  and  C_8
REMARK    3  A    between atoms: C_12  and  C_14
REMARK    4  A    between atoms: C_16  and  C_28
REMARK    5  A    between atoms: C_18  and  C_23
REMARK    6  A    between atoms: C_18  and  O_27
REMARK    7  A    between atoms: C_28  and  C_30
REMARK                            x       y       z     vdW  Elec       q    Type
REMARK                         _______ _______ _______ _____ _____    ______ ____
ROOT
ATOM      1  C   UNL     1       2.353   1.734  -1.250  0.00  0.00    +0.120 C 
ATOM      2  C   UNL     1       1.309   2.460  -0.396  0.00  0.00    +0.144 C 
ATOM      3  C   UNL     1      -0.021   1.707  -0.508  0.00  0.00    +0.243 C 
ATOM      4  N   UNL     1       0.185   0.309  -0.127  0.00  0.00    -0.264 N 
ATOM      5  C   UNL     1       1.368  -0.296  -0.307  0.00  0.00    +0.302 C 
ATOM      6  O   UNL     1       1.483  -1.463   0.017  0.00  0.00    -0.253 OA
ATOM      7  N   UNL     1       2.430   0.334  -0.830  0.00  0.00    -0.292 N 
ATOM      8  H   UNL     1      -0.550  -0.191   0.263  0.00  0.00    +0.153 HD
ATOM      9  H   UNL     1       3.267  -0.147  -0.930  0.00  0.00    +0.151 HD
ENDROOT
BRANCH   1  14
ATOM     10  C   UNL     1       5.809   2.520   0.061  0.00  0.00    +0.129 A 
ATOM     11  C   UNL     1       6.166   3.600  -0.734  0.00  0.00    +0.046 A 
ATOM     12  C   UNL     1       5.288   4.070  -1.692  0.00  0.00    +0.004 A 
ATOM     13  C   UNL     1       4.056   3.466  -1.858  0.00  0.00    +0.006 A 
ATOM     14  C   UNL     1       3.698   2.390  -1.067  0.00  0.00    -0.023 A 
ATOM     15  C   UNL     1       4.570   1.919  -0.104  0.00  0.00    +0.051 A 
BRANCH  10  16
ATOM     16  O   UNL     1       6.670   2.056   1.005  0.00  0.00    -0.456 OA
BRANCH  16  20
ATOM     17  C   UNL     1      10.143   4.181   1.671  0.00  0.00    +0.000 A 
ATOM     18  C   UNL     1       8.921   4.730   2.015  0.00  0.00    +0.004 A 
ATOM     19  C   UNL     1       7.757   4.021   1.792  0.00  0.00    +0.046 A 
ATOM     20  C   UNL     1       7.814   2.756   1.224  0.00  0.00    +0.128 A 
ATOM     21  C   UNL     1       9.042   2.205   0.885  0.00  0.00    +0.046 A 
ATOM     22  C   UNL     1      10.203   2.921   1.104  0.00  0.00    +0.004 A 
ENDBRANCH  16  20
ENDBRANCH  10  16
ENDBRANCH   1  14
BRANCH   3  23
ATOM     23  C   UNL     1      -0.527   1.775  -1.950  0.00  0.00    +0.436 C 
ATOM     24  F   UNL     1      -1.738   1.081  -2.052  0.00  0.00    -0.166 F 
ATOM     25  F   UNL     1      -0.724   3.112  -2.313  0.00  0.00    -0.166 F 
ATOM     26  F   UNL     1       0.417   1.194  -2.803  0.00  0.00    -0.166 F 
ENDBRANCH   3  23
BRANCH   3  27
ATOM     27  O   UNL     1      -0.982   2.303   0.366  0.00  0.00    -0.364 OA
ATOM     28  H   UNL     1      -1.848   1.873   0.350  0.00  0.00    +0.212 HD
ENDBRANCH   3  27
BRANCH   2  29
ATOM     29  C   UNL     1       1.759   2.481   1.042  0.00  0.00    +0.173 C 
ATOM     30  O   UNL     1       2.418   1.565   1.485  0.00  0.00    -0.292 OA
BRANCH  29  31
ATOM     31  C   UNL     1       1.398   3.614   1.909  0.00  0.00    +0.018 A 
ATOM     32  C   UNL     1       0.642   4.675   1.400  0.00  0.00    +0.013 A 
ATOM     33  C   UNL     1       0.303   5.731   2.219  0.00  0.00    +0.020 A 
ATOM     34  C   UNL     1       0.719   5.747   3.541  0.00  0.00    +0.041 A 
ATOM     35  C   UNL     1       1.472   4.702   4.050  0.00  0.00    +0.020 A 
ATOM     36  C   UNL     1       1.813   3.637   3.244  0.00  0.00    +0.013 A 
ATOM     37 CL   UNL     1       0.294   7.085   4.563  0.00  0.00    -0.084 Cl
ENDBRANCH  29  31
ENDBRANCH   2  29
TORSDOF 7
