REMARK  Name = ZINC12209758
REMARK  11 active torsions:
REMARK  status: ('A' for Active; 'I' for Inactive)
REMARK    1  A    between atoms: C_1  and  C_2
REMARK    2  A    between atoms: C_2  and  O_3
REMARK    3  A    between atoms: O_3  and  C_4
REMARK    4  A    between atoms: C_4  and  C_5
REMARK    5  A    between atoms: C_5  and  C_6
REMARK    6  A    between atoms: C_6  and  N_7
REMARK    7  A    between atoms: N_7  and  S_8
REMARK    8  A    between atoms: S_8  and  C_11
REMARK    9  A    between atoms: C_12  and  C_26
REMARK   10  A    between atoms: C_14  and  N_18
REMARK   11  A    between atoms: C_16  and  C_17
REMARK                            x       y       z     vdW  Elec       q    Type
REMARK                         _______ _______ _______ _____ _____    ______ ____
ROOT
ATOM      1  C   UNL     1      -1.161   3.206  -0.259  0.00  0.00    +0.111 A 
ATOM      2  C   UNL     1      -1.267   1.844  -0.045  0.00  0.00    -0.022 A 
ATOM      3  C   UNL     1      -0.139   1.098   0.235  0.00  0.00    +0.030 A 
ATOM      4  C   UNL     1       1.104   1.715   0.290  0.00  0.00    +0.051 A 
ATOM      5  C   UNL     1       1.208   3.082   0.068  0.00  0.00    +0.030 A 
ATOM      6  C   UNL     1       0.076   3.824  -0.205  0.00  0.00    -0.022 A 
ATOM      7  C   UNL     1       0.187   5.307  -0.446  0.00  0.00    +0.046 C 
ATOM      8  C   UNL     1      -2.615   1.175  -0.110  0.00  0.00    +0.046 C 
ENDROOT
BRANCH   4   9
ATOM      9  N   UNL     1       2.248   0.962   0.567  0.00  0.00    -0.207 N 
ATOM     10  C   UNL     1       3.576   1.406   0.118  0.00  0.00    +0.131 C 
ATOM     11  C   UNL     1       4.505   1.535   1.323  0.00  0.00    +0.022 C 
ATOM     12  C   UNL     1       4.739   0.173   1.972  0.00  0.00    +0.026 C 
ATOM     13  C   UNL     1       3.458  -0.296   2.671  0.00  0.00    +0.189 C 
ATOM     14  S   UNL     1       2.151  -0.463   1.423  0.00  0.00    +0.045 S 
ATOM     15  O   UNL     1       0.871  -0.436   2.040  0.00  0.00    -0.155 OA
ATOM     16  O   UNL     1       2.490  -1.478   0.488  0.00  0.00    -0.155 OA
ENDBRANCH   4   9
BRANCH   1  17
ATOM     17  S   UNL     1      -2.603   4.156  -0.608  0.00  0.00    +0.059 S 
ATOM     18  O   UNL     1      -3.715   3.367  -0.209  0.00  0.00    -0.153 OA
ATOM     19  O   UNL     1      -2.368   5.458  -0.090  0.00  0.00    -0.153 OA
BRANCH  17  20
ATOM     20  N   UNL     1      -2.700   4.313  -2.254  0.00  0.00    -0.190 NA
ATOM     21  H   UNL     1      -2.614   5.188  -2.664  0.00  0.00    +0.148 HD
BRANCH  20  22
ATOM     22  C   UNL     1      -2.915   3.130  -3.091  0.00  0.00    +0.108 C 
BRANCH  22  23
ATOM     23  C   UNL     1      -3.334   3.568  -4.495  0.00  0.00    +0.045 C 
BRANCH  23  24
ATOM     24  C   UNL     1      -3.559   2.333  -5.370  0.00  0.00    +0.161 C 
BRANCH  24  25
ATOM     25  O   UNL     1      -3.951   2.742  -6.681  0.00  0.00    -0.380 OA
BRANCH  25  27
ATOM     26  C   UNL     1      -4.599   2.211  -8.948  0.00  0.00    +0.034 C 
ATOM     27  C   UNL     1      -4.187   1.658  -7.582  0.00  0.00    +0.156 C 
ENDBRANCH  25  27
ENDBRANCH  24  25
ENDBRANCH  23  24
ENDBRANCH  22  23
ENDBRANCH  20  22
ENDBRANCH  17  20
ENDBRANCH   1  17
TORSDOF 8
