REMARK  Name = ZINC66722778
REMARK  9 active torsions:
REMARK  status: ('A' for Active; 'I' for Inactive)
REMARK    1  A    between atoms: C_1  and  C_2
REMARK    2  A    between atoms: C_2  and  C_3
REMARK    3  A    between atoms: C_2  and  C_4
REMARK    4  A    between atoms: C_4  and  C_6
REMARK    5  A    between atoms: C_4  and  N_19
REMARK    6  A    between atoms: N_8  and  S_9
REMARK    7  A    between atoms: S_9  and  C_12
REMARK    8  A    between atoms: C_20  and  O_22
REMARK    9  A    between atoms: O_22  and  C_23
REMARK                            x       y       z     vdW  Elec       q    Type
REMARK                         _______ _______ _______ _____ _____    ______ ____
ROOT
ATOM      1  C   UNL     1      -2.162  -0.034  -1.208  0.00  0.00    +0.285 C 
ATOM      2  O   UNL     1      -2.229  -0.803  -2.315  0.00  0.00    -0.267 OA
ATOM      3  N   UNL     1      -2.722   1.128  -1.195  0.00  0.00    -0.089 NA
ENDROOT
BRANCH   3   4
ATOM      4  S   UNL     1      -3.523   1.677  -2.536  0.00  0.00    +0.102 S 
ATOM      5  O   UNL     1      -2.543   1.856  -3.549  0.00  0.00    -0.146 OA
ATOM      6  O   UNL     1      -4.652   0.831  -2.710  0.00  0.00    -0.146 OA
BRANCH   4   7
ATOM      7  C   UNL     1      -4.149   3.278  -2.151  0.00  0.00    +0.113 A 
ATOM      8  C   UNL     1      -5.406   3.413  -1.591  0.00  0.00    +0.030 A 
ATOM      9  C   UNL     1      -5.897   4.669  -1.288  0.00  0.00    +0.017 A 
ATOM     10  C   UNL     1      -5.130   5.791  -1.546  0.00  0.00    +0.018 A 
ATOM     11  C   UNL     1      -3.873   5.656  -2.106  0.00  0.00    +0.017 A 
ATOM     12  C   UNL     1      -3.381   4.399  -2.404  0.00  0.00    +0.030 A 
ATOM     13 BR   UNL     1      -5.802   7.510  -1.132  0.00  0.00    -0.050 Br
ENDBRANCH   4   7
ENDBRANCH   3   4
BRANCH   1  14
ATOM     14  C   UNL     1      -1.433  -0.534   0.013  0.00  0.00    +0.171 C 
BRANCH  14  15
ATOM     15  N   UNL     1      -1.413  -1.998   0.005  0.00  0.00    -0.269 N 
ATOM     16  C   UNL     1      -1.292  -2.677   1.163  0.00  0.00    +0.401 C 
ATOM     17  O   UNL     1      -1.198  -2.074   2.214  0.00  0.00    -0.226 OA
ATOM     18  H   UNL     1      -1.488  -2.480  -0.834  0.00  0.00    +0.153 HD
BRANCH  16  19
ATOM     19  O   UNL     1      -1.273  -4.023   1.155  0.00  0.00    -0.454 OA
ATOM     20  C   UNL     1      -1.141  -4.677   2.419  0.00  0.00    +0.282 C 
ENDBRANCH  16  19
ENDBRANCH  14  15
BRANCH  14  22
ATOM     21  C   UNL     1      -0.019   1.526   0.010  0.00  0.00    +0.009 C 
ATOM     22  C   UNL     1       0.002  -0.004   0.002  0.00  0.00    +0.013 C 
ATOM     23  C   UNL     1       0.742  -0.511   1.242  0.00  0.00    +0.009 C 
ENDBRANCH  14  22
ENDBRANCH   1  14
TORSDOF 6
