REMARK  Name = ZINC64626053
REMARK  11 active torsions:
REMARK  status: ('A' for Active; 'I' for Inactive)
REMARK    1  A    between atoms: C_1  and  C_2
REMARK    2  A    between atoms: C_7  and  C_12
REMARK    3  A    between atoms: C_17  and  C_20
REMARK    4  A    between atoms: C_20  and  C_22
REMARK    5  A    between atoms: C_20  and  N_29
REMARK    6  A    between atoms: C_22  and  C_23
REMARK    7  A    between atoms: N_29  and  C_30
REMARK    8  A    between atoms: N_29  and  C_31
REMARK    9  A    between atoms: C_31  and  C_32
REMARK   10  A    between atoms: N_34  and  C_39
REMARK   11  A    between atoms: C_36  and  C_38
REMARK                            x       y       z     vdW  Elec       q    Type
REMARK                         _______ _______ _______ _____ _____    ______ ____
ROOT
ATOM      1  C   UNL     1      -0.109 -10.080   5.326  0.00  0.00    -0.061 C 
ENDROOT
BRANCH   1   7
ATOM      2  C   UNL     1       0.169  -5.266   2.783  0.00  0.00    +0.242 C 
ATOM      3  O   UNL     1      -0.636  -5.056   1.900  0.00  0.00    -0.273 OA
ATOM      4  N   UNL     1      -0.137  -6.114   3.785  0.00  0.00    -0.300 N 
ATOM      5  C   UNL     1       0.825  -6.373   4.865  0.00  0.00    +0.108 C 
ATOM      6  C   UNL     1       1.036  -7.886   4.984  0.00  0.00    +0.021 C 
ATOM      7  C   UNL     1      -0.319  -8.573   5.171  0.00  0.00    -0.021 C 
ATOM      8  C   UNL     1      -1.202  -8.303   3.951  0.00  0.00    +0.021 C 
ATOM      9  C   UNL     1      -1.440  -6.791   3.823  0.00  0.00    +0.108 C 
BRANCH   2  16
ATOM     10  C   UNL     1       2.246   1.452   2.365  0.00  0.00    +0.044 C 
ATOM     11  C   UNL     1       2.129  -0.027   2.096  0.00  0.00    -0.050 A 
ATOM     12  C   UNL     1       2.301  -0.498   0.787  0.00  0.00    +0.005 A 
ATOM     13  C   UNL     1       2.211  -1.806   0.466  0.00  0.00    +0.026 A 
ATOM     14  C   UNL     1       1.932  -2.775   1.468  0.00  0.00    +0.043 A 
ATOM     15  N   UNL     1       1.797  -4.078   1.410  0.00  0.00    -0.370 N 
ATOM     16  C   UNL     1       1.510  -4.580   2.758  0.00  0.00    +0.190 C 
ATOM     17  C   UNL     1       1.491  -3.364   3.658  0.00  0.00    +0.016 C 
ATOM     18  C   UNL     1       1.746  -2.303   2.859  0.00  0.00    -0.003 A 
ATOM     19  C   UNL     1       1.866  -0.864   3.125  0.00  0.00    +0.013 A 
ATOM     20  H   UNL     1       1.873  -4.620   0.609  0.00  0.00    +0.161 HD
ENDBRANCH   2  16
ENDBRANCH   1   7
BRANCH   1  21
ATOM     21  N   UNL     1      -1.382 -10.717   5.690  0.00  0.00    +0.383 N 
ATOM     22  C   UNL     1      -1.912 -10.089   6.908  0.00  0.00    -0.095 C 
ATOM     23  H   UNL     1      -2.043 -10.602   4.937  0.00  0.00    -0.081 HD
BRANCH  21  24
ATOM     24  C   UNL     1      -1.161 -12.149   5.933  0.00  0.00    -0.045 C 
BRANCH  24  25
ATOM     25  C   UNL     1      -2.479 -12.818   6.225  0.00  0.00    -0.053 C 
ATOM     26  C   UNL     1      -2.964 -13.113   7.414  0.00  0.00    +0.086 C 
ATOM     27  N   UNL     1      -4.200 -13.723   7.325  0.00  0.00    -0.277 N 
ATOM     28  N   UNL     1      -4.590 -13.856   6.023  0.00  0.00    -0.234 NA
ATOM     29  C   UNL     1      -3.504 -13.274   5.209  0.00  0.00    +0.095 C 
ATOM     30  C   UNL     1      -2.905 -14.334   4.283  0.00  0.00    +0.030 C 
ATOM     31  C   UNL     1      -4.989 -14.168   8.476  0.00  0.00    +0.149 C 
ATOM     32  H   UNL     1      -4.741 -14.826   5.789  0.00  0.00    +0.145 HD
ENDBRANCH  24  25
ENDBRANCH  21  24
ENDBRANCH   1  21
BRANCH   1  33
ATOM     33  C   UNL     1       0.392 -10.663   4.003  0.00  0.00    +0.020 C 
BRANCH  33  34
ATOM     34  C   UNL     1       1.796 -10.180   3.741  0.00  0.00    -0.049 A 
ATOM     35  C   UNL     1       2.061  -9.397   2.633  0.00  0.00    +0.003 A 
ATOM     36  C   UNL     1       3.348  -8.954   2.393  0.00  0.00    +0.000 A 
ATOM     37  C   UNL     1       4.370  -9.294   3.260  0.00  0.00    +0.000 A 
ATOM     38  C   UNL     1       4.104 -10.077   4.368  0.00  0.00    +0.000 A 
ATOM     39  C   UNL     1       2.816 -10.516   4.611  0.00  0.00    +0.003 A 
ENDBRANCH  33  34
ENDBRANCH   1  33
TORSDOF 7
