REMARK  Name = ZINC02542687
REMARK  8 active torsions:
REMARK  status: ('A' for Active; 'I' for Inactive)
REMARK    1  A    between atoms: C_3  and  C_18
REMARK    2  A    between atoms: C_5  and  O_7
REMARK    3  A    between atoms: O_7  and  C_8
REMARK    4  A    between atoms: C_8  and  C_10
REMARK    5  A    between atoms: N_19  and  N_20
REMARK    6  A    between atoms: N_20  and  C_21
REMARK    7  A    between atoms: C_21  and  N_23
REMARK    8  A    between atoms: N_23  and  C_24
REMARK                            x       y       z     vdW  Elec       q    Type
REMARK                         _______ _______ _______ _____ _____    ______ ____
ROOT
ATOM      1  C   UNL     1      -6.151  -0.643  -0.947  0.00  0.00    +0.004 A 
ATOM      2  C   UNL     1      -6.322  -1.978  -0.644  0.00  0.00    +0.010 A 
ATOM      3  C   UNL     1      -5.218  -2.760  -0.294  0.00  0.00    -0.002 A 
ATOM      4  C   UNL     1      -3.947  -2.185  -0.252  0.00  0.00    +0.055 A 
ATOM      5  C   UNL     1      -3.788  -0.844  -0.558  0.00  0.00    +0.133 A 
ATOM      6  C   UNL     1      -4.892  -0.074  -0.900  0.00  0.00    +0.046 A 
ENDROOT
BRANCH   3   7
ATOM      7  C   UNL     1      -5.396  -4.188   0.031  0.00  0.00    +0.138 C 
ATOM      8  N   UNL     1      -6.579  -4.720  -0.009  0.00  0.00    -0.188 NA
BRANCH   8   9
ATOM      9  N   UNL     1      -6.748  -6.076   0.300  0.00  0.00    -0.218 N 
ATOM     10  H   UNL     1      -5.980  -6.617   0.543  0.00  0.00    +0.176 HD
BRANCH   9  11
ATOM     11  C   UNL     1      -7.976  -6.629   0.259  0.00  0.00    +0.154 C 
ATOM     12  S   UNL     1      -8.182  -8.286   0.636  0.00  0.00    -0.017 S 
BRANCH  11  13
ATOM     13  N   UNL     1      -9.042  -5.877  -0.080  0.00  0.00    -0.296 N 
ATOM     14  H   UNL     1      -8.916  -4.961  -0.373  0.00  0.00    +0.154 HD
BRANCH  13  15
ATOM     15  C   UNL     1     -10.330  -6.417  -0.006  0.00  0.00    +0.034 A 
ATOM     16  C   UNL     1     -11.257  -6.144  -1.005  0.00  0.00    +0.023 A 
ATOM     17  C   UNL     1     -12.527  -6.683  -0.933  0.00  0.00    +0.003 A 
ATOM     18  C   UNL     1     -12.880  -7.485   0.137  0.00  0.00    +0.020 A 
ATOM     19  C   UNL     1     -11.961  -7.755   1.136  0.00  0.00    +0.043 A 
ATOM     20  C   UNL     1     -10.687  -7.223   1.067  0.00  0.00    +0.043 A 
ATOM     21 CL   UNL     1     -12.409  -8.761   2.477  0.00  0.00    -0.083 Cl
ENDBRANCH  13  15
ENDBRANCH  11  13
ENDBRANCH   9  11
ENDBRANCH   8   9
ENDBRANCH   3   7
BRANCH   5  22
ATOM     22  O   UNL     1      -2.553  -0.280  -0.518  0.00  0.00    -0.422 OA
BRANCH  22  23
ATOM     23  C   UNL     1      -1.730  -0.536  -1.554  0.00  0.00    +0.346 C 
ATOM     24  O   UNL     1      -2.071  -1.313  -2.423  0.00  0.00    -0.244 OA
BRANCH  23  25
ATOM     25  C   UNL     1      -0.414   0.128  -1.633  0.00  0.00    +0.078 A 
ATOM     26  C   UNL     1      -0.019   1.023  -0.635  0.00  0.00    +0.018 A 
ATOM     27  C   UNL     1       1.213   1.635  -0.711  0.00  0.00    +0.021 A 
ATOM     28  C   UNL     1       2.058   1.370  -1.777  0.00  0.00    +0.042 A 
ATOM     29  C   UNL     1       1.672   0.490  -2.773  0.00  0.00    +0.040 A 
ATOM     30  C   UNL     1       0.440  -0.130  -2.709  0.00  0.00    +0.056 A 
ATOM     31 CL   UNL     1      -0.044  -1.234  -3.958  0.00  0.00    -0.083 Cl
ATOM     32 CL   UNL     1       3.609   2.147  -1.864  0.00  0.00    -0.083 Cl
ENDBRANCH  23  25
ENDBRANCH  22  23
ENDBRANCH   5  22
TORSDOF 8
