REMARK  Name = ZINC00797776
REMARK  7 active torsions:
REMARK  status: ('A' for Active; 'I' for Inactive)
REMARK    1  A    between atoms: C_1  and  C_2
REMARK    2  A    between atoms: C_3  and  C_31
REMARK    3  A    between atoms: C_4  and  C_17
REMARK    4  A    between atoms: C_20  and  C_22
REMARK    5  A    between atoms: C_27  and  C_28
REMARK    6  A    between atoms: C_31  and  O_33
REMARK    7  A    between atoms: O_33  and  C_34
REMARK                            x       y       z     vdW  Elec       q    Type
REMARK                         _______ _______ _______ _____ _____    ______ ____
ROOT
ATOM      1  C   UNL     1      -3.953   1.269   2.550  0.00  0.00    +0.061 C 
ATOM      2  C   UNL     1      -3.224   1.367   1.234  0.00  0.00    +0.016 C 
ATOM      3  C   UNL     1      -2.101   2.095   1.178  0.00  0.00    +0.068 C 
ATOM      4  C   UNL     1      -1.286   2.253  -0.078  0.00  0.00    +0.129 C 
ATOM      5  C   UNL     1      -2.087   1.745  -1.251  0.00  0.00    +0.037 C 
ATOM      6  C   UNL     1      -3.240   1.016  -1.097  0.00  0.00    +0.047 C 
ATOM      7  N   UNL     1      -3.739   0.706   0.150  0.00  0.00    -0.317 N 
ATOM      8  C   UNL     1      -3.769   0.674  -2.421  0.00  0.00    +0.007 A 
ATOM      9  C   UNL     1      -4.889  -0.041  -2.815  0.00  0.00    +0.010 A 
ATOM     10  C   UNL     1      -5.101  -0.180  -4.189  0.00  0.00    +0.001 A 
ATOM     11  C   UNL     1      -4.245   0.364  -5.117  0.00  0.00    +0.001 A 
ATOM     12  C   UNL     1      -3.110   1.088  -4.737  0.00  0.00    +0.012 A 
ATOM     13  C   UNL     1      -2.887   1.234  -3.381  0.00  0.00    +0.031 A 
ATOM     14  C   UNL     1      -1.815   1.918  -2.626  0.00  0.00    +0.193 C 
ATOM     15  O   UNL     1      -0.871   2.519  -3.102  0.00  0.00    -0.287 OA
ATOM     16  H   UNL     1      -4.528  -0.047   0.288  0.00  0.00    +0.152 HD
ENDROOT
BRANCH   4  17
ATOM     17  C   UNL     1      -0.012   1.457   0.044  0.00  0.00    +0.118 A 
ATOM     18  C   UNL     1       1.238   1.959  -0.022  0.00  0.00    +0.046 A 
ATOM     19  C   UNL     1       2.126   0.878   0.133  0.00  0.00    +0.050 A 
ATOM     20  C   UNL     1       1.361  -0.238   0.287  0.00  0.00    +0.136 A 
ATOM     21  O   UNL     1       0.066   0.130   0.231  0.00  0.00    -0.459 OA
BRANCH  20  22
ATOM     22  C   UNL     1       1.863  -1.610   0.481  0.00  0.00    +0.031 A 
ATOM     23  C   UNL     1       2.834  -2.131  -0.375  0.00  0.00    +0.012 A 
ATOM     24  C   UNL     1       3.300  -3.416  -0.189  0.00  0.00    +0.001 A 
ATOM     25  C   UNL     1       2.811  -4.198   0.846  0.00  0.00    +0.001 A 
ATOM     26  C   UNL     1       1.852  -3.704   1.704  0.00  0.00    +0.016 A 
ATOM     27  C   UNL     1       1.369  -2.404   1.537  0.00  0.00    +0.074 A 
BRANCH  27  28
ATOM     28  C   UNL     1       0.349  -1.868   2.454  0.00  0.00    +0.387 C 
ATOM     29  O   UNL     1      -0.071  -0.738   2.302  0.00  0.00    -0.241 OA
ATOM     30  O   UNL     1      -0.120  -2.631   3.461  0.00  0.00    -0.241 OA
ENDBRANCH  27  28
ENDBRANCH  20  22
ENDBRANCH   4  17
BRANCH   3  31
ATOM     31  C   UNL     1      -1.660   2.748   2.353  0.00  0.00    +0.337 C 
ATOM     32  O   UNL     1      -1.900   3.929   2.520  0.00  0.00    -0.245 OA
BRANCH  31  33
ATOM     33  O   UNL     1      -0.975   2.059   3.290  0.00  0.00    -0.465 OA
ATOM     34  C   UNL     1      -0.561   2.781   4.452  0.00  0.00    +0.280 C 
ENDBRANCH  31  33
ENDBRANCH   3  31
TORSDOF 5
