REMARK  Name = ZINC36849843
REMARK  9 active torsions:
REMARK  status: ('A' for Active; 'I' for Inactive)
REMARK    1  A    between atoms: C_1  and  C_2
REMARK    2  A    between atoms: C_5  and  C_34
REMARK    3  A    between atoms: C_6  and  N_8
REMARK    4  A    between atoms: C_18  and  S_19
REMARK    5  A    between atoms: S_19  and  C_20
REMARK    6  A    between atoms: C_20  and  C_21
REMARK    7  A    between atoms: N_23  and  C_24
REMARK    8  A    between atoms: C_27  and  C_33
REMARK    9  A    between atoms: C_29  and  N_30
REMARK                            x       y       z     vdW  Elec       q    Type
REMARK                         _______ _______ _______ _____ _____    ______ ____
ROOT
ATOM      1  N   UNL     1       0.049  -2.863   2.387  0.00  0.00    -0.255 N 
ATOM      2  C   UNL     1       1.229  -3.200   2.958  0.00  0.00    +0.267 A 
ATOM      3  O   UNL     1       2.289  -2.887   2.448  0.00  0.00    -0.267 OA
ATOM      4  C   UNL     1       1.184  -3.956   4.216  0.00  0.00    +0.065 A 
ATOM      5  C   UNL     1       2.344  -4.350   4.881  0.00  0.00    +0.015 A 
ATOM      6  C   UNL     1       2.245  -5.053   6.050  0.00  0.00    +0.001 A 
ATOM      7  C   UNL     1       1.003  -5.378   6.580  0.00  0.00    +0.002 A 
ATOM      8  C   UNL     1      -0.150  -5.006   5.949  0.00  0.00    +0.028 A 
ATOM      9  C   UNL     1      -0.082  -4.286   4.752  0.00  0.00    +0.079 A 
ATOM     10  N   UNL     1      -1.199  -3.896   4.094  0.00  0.00    -0.223 NA
ATOM     11  C   UNL     1      -1.133  -3.217   2.976  0.00  0.00    +0.177 A 
ENDROOT
BRANCH   1  17
ATOM     12  C   UNL     1       0.017   1.463   0.048  0.00  0.00    +0.044 C 
ATOM     13  C   UNL     1       0.023  -0.044   0.024  0.00  0.00    -0.048 A 
ATOM     14  C   UNL     1       0.018  -0.716  -1.185  0.00  0.00    +0.004 A 
ATOM     15  C   UNL     1       0.024  -2.098  -1.211  0.00  0.00    +0.005 A 
ATOM     16  C   UNL     1       0.034  -2.812  -0.029  0.00  0.00    -0.026 A 
ATOM     17  C   UNL     1       0.039  -2.141   1.187  0.00  0.00    +0.055 A 
ATOM     18  C   UNL     1       0.039  -0.752   1.210  0.00  0.00    +0.030 A 
ATOM     19  C   UNL     1       0.039  -4.319  -0.058  0.00  0.00    +0.046 C 
ENDBRANCH   1  17
BRANCH  11  20
ATOM     20  S   UNL     1      -2.638  -2.744   2.190  0.00  0.00    -0.078 S 
BRANCH  20  21
ATOM     21  C   UNL     1      -3.929  -3.401   3.283  0.00  0.00    +0.173 C 
BRANCH  21  22
ATOM     22  C   UNL     1      -5.284  -3.062   2.719  0.00  0.00    +0.228 C 
ATOM     23  O   UNL     1      -5.371  -2.439   1.682  0.00  0.00    -0.275 OA
ATOM     24  N   UNL     1      -6.400  -3.451   3.367  0.00  0.00    -0.283 N 
ATOM     25  H   UNL     1      -6.332  -4.005   4.160  0.00  0.00    +0.155 HD
BRANCH  24  26
ATOM     26  C   UNL     1      -7.657  -3.057   2.895  0.00  0.00    +0.064 A 
ATOM     27  C   UNL     1      -7.883  -2.943   1.529  0.00  0.00    +0.026 A 
ATOM     28  C   UNL     1      -9.124  -2.554   1.066  0.00  0.00    +0.005 A 
ATOM     29  C   UNL     1     -10.142  -2.277   1.961  0.00  0.00    -0.048 A 
ATOM     30  C   UNL     1      -9.920  -2.389   3.321  0.00  0.00    +0.038 A 
ATOM     31  C   UNL     1      -8.682  -2.784   3.790  0.00  0.00    +0.148 A 
ATOM     32  C   UNL     1     -11.496  -1.852   1.453  0.00  0.00    +0.044 C 
BRANCH  31  33
ATOM     33  N   UNL     1      -8.448  -2.910   5.246  0.00  0.00    +0.058 N 
ATOM     34  O   UNL     1      -9.365  -2.768   6.021  0.00  0.00    -0.126 OA
ATOM     35  O   UNL     1      -7.339  -3.156   5.661  0.00  0.00    -0.126 OA
ENDBRANCH  31  33
ENDBRANCH  24  26
ENDBRANCH  21  22
ENDBRANCH  20  21
ENDBRANCH  11  20
TORSDOF 6
