REMARK  Name = ZINC09608759
REMARK  12 active torsions:
REMARK  status: ('A' for Active; 'I' for Inactive)
REMARK    1  A    between atoms: C_1  and  C_2
REMARK    2  A    between atoms: C_2  and  C_3
REMARK    3  A    between atoms: C_2  and  C_4
REMARK    4  A    between atoms: C_4  and  S_5
REMARK    5  A    between atoms: S_5  and  C_6
REMARK    6  A    between atoms: C_17  and  C_19
REMARK    7  A    between atoms: C_23  and  O_27
REMARK    8  A    between atoms: C_24  and  O_25
REMARK    9  A    between atoms: O_25  and  C_26
REMARK   10  A    between atoms: O_27  and  C_28
REMARK   11  A    between atoms: C_32  and  C_34
REMARK   12  A    between atoms: C_32  and  C_35
REMARK                            x       y       z     vdW  Elec       q    Type
REMARK                         _______ _______ _______ _____ _____    ______ ____
ROOT
ATOM      1  C   UNL     1       4.554  -3.742   1.806  0.00  0.00    +0.171 A 
ATOM      2  N   UNL     1       3.216  -3.580   2.000  0.00  0.00    -0.302 N 
ATOM      3  H   UNL     1       2.723  -4.219   2.538  0.00  0.00    +0.171 HD
ATOM      4  C   UNL     1       2.573  -2.531   1.444  0.00  0.00    +0.258 A 
ATOM      5  O   UNL     1       1.373  -2.377   1.610  0.00  0.00    -0.267 OA
ATOM      6  C   UNL     1       3.308  -1.622   0.674  0.00  0.00    +0.069 A 
ATOM      7  C   UNL     1       4.667  -1.831   0.512  0.00  0.00    +0.135 A 
ATOM      8  N   UNL     1       5.251  -2.889   1.083  0.00  0.00    -0.208 NA
ATOM      9  N   UNL     1       5.411  -0.938  -0.235  0.00  0.00    -0.302 N 
ATOM     10  C   UNL     1       4.943   0.325  -0.478  0.00  0.00    +0.017 C 
ATOM     11  C   UNL     1       3.632   0.613  -0.356  0.00  0.00    +0.024 C 
ATOM     12  C   UNL     1       2.631  -0.445   0.038  0.00  0.00    +0.096 C 
ATOM     13  C   UNL     1       3.151   1.914  -0.592  0.00  0.00    +0.162 C 
ATOM     14  O   UNL     1       1.961   2.139  -0.484  0.00  0.00    -0.292 OA
ATOM     15  C   UNL     1       4.080   3.033  -0.975  0.00  0.00    +0.086 C 
ATOM     16  C   UNL     1       5.467   2.751  -0.388  0.00  0.00    -0.023 C 
ATOM     17  C   UNL     1       5.936   1.384  -0.890  0.00  0.00    +0.058 C 
ATOM     18  C   UNL     1       5.387   2.739   1.140  0.00  0.00    +0.011 C 
ATOM     19  C   UNL     1       6.449   3.833  -0.843  0.00  0.00    +0.011 C 
ATOM     20  H   UNL     1       6.272  -1.209  -0.591  0.00  0.00    +0.153 HD
ENDROOT
BRANCH  12  21
ATOM     21  C   UNL     1       1.890  -0.906  -1.190  0.00  0.00    +0.010 A 
ATOM     22  C   UNL     1       0.578  -0.519  -1.391  0.00  0.00    +0.008 A 
ATOM     23  C   UNL     1      -0.105  -0.940  -2.517  0.00  0.00    +0.004 A 
ATOM     24  C   UNL     1       0.521  -1.749  -3.447  0.00  0.00    +0.049 A 
ATOM     25  C   UNL     1       1.838  -2.135  -3.255  0.00  0.00    +0.162 A 
ATOM     26  C   UNL     1       2.524  -1.716  -2.118  0.00  0.00    +0.166 A 
BRANCH  26  27
ATOM     27  O   UNL     1       3.814  -2.096  -1.922  0.00  0.00    -0.491 OA
ATOM     28  C   UNL     1       4.038  -3.452  -1.529  0.00  0.00    +0.277 C 
ENDBRANCH  26  27
BRANCH  25  29
ATOM     29  O   UNL     1       2.458  -2.925  -4.172  0.00  0.00    -0.491 OA
ATOM     30  C   UNL     1       1.692  -3.317  -5.314  0.00  0.00    +0.277 C 
ENDBRANCH  25  29
ENDBRANCH  12  21
BRANCH   1  31
ATOM     31  S   UNL     1       5.371  -5.121   2.538  0.00  0.00    -0.088 S 
BRANCH  31  32
ATOM     32  C   UNL     1       7.061  -4.828   1.962  0.00  0.00    +0.080 C 
BRANCH  32  34
ATOM     33  C   UNL     1       7.569  -7.273   1.875  0.00  0.00    +0.008 C 
ATOM     34  C   UNL     1       7.979  -5.933   2.490  0.00  0.00    -0.007 C 
ATOM     35  C   UNL     1       9.427  -5.619   2.108  0.00  0.00    +0.008 C 
ENDBRANCH  32  34
ENDBRANCH  31  32
ENDBRANCH   1  31
TORSDOF 6
