REMARK  Name = ZINC13321172
REMARK  8 active torsions:
REMARK  status: ('A' for Active; 'I' for Inactive)
REMARK    1  A    between atoms: C_1  and  C_2
REMARK    2  A    between atoms: C_2  and  S_3
REMARK    3  A    between atoms: S_3  and  N_6
REMARK    4  A    between atoms: C_10  and  C_13
REMARK    5  A    between atoms: N_15  and  N_16
REMARK    6  A    between atoms: C_17  and  C_18
REMARK    7  A    between atoms: C_23  and  C_24
REMARK    8  A    between atoms: C_27  and  C_30
REMARK                            x       y       z     vdW  Elec       q    Type
REMARK                         _______ _______ _______ _____ _____    ______ ____
ROOT
ATOM      1  C   UNL     1      -5.784   2.478  -0.857  0.00  0.00    +0.237 C 
ATOM      2  O   UNL     1      -5.596   3.674  -0.780  0.00  0.00    -0.274 OA
ATOM      3  N   UNL     1      -4.748   1.623  -0.735  0.00  0.00    -0.207 N 
ATOM      4  H   UNL     1      -4.899   0.667  -0.796  0.00  0.00    +0.177 HD
ENDROOT
BRANCH   1   9
ATOM      5  N   UNL     1      -9.484   2.592  -1.544  0.00  0.00    -0.180 NA
ATOM      6  C   UNL     1      -9.610   1.734  -2.730  0.00  0.00    +0.109 C 
ATOM      7  C   UNL     1      -8.610   0.579  -2.611  0.00  0.00    +0.018 C 
ATOM      8  C   UNL     1      -7.206   1.146  -2.392  0.00  0.00    +0.015 C 
ATOM      9  C   UNL     1      -7.175   1.947  -1.088  0.00  0.00    +0.092 C 
ATOM     10  C   UNL     1      -8.158   3.117  -1.190  0.00  0.00    +0.121 C 
BRANCH   5  11
ATOM     11  S   UNL     1     -10.811   2.960  -0.624  0.00  0.00    +0.032 S 
ATOM     12  O   UNL     1     -11.708   1.878  -0.833  0.00  0.00    -0.158 OA
ATOM     13  O   UNL     1     -10.291   3.229   0.671  0.00  0.00    -0.158 OA
BRANCH  11  15
ATOM     14  C   UNL     1     -12.723   4.915  -0.579  0.00  0.00    +0.029 C 
ATOM     15  C   UNL     1     -11.480   4.478  -1.357  0.00  0.00    +0.182 C 
ENDBRANCH  11  15
ENDBRANCH   5  11
ENDBRANCH   1   9
BRANCH   3  16
ATOM     16  N   UNL     1      -3.455   2.117  -0.519  0.00  0.00    -0.188 NA
ATOM     17  C   UNL     1      -2.458   1.294  -0.402  0.00  0.00    +0.142 C 
BRANCH  17  18
ATOM     18  C   UNL     1      -1.097   1.813  -0.175  0.00  0.00    +0.040 A 
ATOM     19  C   UNL     1       0.059   1.084  -0.131  0.00  0.00    +0.115 A 
ATOM     20  N   UNL     1       1.080   1.933   0.091  0.00  0.00    -0.284 N 
ATOM     21  H   UNL     1       2.042   1.671   0.168  0.00  0.00    +0.188 HD
ATOM     22  N   UNL     1       0.587   3.237   0.200  0.00  0.00    -0.173 NA
ATOM     23  C   UNL     1      -0.719   3.211   0.049  0.00  0.00    +0.101 A 
BRANCH  23  24
ATOM     24  C   UNL     1      -1.635   4.376   0.092  0.00  0.00    +0.003 A 
ATOM     25  C   UNL     1      -1.300   5.554  -0.574  0.00  0.00    +0.010 A 
ATOM     26  C   UNL     1      -2.159   6.634  -0.534  0.00  0.00    +0.004 A 
ATOM     27  C   UNL     1      -3.345   6.552   0.173  0.00  0.00    -0.050 A 
ATOM     28  C   UNL     1      -3.680   5.387   0.839  0.00  0.00    +0.004 A 
ATOM     29  C   UNL     1      -2.832   4.299   0.802  0.00  0.00    +0.010 A 
ATOM     30  C   UNL     1      -4.276   7.736   0.217  0.00  0.00    +0.044 C 
ENDBRANCH  23  24
ENDBRANCH  17  18
ENDBRANCH   3  16
TORSDOF 6
