REMARK  Name = ZINC38984024
REMARK  6 active torsions:
REMARK  status: ('A' for Active; 'I' for Inactive)
REMARK    1  A    between atoms: C_1  and  O_2
REMARK    2  A    between atoms: O_2  and  C_3
REMARK    3  A    between atoms: C_6  and  S_9
REMARK    4  A    between atoms: S_9  and  N_12
REMARK    5  A    between atoms: C_14  and  N_24
REMARK    6  A    between atoms: N_24  and  C_25
REMARK                            x       y       z     vdW  Elec       q    Type
REMARK                         _______ _______ _______ _____ _____    ______ ____
ROOT
ATOM      1  N   UNL     1      -5.188  -3.141  -1.577  0.00  0.00    -0.110 NA
ATOM      2  C   UNL     1      -6.417  -3.524  -1.766  0.00  0.00    +0.192 C 
ATOM      3  C   UNL     1      -6.980  -3.631  -3.165  0.00  0.00    +0.237 C 
ATOM      4  N   UNL     1      -8.377  -4.071  -3.311  0.00  0.00    -0.359 N 
ATOM      5  C   UNL     1      -9.059  -4.344  -2.233  0.00  0.00    +0.063 A 
ATOM      6  C   UNL     1     -10.458  -4.787  -2.325  0.00  0.00    +0.027 A 
ATOM      7  C   UNL     1     -11.132  -5.061  -1.187  0.00  0.00    +0.002 A 
ATOM      8  C   UNL     1     -10.531  -4.935   0.077  0.00  0.00    +0.002 A 
ATOM      9  C   UNL     1      -9.252  -4.534   0.240  0.00  0.00    +0.030 A 
ATOM     10  C   UNL     1      -8.450  -4.219  -0.886  0.00  0.00    +0.089 A 
ATOM     11  N   UNL     1      -7.202  -3.834  -0.722  0.00  0.00    -0.226 NA
ATOM     12  H   UNL     1      -8.781  -4.154  -4.188  0.00  0.00    +0.162 HD
ENDROOT
BRANCH   1  13
ATOM     13  S   UNL     1      -4.581  -3.034  -0.040  0.00  0.00    +0.100 S 
ATOM     14  O   UNL     1      -4.538  -4.358   0.473  0.00  0.00    -0.146 OA
ATOM     15  O   UNL     1      -5.296  -1.990   0.607  0.00  0.00    -0.146 OA
BRANCH  13  19
ATOM     16  C   UNL     1      -0.287  -1.640  -0.390  0.00  0.00    +0.120 A 
ATOM     17  C   UNL     1      -1.311  -0.712  -0.272  0.00  0.00    +0.047 A 
ATOM     18  C   UNL     1      -2.620  -1.139  -0.166  0.00  0.00    +0.032 A 
ATOM     19  C   UNL     1      -2.910  -2.491  -0.176  0.00  0.00    +0.113 A 
ATOM     20  C   UNL     1      -1.891  -3.418  -0.294  0.00  0.00    +0.032 A 
ATOM     21  C   UNL     1      -0.581  -2.995  -0.407  0.00  0.00    +0.047 A 
BRANCH  16  23
ATOM     22  C   UNL     1       1.230   0.189  -0.471  0.00  0.00    +0.277 C 
ATOM     23  O   UNL     1       1.002  -1.222  -0.495  0.00  0.00    -0.495 OA
ENDBRANCH  16  23
ENDBRANCH  13  19
ENDBRANCH   1  13
BRANCH   3  24
ATOM     24  N   UNL     1      -6.138  -4.566  -3.915  0.00  0.00    -0.318 N 
ATOM     25  H   UNL     1      -5.847  -5.395  -3.503  0.00  0.00    +0.148 HD
BRANCH  24  26
ATOM     26  C   UNL     1      -5.754  -4.264  -5.224  0.00  0.00    +0.029 A 
ATOM     27  C   UNL     1      -4.837  -5.072  -5.884  0.00  0.00    +0.024 A 
ATOM     28  C   UNL     1      -4.459  -4.771  -7.178  0.00  0.00    +0.022 A 
ATOM     29  C   UNL     1      -4.993  -3.666  -7.817  0.00  0.00    +0.041 A 
ATOM     30  C   UNL     1      -5.907  -2.859  -7.162  0.00  0.00    +0.022 A 
ATOM     31  C   UNL     1      -6.293  -3.158  -5.870  0.00  0.00    +0.024 A 
ATOM     32 CL   UNL     1      -4.516  -3.290  -9.443  0.00  0.00    -0.084 Cl
ENDBRANCH  24  26
ENDBRANCH   3  24
TORSDOF 5
