REMARK  Name = ZINC35047619
REMARK  6 active torsions:
REMARK  status: ('A' for Active; 'I' for Inactive)
REMARK    1  A    between atoms: C_4  and  C_7
REMARK    2  A    between atoms: C_7  and  C_9
REMARK    3  A    between atoms: C_11  and  C_23
REMARK    4  A    between atoms: C_17  and  C_18
REMARK    5  A    between atoms: C_17  and  O_22
REMARK    6  A    between atoms: C_26  and  C_28
REMARK                            x       y       z     vdW  Elec       q    Type
REMARK                         _______ _______ _______ _____ _____    ______ ____
ROOT
ATOM      1  C   UNL     1       3.716  -2.186  -0.046  0.00  0.00    +0.147 C 
ATOM      2  C   UNL     1       3.623  -2.710   1.391  0.00  0.00    +0.156 C 
ATOM      3  N   UNL     1       4.812  -2.290   2.133  0.00  0.00    -0.289 N 
ATOM      4  C   UNL     1       5.987  -2.094   1.516  0.00  0.00    +0.302 C 
ATOM      5  O   UNL     1       6.947  -1.756   2.182  0.00  0.00    -0.253 OA
ATOM      6  N   UNL     1       6.145  -2.257   0.194  0.00  0.00    -0.264 N 
ATOM      7  C   UNL     1       5.030  -2.676  -0.664  0.00  0.00    +0.243 C 
ATOM      8  H   UNL     1       4.750  -2.150   3.091  0.00  0.00    +0.151 HD
ATOM      9  H   UNL     1       7.015  -2.095  -0.204  0.00  0.00    +0.153 HD
ENDROOT
BRANCH   2  10
ATOM     10  C   UNL     1       2.390  -2.150   2.052  0.00  0.00    +0.127 A 
ATOM     11  C   UNL     1       1.222  -2.801   2.215  0.00  0.00    +0.047 A 
ATOM     12  C   UNL     1       0.346  -1.917   2.876  0.00  0.00    +0.050 A 
ATOM     13  C   UNL     1       1.036  -0.763   3.082  0.00  0.00    +0.135 A 
ATOM     14  O   UNL     1       2.276  -0.921   2.582  0.00  0.00    -0.458 OA
BRANCH  13  15
ATOM     15  C   UNL     1       0.516   0.452   3.745  0.00  0.00    +0.017 A 
ATOM     16  C   UNL     1      -0.792   0.479   4.231  0.00  0.00    +0.012 A 
ATOM     17  C   UNL     1      -1.271   1.616   4.849  0.00  0.00    +0.016 A 
ATOM     18  C   UNL     1      -0.458   2.728   4.986  0.00  0.00    +0.018 A 
ATOM     19  C   UNL     1       0.841   2.706   4.506  0.00  0.00    +0.016 A 
ATOM     20  C   UNL     1       1.333   1.573   3.892  0.00  0.00    +0.012 A 
ATOM     21 BR   UNL     1      -1.123   4.282   5.833  0.00  0.00    -0.050 Br
ENDBRANCH  13  15
ENDBRANCH   2  10
BRANCH   7  22
ATOM     22  C   UNL     1       5.196  -2.071  -2.060  0.00  0.00    +0.436 C 
ATOM     23  F   UNL     1       5.218  -0.675  -1.963  0.00  0.00    -0.166 F 
ATOM     24  F   UNL     1       6.396  -2.518  -2.623  0.00  0.00    -0.166 F 
ATOM     25  F   UNL     1       4.126  -2.466  -2.869  0.00  0.00    -0.166 F 
ENDBRANCH   7  22
BRANCH   1  26
ATOM     26  C   UNL     1       3.691  -0.679  -0.038  0.00  0.00    +0.173 C 
ATOM     27  O   UNL     1       4.731  -0.056  -0.045  0.00  0.00    -0.292 OA
BRANCH  26  31
ATOM     28  C   UNL     1      -0.017   1.380   0.010  0.00  0.00    +0.000 A 
ATOM     29  C   UNL     1       1.168   2.095   0.002  0.00  0.00    +0.001 A 
ATOM     30  C   UNL     1       2.377   1.433  -0.013  0.00  0.00    +0.011 A 
ATOM     31  C   UNL     1       2.405   0.035  -0.021  0.00  0.00    +0.018 A 
ATOM     32  C   UNL     1       1.203  -0.681  -0.013  0.00  0.00    +0.011 A 
ATOM     33  C   UNL     1       0.002  -0.004   0.002  0.00  0.00    +0.001 A 
ENDBRANCH  26  31
ENDBRANCH   1  26
BRANCH   7  34
ATOM     34  O   UNL     1       5.012  -4.101  -0.759  0.00  0.00    -0.364 OA
ATOM     35  H   UNL     1       5.814  -4.481  -1.143  0.00  0.00    +0.212 HD
ENDBRANCH   7  34
TORSDOF 6
