REMARK  Name = ZINC67333097
REMARK  4 active torsions:
REMARK  status: ('A' for Active; 'I' for Inactive)
REMARK    1  A    between atoms: C_3  and  C_8
REMARK    2  A    between atoms: C_11  and  N_13
REMARK    3  A    between atoms: C_14  and  C_16
REMARK    4  A    between atoms: C_19  and  N_26
REMARK                            x       y       z     vdW  Elec       q    Type
REMARK                         _______ _______ _______ _____ _____    ______ ____
ROOT
ATOM      1  N   UNL     1       5.387   3.124  -1.674  0.00  0.00    -0.307 N 
ATOM      2  C   UNL     1       5.824   3.171  -2.948  0.00  0.00    +0.265 C 
ATOM      3  O   UNL     1       5.578   2.255  -3.709  0.00  0.00    -0.268 OA
ATOM      4  H   UNL     1       5.584   3.855  -1.067  0.00  0.00    +0.149 HD
ENDROOT
BRANCH   2   5
ATOM      5  C   UNL     1       6.600   4.332  -3.420  0.00  0.00    +0.155 A 
ATOM      6  C   UNL     1       7.141   4.540  -4.769  0.00  0.00    +0.034 A 
ATOM      7  C   UNL     1       7.135   3.825  -5.963  0.00  0.00    +0.045 A 
ATOM      8  C   UNL     1       7.764   4.343  -7.062  0.00  0.00    +0.127 A 
ATOM      9  C   UNL     1       8.406   5.572  -6.992  0.00  0.00    +0.035 A 
ATOM     10  C   UNL     1       8.423   6.290  -5.830  0.00  0.00    +0.030 A 
ATOM     11  C   UNL     1       7.791   5.787  -4.697  0.00  0.00    +0.067 A 
ATOM     12  N   UNL     1       7.621   6.229  -3.411  0.00  0.00    -0.276 N 
ATOM     13  H   UNL     1       7.966   7.069  -3.071  0.00  0.00    +0.189 HD
ATOM     14  N   UNL     1       6.941   5.390  -2.717  0.00  0.00    -0.168 NA
BRANCH   8  15
ATOM     15  N   UNL     1       7.761   3.586  -8.334  0.00  0.00    +0.056 N 
ATOM     16  O   UNL     1       7.204   2.515  -8.399  0.00  0.00    -0.126 OA
ATOM     17  O   UNL     1       8.316   4.040  -9.308  0.00  0.00    -0.126 OA
ENDBRANCH   8  15
ENDBRANCH   2   5
BRANCH   1  20
ATOM     18  C   UNL     1       3.672   2.186  -0.021  0.00  0.00    +0.041 C 
ATOM     19  C   UNL     1       4.968   1.396   0.169  0.00  0.00    +0.033 C 
ATOM     20  C   UNL     1       4.616   1.970  -1.206  0.00  0.00    +0.081 C 
BRANCH  18  23
ATOM     21  C   UNL     1      -0.017   1.377   0.010  0.00  0.00    +0.003 A 
ATOM     22  C   UNL     1       1.171   2.086   0.002  0.00  0.00    +0.004 A 
ATOM     23  C   UNL     1       2.378   1.413  -0.013  0.00  0.00    -0.040 A 
ATOM     24  C   UNL     1       2.399   0.030  -0.021  0.00  0.00    +0.042 A 
ATOM     25  C   UNL     1       1.211  -0.679  -0.013  0.00  0.00    +0.124 A 
ATOM     26  C   UNL     1       0.002  -0.004   0.002  0.00  0.00    +0.038 A 
ATOM     27  F   UNL     1       1.230  -2.030  -0.022  0.00  0.00    -0.205 F 
ENDBRANCH  18  23
ENDBRANCH   1  20
TORSDOF 4
