REMARK  Name = ZINC63985170
REMARK  6 active torsions:
REMARK  status: ('A' for Active; 'I' for Inactive)
REMARK    1  A    between atoms: C_7  and  C_10
REMARK    2  A    between atoms: C_10  and  C_11
REMARK    3  A    between atoms: C_11  and  C_13
REMARK    4  A    between atoms: C_11  and  N_24
REMARK    5  A    between atoms: C_18  and  C_21
REMARK    6  A    between atoms: C_25  and  O_36
REMARK                            x       y       z     vdW  Elec       q    Type
REMARK                         _______ _______ _______ _____ _____    ______ ____
ROOT
ATOM      1  C   UNL     1       0.457  -3.653  -1.462  0.00  0.00    +0.170 C 
ENDROOT
BRANCH   1   2
ATOM      2  N   UNL     1      -0.238  -2.603  -2.210  0.00  0.00    -0.244 N 
ATOM      3  C   UNL     1       0.394  -2.030  -3.399  0.00  0.00    +0.300 C 
ATOM      4  N   UNL     1       0.027  -0.616  -3.539  0.00  0.00    -0.303 N 
ATOM      5  C   UNL     1      -1.295  -0.242  -3.323  0.00  0.00    +0.042 A 
ATOM      6  C   UNL     1      -1.856   0.852  -3.960  0.00  0.00    +0.024 A 
ATOM      7  C   UNL     1      -3.171   1.191  -3.706  0.00  0.00    +0.002 A 
ATOM      8  C   UNL     1      -3.932   0.446  -2.819  0.00  0.00    +0.001 A 
ATOM      9  C   UNL     1      -3.389  -0.650  -2.179  0.00  0.00    +0.015 A 
ATOM     10  C   UNL     1      -2.066  -1.006  -2.430  0.00  0.00    +0.058 A 
ATOM     11  C   UNL     1      -1.451  -2.185  -1.794  0.00  0.00    +0.252 C 
ATOM     12  O   UNL     1      -2.029  -2.773  -0.901  0.00  0.00    -0.270 OA
ATOM     13  H   UNL     1       0.695   0.046  -3.777  0.00  0.00    +0.150 HD
BRANCH   3  14
ATOM     14  O   UNL     1      -0.042  -2.745  -4.557  0.00  0.00    -0.359 OA
ATOM     15  H   UNL     1       0.337  -2.420  -5.385  0.00  0.00    +0.213 HD
ENDBRANCH   3  14
ENDBRANCH   1   2
BRANCH   1  16
ATOM     16  C   UNL     1      -0.385  -4.904  -1.452  0.00  0.00    +0.237 C 
ATOM     17  O   UNL     1      -1.574  -4.836  -1.679  0.00  0.00    -0.274 OA
ATOM     18  N   UNL     1       0.185  -6.097  -1.193  0.00  0.00    -0.300 N 
ATOM     19  C   UNL     1       1.623  -6.195  -0.910  0.00  0.00    +0.108 C 
ATOM     20  C   UNL     1       2.243  -7.226  -1.859  0.00  0.00    +0.034 C 
ATOM     21  C   UNL     1       1.487  -8.550  -1.731  0.00  0.00    +0.105 C 
ATOM     22  C   UNL     1       0.024  -8.344  -2.131  0.00  0.00    +0.034 C 
ATOM     23  C   UNL     1      -0.622  -7.325  -1.180  0.00  0.00    +0.108 C 
BRANCH  21  24
ATOM     24  C   UNL     1       2.115  -9.576  -2.638  0.00  0.00    +0.359 C 
ATOM     25  O   UNL     1       2.242 -10.728  -2.259  0.00  0.00    -0.246 OA
ATOM     26  O   UNL     1       2.497  -9.255  -3.750  0.00  0.00    -0.246 OA
ENDBRANCH  21  24
ENDBRANCH   1  16
BRANCH   1  27
ATOM     27  C   UNL     1       0.691  -3.186  -0.024  0.00  0.00    +0.065 C 
BRANCH  27  34
ATOM     28  C   UNL     1      -0.016   1.348   0.009  0.00  0.00    +0.001 A 
ATOM     29  C   UNL     1       1.166   2.101   0.002  0.00  0.00    +0.002 A 
ATOM     30  C   UNL     1       2.391   1.535  -0.013  0.00  0.00    +0.026 A 
ATOM     31  C   UNL     1       2.529   0.120  -0.022  0.00  0.00    +0.043 A 
ATOM     32  N   UNL     1       3.587  -0.654  -0.037  0.00  0.00    -0.380 N 
ATOM     33  C   UNL     1       3.143  -2.053  -0.041  0.00  0.00    +0.144 C 
ATOM     34  C   UNL     1       1.631  -2.008  -0.025  0.00  0.00    -0.039 C 
ATOM     35  C   UNL     1       1.295  -0.698  -0.014  0.00  0.00    -0.001 A 
ATOM     36  C   UNL     1       0.002  -0.004   0.002  0.00  0.00    +0.010 A 
ATOM     37  H   UNL     1       4.509  -0.353  -0.045  0.00  0.00    +0.160 HD
ENDBRANCH  27  34
ENDBRANCH   1  27
TORSDOF 6
