REMARK  Name = ZINC29908442
REMARK  10 active torsions:
REMARK  status: ('A' for Active; 'I' for Inactive)
REMARK    1  A    between atoms: C_1  and  C_2
REMARK    2  A    between atoms: C_2  and  C_3
REMARK    3  A    between atoms: C_3  and  C_5
REMARK    4  A    between atoms: C_3  and  N_22
REMARK    5  A    between atoms: C_5  and  N_6
REMARK    6  A    between atoms: C_7  and  C_9
REMARK    7  A    between atoms: C_9  and  C_10
REMARK    8  A    between atoms: C_10  and  N_11
REMARK    9  A    between atoms: N_11  and  S_12
REMARK   10  A    between atoms: S_12  and  C_15
REMARK                            x       y       z     vdW  Elec       q    Type
REMARK                         _______ _______ _______ _____ _____    ______ ____
ROOT
ATOM      1  N   UNL     1      -2.764   5.895  -3.861  0.00  0.00    -0.317 N 
ATOM      2  C   UNL     1      -2.104   5.714  -2.699  0.00  0.00    +0.214 C 
ATOM      3  O   UNL     1      -1.423   6.608  -2.244  0.00  0.00    -0.276 OA
ATOM      4  H   UNL     1      -3.382   5.085  -4.274  0.00  0.00    +0.149 HD
ENDROOT
BRANCH   1   5
ATOM      5  C   UNL     1      -2.656   7.171  -4.573  0.00  0.00    +0.089 C 
BRANCH   5   6
ATOM      6  C   UNL     1      -3.390   7.071  -5.912  0.00  0.00    -0.051 C 
BRANCH   6   7
ATOM      7  N   UNL     1      -2.786   6.006  -6.723  0.00  0.00    +0.385 N 
ATOM      8  C   UNL     1      -1.540   6.468  -7.356  0.00  0.00    -0.073 C 
ATOM      9  C   UNL     1      -0.776   5.247  -7.870  0.00  0.00    +0.017 C 
ATOM     10  C   UNL     1      -1.690   4.378  -8.694  0.00  0.00    -0.048 A 
ATOM     11  C   UNL     1      -1.124   3.429  -9.533  0.00  0.00    +0.004 A 
ATOM     12  C   UNL     1      -1.925   2.610 -10.302  0.00  0.00    +0.000 A 
ATOM     13  C   UNL     1      -3.301   2.735 -10.235  0.00  0.00    +0.000 A 
ATOM     14  C   UNL     1      -3.866   3.679  -9.402  0.00  0.00    +0.002 A 
ATOM     15  C   UNL     1      -3.061   4.505  -8.630  0.00  0.00    -0.061 A 
ATOM     16  C   UNL     1      -3.724   5.525  -7.742  0.00  0.00    -0.042 C 
ATOM     17  H   UNL     1      -2.549   5.169  -6.051  0.00  0.00    -0.081 HD
ENDBRANCH   6   7
BRANCH   6  19
ATOM     18  C   UNL     1      -4.121   8.348  -7.931  0.00  0.00    +0.002 C 
ATOM     19  C   UNL     1      -3.279   8.404  -6.655  0.00  0.00    -0.017 C 
ENDBRANCH   6  19
ENDBRANCH   5   6
ENDBRANCH   1   5
BRANCH   2  20
ATOM     20  C   UNL     1      -2.215   4.402  -1.967  0.00  0.00    +0.112 C 
BRANCH  20  21
ATOM     21  C   UNL     1      -1.377   4.460  -0.688  0.00  0.00    +0.115 C 
BRANCH  21  22
ATOM     22  N   UNL     1      -1.484   3.184   0.024  0.00  0.00    -0.189 NA
ATOM     23  H   UNL     1      -2.366   2.544  -0.123  0.00  0.00    +0.148 HD
BRANCH  22  24
ATOM     24  S   UNL     1      -0.410   2.816   1.230  0.00  0.00    +0.058 S 
ATOM     25  O   UNL     1      -0.787   1.543   1.735  0.00  0.00    -0.153 OA
ATOM     26  O   UNL     1       0.888   3.075   0.711  0.00  0.00    -0.153 OA
BRANCH  24  27
ATOM     27  C   UNL     1      -0.672   3.973   2.532  0.00  0.00    +0.105 A 
ATOM     28  C   UNL     1       0.035   5.161   2.554  0.00  0.00    +0.029 A 
ATOM     29  C   UNL     1      -0.174   6.071   3.572  0.00  0.00    +0.017 A 
ATOM     30  C   UNL     1      -1.083   5.789   4.577  0.00  0.00    +0.018 A 
ATOM     31  C   UNL     1      -1.786   4.598   4.558  0.00  0.00    +0.017 A 
ATOM     32  C   UNL     1      -1.580   3.690   3.535  0.00  0.00    +0.029 A 
ATOM     33 BR   UNL     1      -1.364   7.031   5.974  0.00  0.00    -0.050 Br
ENDBRANCH  24  27
ENDBRANCH  22  24
ENDBRANCH  21  22
ENDBRANCH  20  21
ENDBRANCH   2  20
TORSDOF 9
