REMARK  Name = ZINC09763830
REMARK  8 active torsions:
REMARK  status: ('A' for Active; 'I' for Inactive)
REMARK    1  A    between atoms: C_1  and  O_2
REMARK    2  A    between atoms: O_2  and  C_3
REMARK    3  A    between atoms: C_3  and  C_4
REMARK    4  A    between atoms: C_4  and  C_5
REMARK    5  A    between atoms: C_5  and  N_6
REMARK    6  A    between atoms: C_7  and  C_9
REMARK    7  A    between atoms: C_15  and  C_17
REMARK    8  A    between atoms: N_22  and  C_23
REMARK                            x       y       z     vdW  Elec       q    Type
REMARK                         _______ _______ _______ _____ _____    ______ ____
ROOT
ATOM      1  C   UNL     1       1.833   1.766   0.376  0.00  0.00    +0.078 C 
ATOM      2  C   UNL     1       0.342   1.460   0.531  0.00  0.00    +0.032 C 
ATOM      3  C   UNL     1       0.083  -0.003   0.157  0.00  0.00    +0.109 C 
ATOM      4  N   UNL     1       0.962  -0.860   0.964  0.00  0.00    -0.296 N 
ATOM      5  C   UNL     1       2.408  -0.595   0.958  0.00  0.00    +0.109 C 
ATOM      6  C   UNL     1       2.640   0.875   1.323  0.00  0.00    +0.032 C 
ATOM      7  C   UNL     1       0.453  -1.871   1.695  0.00  0.00    +0.266 C 
ATOM      8  O   UNL     1       1.196  -2.605   2.319  0.00  0.00    -0.268 OA
ENDROOT
BRANCH   7   9
ATOM      9  C   UNL     1      -1.002  -2.088   1.739  0.00  0.00    +0.135 A 
ATOM     10  C   UNL     1      -1.574  -2.767   2.785  0.00  0.00    +0.081 A 
ATOM     11  S   UNL     1      -3.297  -2.718   2.313  0.00  0.00    -0.060 S 
ATOM     12  C   UNL     1      -3.088  -1.817   0.783  0.00  0.00    +0.163 A 
ATOM     13  N   UNL     1      -1.784  -1.632   0.758  0.00  0.00    -0.220 NA
ATOM     14  N   UNL     1      -4.046  -1.420  -0.136  0.00  0.00    -0.293 N 
ATOM     15  H   UNL     1      -3.797  -0.853  -0.882  0.00  0.00    +0.154 HD
BRANCH  14  16
ATOM     16  C   UNL     1      -5.369  -1.836   0.012  0.00  0.00    +0.041 A 
ATOM     17  C   UNL     1      -5.655  -3.051   0.598  0.00  0.00    +0.024 A 
ATOM     18  C   UNL     1      -6.971  -3.473   0.754  0.00  0.00    +0.002 A 
ATOM     19  C   UNL     1      -8.011  -2.706   0.325  0.00  0.00    +0.008 A 
ATOM     20  C   UNL     1      -7.763  -1.464  -0.283  0.00  0.00    -0.016 A 
ATOM     21  C   UNL     1      -6.427  -1.020  -0.443  0.00  0.00    +0.003 A 
ATOM     22  C   UNL     1      -6.180   0.221  -1.051  0.00  0.00    +0.010 A 
ATOM     23  C   UNL     1      -7.226   0.981  -1.479  0.00  0.00    +0.001 A 
ATOM     24  C   UNL     1      -8.540   0.546  -1.322  0.00  0.00    +0.001 A 
ATOM     25  C   UNL     1      -8.816  -0.651  -0.737  0.00  0.00    +0.008 A 
ENDBRANCH  14  16
ENDBRANCH   7   9
BRANCH   1  27
ATOM     26  N   UNL     1       3.337   3.712   0.643  0.00  0.00    -0.315 N 
ATOM     27  C   UNL     1       2.087   3.213   0.711  0.00  0.00    +0.216 C 
ATOM     28  O   UNL     1       1.165   3.929   1.041  0.00  0.00    -0.276 OA
ATOM     29  H   UNL     1       4.074   3.139   0.379  0.00  0.00    +0.149 HD
BRANCH  26  30
ATOM     30  C   UNL     1       3.583   5.119   0.968  0.00  0.00    +0.106 C 
BRANCH  30  31
ATOM     31  C   UNL     1       5.074   5.425   0.813  0.00  0.00    +0.047 C 
BRANCH  31  32
ATOM     32  C   UNL     1       5.331   6.894   1.152  0.00  0.00    +0.161 C 
BRANCH  32  34
ATOM     33  C   UNL     1       7.073   8.534   1.302  0.00  0.00    +0.193 C 
ATOM     34  O   UNL     1       6.724   7.180   1.007  0.00  0.00    -0.383 OA
ENDBRANCH  32  34
ENDBRANCH  31  32
ENDBRANCH  30  31
ENDBRANCH  26  30
ENDBRANCH   1  27
TORSDOF 7
