REMARK  Name = ZINC35636602
REMARK  12 active torsions:
REMARK  status: ('A' for Active; 'I' for Inactive)
REMARK    1  A    between atoms: C_1  and  C_2
REMARK    2  A    between atoms: C_2  and  C_3
REMARK    3  A    between atoms: C_2  and  C_4
REMARK    4  A    between atoms: C_4  and  C_5
REMARK    5  A    between atoms: C_5  and  C_7
REMARK    6  A    between atoms: C_5  and  N_14
REMARK    7  A    between atoms: N_9  and  C_10
REMARK    8  A    between atoms: C_10  and  C_11
REMARK    9  A    between atoms: C_11  and  C_12
REMARK   10  A    between atoms: C_11  and  C_13
REMARK   11  A    between atoms: C_20  and  C_27
REMARK   12  A    between atoms: N_25  and  C_26
REMARK                            x       y       z     vdW  Elec       q    Type
REMARK                         _______ _______ _______ _____ _____    ______ ____
ROOT
ATOM      1  N   UNL     1      -0.926  -2.551   1.294  0.00  0.00    -0.281 N 
ATOM      2  C   UNL     1       0.205  -3.466   1.507  0.00  0.00    +0.160 C 
ATOM      3  C   UNL     1       0.283  -3.645   3.007  0.00  0.00    +0.042 C 
ATOM      4  C   UNL     1      -0.710  -2.897   3.530  0.00  0.00    +0.058 C 
ATOM      5  C   UNL     1      -1.424  -2.243   2.505  0.00  0.00    +0.247 C 
ATOM      6  O   UNL     1      -2.370  -1.500   2.692  0.00  0.00    -0.270 OA
ATOM      7  C   UNL     1      -0.868  -2.891   5.037  0.00  0.00    +0.142 C 
ATOM      8  N   UNL     1       0.083  -3.707   5.810  0.00  0.00    -0.288 N 
ATOM      9  C   UNL     1       1.025  -4.402   5.142  0.00  0.00    +0.307 C 
ATOM     10  O   UNL     1       1.814  -5.079   5.771  0.00  0.00    -0.252 OA
ATOM     11  N   UNL     1       1.118  -4.372   3.806  0.00  0.00    -0.260 N 
ATOM     12  C   UNL     1       2.174  -5.161   3.168  0.00  0.00    +0.139 C 
ATOM     13  H   UNL     1       0.034  -3.743   6.779  0.00  0.00    +0.151 HD
ENDROOT
BRANCH   7  14
ATOM     14  C   UNL     1      -0.747  -1.465   5.511  0.00  0.00    -0.016 A 
ATOM     15  C   UNL     1      -1.878  -0.727   5.809  0.00  0.00    +0.013 A 
ATOM     16  C   UNL     1      -1.734   0.552   6.233  0.00  0.00    +0.045 A 
ATOM     17  S   UNL     1       0.040   0.750   6.219  0.00  0.00    -0.105 S 
ATOM     18  C   UNL     1       0.471  -0.889   5.655  0.00  0.00    +0.051 A 
ENDBRANCH   7  14
BRANCH   1  19
ATOM     19  C   UNL     1      -1.415  -2.060   0.003  0.00  0.00    +0.163 C 
BRANCH  19  20
ATOM     20  C   UNL     1      -2.812  -2.575  -0.234  0.00  0.00    +0.234 C 
ATOM     21  O   UNL     1      -3.345  -3.283   0.594  0.00  0.00    -0.274 OA
ATOM     22  N   UNL     1      -3.467  -2.250  -1.366  0.00  0.00    -0.314 N 
ATOM     23  H   UNL     1      -3.040  -1.684  -2.028  0.00  0.00    +0.149 HD
BRANCH  22  24
ATOM     24  C   UNL     1      -4.824  -2.751  -1.596  0.00  0.00    +0.107 C 
BRANCH  24  25
ATOM     25  C   UNL     1      -5.335  -2.239  -2.944  0.00  0.00    -0.000 C 
ATOM     26  C   UNL     1      -6.701  -2.862  -3.242  0.00  0.00    +0.009 C 
ATOM     27  C   UNL     1      -5.470  -0.716  -2.893  0.00  0.00    +0.009 C 
ENDBRANCH  24  25
ENDBRANCH  22  24
ENDBRANCH  19  20
BRANCH  19  28
ATOM     28  C   UNL     1      -1.431  -0.530   0.012  0.00  0.00    +0.035 C 
BRANCH  28  30
ATOM     29  C   UNL     1       0.801  -0.378  -1.100  0.00  0.00    +0.007 C 
ATOM     30  C   UNL     1      -0.001  -0.006   0.149  0.00  0.00    -0.015 C 
ATOM     31  C   UNL     1      -0.028   1.516   0.304  0.00  0.00    +0.007 C 
ENDBRANCH  28  30
ENDBRANCH  19  28
ENDBRANCH   1  19
TORSDOF 7
