REMARK  Name = ZINC63526766
REMARK  9 active torsions:
REMARK  status: ('A' for Active; 'I' for Inactive)
REMARK    1  A    between atoms: C_1  and  C_2
REMARK    2  A    between atoms: C_4  and  S_16
REMARK    3  A    between atoms: C_7  and  C_8
REMARK    4  A    between atoms: C_8  and  C_9
REMARK    5  A    between atoms: C_12  and  O_15
REMARK    6  A    between atoms: S_16  and  C_17
REMARK    7  A    between atoms: C_17  and  C_18
REMARK    8  A    between atoms: N_20  and  C_21
REMARK    9  A    between atoms: C_24  and  C_27
REMARK                            x       y       z     vdW  Elec       q    Type
REMARK                         _______ _______ _______ _____ _____    ______ ____
ROOT
ATOM      1  C   UNL     1      -0.013   1.086   0.008  0.00  0.00    +0.065 C 
ATOM      2  C   UNL     1      -0.742   1.585  -1.213  0.00  0.00    +0.034 A 
ATOM      3  N   UNL     1      -2.060   1.830  -1.296  0.00  0.00    -0.338 N 
ATOM      4  C   UNL     1      -2.347   2.253  -2.506  0.00  0.00    +0.145 A 
ATOM      5  H   UNL     1      -1.109   2.559  -4.160  0.00  0.00    +0.168 HD
ATOM      6  N   UNL     1      -1.197   2.287  -3.233  0.00  0.00    -0.338 N 
ATOM      7  C   UNL     1      -0.183   1.867  -2.402  0.00  0.00    +0.041 A 
ATOM      8  H   UNL     1      -2.699   1.713  -0.576  0.00  0.00    +0.167 HD
ENDROOT
BRANCH   7   9
ATOM      9  C   UNL     1       1.276   1.742  -2.760  0.00  0.00    +0.090 C 
BRANCH   9  10
ATOM     10  C   UNL     1       1.571   0.326  -3.182  0.00  0.00    -0.041 A 
ATOM     11  C   UNL     1       1.954  -0.610  -2.239  0.00  0.00    +0.007 A 
ATOM     12  C   UNL     1       2.225  -1.909  -2.623  0.00  0.00    +0.045 A 
ATOM     13  C   UNL     1       2.112  -2.274  -3.957  0.00  0.00    +0.117 A 
ATOM     14  C   UNL     1       1.726  -1.334  -4.901  0.00  0.00    +0.045 A 
ATOM     15  C   UNL     1       1.451  -0.037  -4.511  0.00  0.00    +0.007 A 
BRANCH  13  16
ATOM     16  O   UNL     1       2.379  -3.551  -4.338  0.00  0.00    -0.507 OA
ATOM     17  H   UNL     1       1.609  -4.137  -4.317  0.00  0.00    +0.292 HD
ENDBRANCH  13  16
ENDBRANCH   9  10
ENDBRANCH   7   9
BRANCH   4  18
ATOM     18  S   UNL     1      -3.949   2.700  -3.088  0.00  0.00    -0.080 S 
BRANCH  18  19
ATOM     19  C   UNL     1      -4.746   3.456  -1.644  0.00  0.00    +0.173 C 
BRANCH  19  20
ATOM     20  C   UNL     1      -6.142   3.889  -2.010  0.00  0.00    +0.225 C 
ATOM     21  O   UNL     1      -6.558   3.706  -3.134  0.00  0.00    -0.275 OA
ATOM     22  N   UNL     1      -6.928   4.480  -1.088  0.00  0.00    -0.285 N 
ATOM     23  H   UNL     1      -6.594   4.626  -0.189  0.00  0.00    +0.152 HD
BRANCH  22  24
ATOM     24  C   UNL     1      -8.285   4.901  -1.444  0.00  0.00    +0.251 C 
ATOM     25  N   UNL     1      -8.870   5.758  -0.393  0.00  0.00    -0.254 NA
ATOM     26  C   UNL     1      -9.735   5.287   0.409  0.00  0.00    +0.056 C 
ATOM     27  C   UNL     1     -10.148   3.831   0.257  0.00  0.00    +0.128 C 
ATOM     28  S   UNL     1      -9.454   3.472  -1.418  0.00  0.00    -0.109 S 
BRANCH  26  29
ATOM     29  C   UNL     1     -10.325   6.134   1.465  0.00  0.00    -0.003 A 
ATOM     30  C   UNL     1     -11.270   5.601   2.344  0.00  0.00    +0.010 A 
ATOM     31  C   UNL     1     -11.817   6.398   3.328  0.00  0.00    +0.001 A 
ATOM     32  C   UNL     1     -11.432   7.722   3.445  0.00  0.00    +0.000 A 
ATOM     33  C   UNL     1     -10.496   8.256   2.577  0.00  0.00    +0.001 A 
ATOM     34  C   UNL     1      -9.936   7.469   1.592  0.00  0.00    +0.010 A 
ENDBRANCH  26  29
ENDBRANCH  22  24
ENDBRANCH  19  20
ENDBRANCH  18  19
ENDBRANCH   4  18
TORSDOF 8
