REMARK  Name = ZINC04814148
REMARK  3 active torsions:
REMARK  status: ('A' for Active; 'I' for Inactive)
REMARK    1  A    between atoms: C_1  and  C_2
REMARK    2  A    between atoms: C_2  and  C_30
REMARK    3  A    between atoms: C_6  and  C_20
REMARK                            x       y       z     vdW  Elec       q    Type
REMARK                         _______ _______ _______ _____ _____    ______ ____
ROOT
ATOM      1  C   UNL     1       0.786  12.770   1.103  0.00  0.00    +0.011 C 
ATOM      2  C   UNL     1       0.522  12.763  -0.404  0.00  0.00    -0.023 C 
ATOM      3  C   UNL     1      -0.568  11.738  -0.730  0.00  0.00    +0.058 C 
ATOM      4  C   UNL     1      -0.100  10.361  -0.336  0.00  0.00    +0.020 C 
ATOM      5  C   UNL     1       1.210  10.032  -0.364  0.00  0.00    +0.039 C 
ATOM      6  C   UNL     1       1.655   8.649   0.036  0.00  0.00    +0.147 C 
ATOM      7  C   UNL     1      -0.694   8.092   0.045  0.00  0.00    +0.164 C 
ATOM      8  N   UNL     1      -1.025   9.429   0.053  0.00  0.00    -0.292 N 
ATOM      9  N   UNL     1      -1.696   7.146   0.050  0.00  0.00    -0.268 N 
ATOM     10  C   UNL     1      -1.377   5.799   0.043  0.00  0.00    +0.165 A 
ATOM     11  N   UNL     1      -0.191   5.234   0.029  0.00  0.00    -0.225 NA
ATOM     12  C   UNL     1      -0.026   3.894   0.022  0.00  0.00    +0.080 A 
ATOM     13  C   UNL     1       1.184   3.163   0.007  0.00  0.00    +0.029 A 
ATOM     14  C   UNL     1       1.175   1.793   0.001  0.00  0.00    +0.002 A 
ATOM     15  C   UNL     1      -0.013   1.076   0.008  0.00  0.00    +0.001 A 
ATOM     16  C   UNL     1      -1.215   1.758   0.017  0.00  0.00    +0.017 A 
ATOM     17  C   UNL     1      -1.216   3.131   0.030  0.00  0.00    +0.041 A 
ATOM     18  S   UNL     1      -2.472   4.387   0.047  0.00  0.00    -0.052 S 
ATOM     19  C   UNL     1       2.183  10.965  -0.759  0.00  0.00    +0.163 C 
ATOM     20  O   UNL     1       3.352  10.634  -0.787  0.00  0.00    -0.292 OA
ATOM     21  C   UNL     1       1.801  12.367  -1.149  0.00  0.00    +0.086 C 
ATOM     22  C   UNL     1       0.074  14.155  -0.854  0.00  0.00    +0.011 C 
ATOM     23  H   UNL     1      -1.910   9.709   0.333  0.00  0.00    +0.154 HD
ATOM     24  H   UNL     1      -2.626   7.423   0.059  0.00  0.00    +0.157 HD
ATOM     25  N   UNL     1       0.557   7.622   0.038  0.00  0.00    -0.350 N 
ATOM     26  H   UNL     1       0.758   6.615   0.034  0.00  0.00    +0.163 HD
ENDROOT
BRANCH   6  27
ATOM     27  C   UNL     1       2.251   8.703   1.419  0.00  0.00    -0.020 A 
ATOM     28  C   UNL     1       1.424   8.731   2.526  0.00  0.00    +0.009 A 
ATOM     29  C   UNL     1       1.969   8.775   3.796  0.00  0.00    +0.039 A 
ATOM     30  C   UNL     1       3.344   8.803   3.957  0.00  0.00    +0.123 A 
ATOM     31  C   UNL     1       4.171   8.781   2.847  0.00  0.00    +0.039 A 
ATOM     32  C   UNL     1       3.624   8.731   1.579  0.00  0.00    +0.009 A 
ATOM     33  F   UNL     1       3.877   8.853   5.197  0.00  0.00    -0.205 F 
ENDBRANCH   6  27
TORSDOF 1
