REMARK  Name = ZINC60506599
REMARK  9 active torsions:
REMARK  status: ('A' for Active; 'I' for Inactive)
REMARK    1  A    between atoms: C_1  and  C_2
REMARK    2  A    between atoms: C_4  and  N_25
REMARK    3  A    between atoms: C_5  and  S_9
REMARK    4  A    between atoms: C_7  and  C_8
REMARK    5  A    between atoms: S_9  and  N_12
REMARK    6  A    between atoms: N_12  and  C_13
REMARK    7  A    between atoms: C_13  and  C_14
REMARK    8  A    between atoms: N_16  and  C_17
REMARK    9  A    between atoms: C_21  and  C_23
REMARK                            x       y       z     vdW  Elec       q    Type
REMARK                         _______ _______ _______ _____ _____    ______ ____
ROOT
ATOM      1  N   UNL     1      -1.617  -5.017  -1.405  0.00  0.00    -0.181 NA
ATOM      2  H   UNL     1      -2.411  -5.388  -0.990  0.00  0.00    +0.149 HD
ENDROOT
BRANCH   1   3
ATOM      3  S   UNL     1      -0.393  -4.418  -0.464  0.00  0.00    +0.061 S 
ATOM      4  O   UNL     1       0.802  -5.053  -0.900  0.00  0.00    -0.153 OA
ATOM      5  O   UNL     1      -0.845  -4.486   0.881  0.00  0.00    -0.153 OA
BRANCH   3  10
ATOM      6  C   UNL     1       0.181   1.439  -1.794  0.00  0.00    +0.044 C 
ATOM      7  C   UNL     1       0.037  -0.024  -1.462  0.00  0.00    -0.045 A 
ATOM      8  C   UNL     1      -1.139  -0.495  -0.910  0.00  0.00    +0.038 A 
ATOM      9  C   UNL     1      -1.270  -1.837  -0.606  0.00  0.00    +0.153 A 
ATOM     10  C   UNL     1      -0.226  -2.708  -0.854  0.00  0.00    +0.136 A 
ATOM     11  C   UNL     1       0.950  -2.237  -1.406  0.00  0.00    +0.034 A 
ATOM     12  C   UNL     1       1.080  -0.895  -1.715  0.00  0.00    -0.046 A 
ATOM     13  C   UNL     1       2.361  -0.382  -2.322  0.00  0.00    +0.044 C 
BRANCH   9  14
ATOM     14  N   UNL     1      -2.530  -2.342  -0.014  0.00  0.00    +0.058 N 
ATOM     15  O   UNL     1      -3.396  -1.566   0.318  0.00  0.00    -0.126 OA
ATOM     16  O   UNL     1      -2.693  -3.530   0.138  0.00  0.00    -0.126 OA
ENDBRANCH   9  14
ENDBRANCH   3  10
ENDBRANCH   1   3
BRANCH   1  17
ATOM     17  C   UNL     1      -1.500  -4.987  -2.865  0.00  0.00    +0.201 C 
BRANCH  17  18
ATOM     18  C   UNL     1      -2.512  -5.926  -3.470  0.00  0.00    +0.233 C 
ATOM     19  O   UNL     1      -3.258  -6.558  -2.752  0.00  0.00    -0.274 OA
ATOM     20  N   UNL     1      -2.589  -6.064  -4.808  0.00  0.00    -0.284 N 
ATOM     21  H   UNL     1      -1.950  -5.610  -5.380  0.00  0.00    +0.155 HD
BRANCH  20  22
ATOM     22  C   UNL     1      -3.590  -6.861  -5.373  0.00  0.00    +0.035 A 
ATOM     23  C   UNL     1      -4.160  -6.503  -6.589  0.00  0.00    +0.023 A 
ATOM     24  C   UNL     1      -5.150  -7.288  -7.152  0.00  0.00    +0.003 A 
ATOM     25  C   UNL     1      -5.577  -8.432  -6.510  0.00  0.00    +0.017 A 
ATOM     26  C   UNL     1      -5.011  -8.800  -5.289  0.00  0.00    +0.026 A 
ATOM     27  C   UNL     1      -4.009  -8.012  -4.724  0.00  0.00    +0.040 A 
BRANCH  26  28
ATOM     28  C   UNL     1      -5.453  -9.988  -4.620  0.00  0.00    -0.070 C 
ATOM     29  C   UNL     1      -5.815 -10.961  -4.073  0.00  0.00    +0.009 C 
ENDBRANCH  26  28
ENDBRANCH  20  22
ENDBRANCH  17  18
ENDBRANCH   1  17
TORSDOF 7
