REMARK  Name = ZINC10000743
REMARK  9 active torsions:
REMARK  status: ('A' for Active; 'I' for Inactive)
REMARK    1  A    between atoms: C_1  and  C_2
REMARK    2  A    between atoms: C_5  and  C_8
REMARK    3  A    between atoms: N_10  and  C_11
REMARK    4  A    between atoms: C_11  and  C_13
REMARK    5  A    between atoms: C_11  and  C_16
REMARK    6  A    between atoms: C_13  and  C_14
REMARK    7  A    between atoms: C_13  and  C_15
REMARK    8  A    between atoms: N_18  and  N_19
REMARK    9  A    between atoms: C_20  and  C_21
REMARK                            x       y       z     vdW  Elec       q    Type
REMARK                         _______ _______ _______ _____ _____    ______ ____
ROOT
ATOM      1  C   UNL     1       7.330   1.032   0.070  0.00  0.00    +0.163 C 
ENDROOT
BRANCH   1   4
ATOM      2  C   UNL     1       9.587   1.671   0.727  0.00  0.00    +0.245 C 
ATOM      3  O   UNL     1       9.757   0.540   1.138  0.00  0.00    -0.270 OA
ATOM      4  N   UNL     1       8.408   2.018   0.175  0.00  0.00    -0.300 N 
ATOM      5  H   UNL     1       8.272   2.921  -0.152  0.00  0.00    +0.150 HD
BRANCH   2  10
ATOM      6  C   UNL     1      13.822   5.546   1.138  0.00  0.00    +0.044 C 
ATOM      7  C   UNL     1      12.713   4.531   1.030  0.00  0.00    -0.050 A 
ATOM      8  C   UNL     1      12.909   3.244   1.500  0.00  0.00    +0.004 A 
ATOM      9  C   UNL     1      11.898   2.311   1.404  0.00  0.00    +0.013 A 
ATOM     10  C   UNL     1      10.675   2.667   0.833  0.00  0.00    +0.037 A 
ATOM     11  C   UNL     1      10.486   3.965   0.357  0.00  0.00    +0.013 A 
ATOM     12  C   UNL     1      11.503   4.891   0.463  0.00  0.00    +0.004 A 
ENDBRANCH   2  10
ENDBRANCH   1   4
BRANCH   1  13
ATOM     13  C   UNL     1       6.002   1.742   0.018  0.00  0.00    +0.253 C 
ATOM     14  O   UNL     1       5.929   2.859  -0.450  0.00  0.00    -0.272 OA
ATOM     15  N   UNL     1       4.895   1.137   0.493  0.00  0.00    -0.205 N 
ATOM     16  H   UNL     1       4.938   0.218   0.800  0.00  0.00    +0.177 HD
BRANCH  15  17
ATOM     17  N   UNL     1       3.681   1.836   0.543  0.00  0.00    -0.188 NA
ATOM     18  C   UNL     1       2.616   1.253   1.000  0.00  0.00    +0.139 C 
BRANCH  18  19
ATOM     19  C   UNL     1       1.339   1.988   1.052  0.00  0.00    +0.014 A 
ATOM     20  C   UNL     1       0.189   1.364   1.543  0.00  0.00    +0.011 A 
ATOM     21  C   UNL     1      -1.004   2.055   1.584  0.00  0.00    +0.002 A 
ATOM     22  C   UNL     1      -1.063   3.368   1.150  0.00  0.00    +0.021 A 
ATOM     23  C   UNL     1       0.071   3.995   0.662  0.00  0.00    +0.060 A 
ATOM     24  C   UNL     1       1.272   3.313   0.610  0.00  0.00    +0.068 A 
ATOM     25 CL   UNL     1       2.694   4.099  -0.002  0.00  0.00    -0.081 Cl
ATOM     26 CL   UNL     1      -0.016   5.639   0.113  0.00  0.00    -0.082 Cl
ENDBRANCH  18  19
ENDBRANCH  15  17
ENDBRANCH   1  13
BRANCH   1  27
ATOM     27  C   UNL     1       7.516   0.206  -1.204  0.00  0.00    +0.012 C 
ATOM     28  C   UNL     1       8.818  -0.592  -1.109  0.00  0.00    +0.009 C 
ATOM     29  C   UNL     1       6.338  -0.757  -1.365  0.00  0.00    +0.009 C 
ENDBRANCH   1  27
TORSDOF 6
