REMARK  Name = ZINC38980281
REMARK  6 active torsions:
REMARK  status: ('A' for Active; 'I' for Inactive)
REMARK    1  A    between atoms: C_1  and  C_2
REMARK    2  A    between atoms: C_5  and  S_9
REMARK    3  A    between atoms: C_7  and  C_8
REMARK    4  A    between atoms: S_9  and  N_12
REMARK    5  A    between atoms: C_14  and  N_24
REMARK    6  A    between atoms: N_24  and  C_25
REMARK                            x       y       z     vdW  Elec       q    Type
REMARK                         _______ _______ _______ _____ _____    ______ ____
ROOT
ATOM      1  N   UNL     1       1.500  -5.144  -0.237  0.00  0.00    -0.110 NA
ATOM      2  C   UNL     1       1.912  -6.374  -0.143  0.00  0.00    +0.192 C 
ATOM      3  C   UNL     1       3.389  -6.683  -0.043  0.00  0.00    +0.237 C 
ATOM      4  N   UNL     1       3.790  -8.094   0.061  0.00  0.00    -0.359 N 
ATOM      5  C   UNL     1       2.859  -9.007   0.063  0.00  0.00    +0.063 A 
ATOM      6  C   UNL     1       3.208 -10.432   0.166  0.00  0.00    +0.027 A 
ATOM      7  C   UNL     1       2.215 -11.349   0.165  0.00  0.00    +0.002 A 
ATOM      8  C   UNL     1       0.864 -10.975   0.069  0.00  0.00    +0.002 A 
ATOM      9  C   UNL     1       0.468  -9.688  -0.028  0.00  0.00    +0.030 A 
ATOM     10  C   UNL     1       1.425  -8.642  -0.037  0.00  0.00    +0.089 A 
ATOM     11  N   UNL     1       1.032  -7.388  -0.127  0.00  0.00    -0.226 NA
ATOM     12  H   UNL     1       4.726  -8.340   0.127  0.00  0.00    +0.162 HD
ENDROOT
BRANCH   1  13
ATOM     13  S   UNL     1      -0.121  -4.820  -0.338  0.00  0.00    +0.100 S 
ATOM     14  O   UNL     1      -0.691  -5.205   0.905  0.00  0.00    -0.146 OA
ATOM     15  O   UNL     1      -0.565  -5.353  -1.578  0.00  0.00    -0.146 OA
BRANCH  13  20
ATOM     16  C   UNL     1      -0.723   1.171  -0.725  0.00  0.00    +0.044 C 
ATOM     17  C   UNL     1      -0.572  -0.325  -0.628  0.00  0.00    -0.047 A 
ATOM     18  C   UNL     1      -0.442  -1.082  -1.778  0.00  0.00    +0.005 A 
ATOM     19  C   UNL     1      -0.304  -2.454  -1.689  0.00  0.00    +0.029 A 
ATOM     20  C   UNL     1      -0.295  -3.070  -0.451  0.00  0.00    +0.113 A 
ATOM     21  C   UNL     1      -0.425  -2.313   0.698  0.00  0.00    +0.032 A 
ATOM     22  C   UNL     1      -0.559  -0.940   0.610  0.00  0.00    -0.046 A 
ATOM     23  C   UNL     1      -0.695  -0.114   1.863  0.00  0.00    +0.044 C 
ENDBRANCH  13  20
ENDBRANCH   1  13
BRANCH   3  24
ATOM     24  N   UNL     1       4.044  -6.119  -1.226  0.00  0.00    -0.317 N 
ATOM     25  H   UNL     1       3.640  -6.224  -2.101  0.00  0.00    +0.148 HD
BRANCH  24  26
ATOM     26  C   UNL     1       5.252  -5.429  -1.093  0.00  0.00    +0.043 A 
ATOM     27  C   UNL     1       5.898  -5.386   0.136  0.00  0.00    +0.024 A 
ATOM     28  C   UNL     1       7.091  -4.704   0.264  0.00  0.00    +0.002 A 
ATOM     29  C   UNL     1       7.645  -4.063  -0.830  0.00  0.00    +0.001 A 
ATOM     30  C   UNL     1       7.005  -4.104  -2.056  0.00  0.00    +0.017 A 
ATOM     31  C   UNL     1       5.813  -4.789  -2.192  0.00  0.00    +0.039 A 
ATOM     32 BR   UNL     1       4.943  -4.850  -3.870  0.00  0.00    -0.048 Br
ENDBRANCH  24  26
ENDBRANCH   3  24
TORSDOF 4
