REMARK  Name = ZINC39698720
REMARK  8 active torsions:
REMARK  status: ('A' for Active; 'I' for Inactive)
REMARK    1  A    between atoms: C_1  and  C_2
REMARK    2  A    between atoms: C_2  and  N_3
REMARK    3  A    between atoms: N_3  and  C_4
REMARK    4  A    between atoms: N_3  and  C_6
REMARK    5  A    between atoms: C_4  and  C_5
REMARK    6  A    between atoms: C_6  and  C_7
REMARK    7  A    between atoms: N_9  and  C_10
REMARK    8  A    between atoms: C_12  and  C_23
REMARK                            x       y       z     vdW  Elec       q    Type
REMARK                         _______ _______ _______ _____ _____    ______ ____
ROOT
ATOM      1  C   UNL     1       2.034  -3.665   4.423  0.00  0.00    +0.191 C 
ATOM      2  C   UNL     1       2.689  -5.021   4.239  0.00  0.00    -0.002 C 
ATOM      3  C   UNL     1       2.229  -6.063   5.050  0.00  0.00    +0.003 A 
ATOM      4  C   UNL     1       2.783  -7.356   4.944  0.00  0.00    +0.025 A 
ATOM      5  C   UNL     1       2.317  -8.352   5.746  0.00  0.00    +0.019 A 
ATOM      6  C   UNL     1       1.302  -8.121   6.672  0.00  0.00    +0.017 A 
ATOM      7  C   UNL     1       0.729  -6.895   6.819  0.00  0.00    +0.025 A 
ATOM      8  C   UNL     1       1.160  -5.818   6.024  0.00  0.00    +0.041 A 
ATOM      9  N   UNL     1       0.596  -4.615   6.170  0.00  0.00    -0.283 N 
ATOM     10  C   UNL     1       0.944  -3.557   5.465  0.00  0.00    +0.242 C 
ATOM     11  O   UNL     1       0.387  -2.492   5.652  0.00  0.00    -0.273 OA
ATOM     12 BR   UNL     1       3.062 -10.084   5.600  0.00  0.00    -0.050 Br
ATOM     13  H   UNL     1      -0.107  -4.514   6.831  0.00  0.00    +0.155 HD
ENDROOT
BRANCH   2  14
ATOM     14  C   UNL     1       3.720  -5.223   3.287  0.00  0.00    -0.019 A 
ATOM     15  C   UNL     1       3.516  -6.085   2.196  0.00  0.00    +0.008 A 
ATOM     16  C   UNL     1       4.524  -6.274   1.277  0.00  0.00    +0.001 A 
ATOM     17  C   UNL     1       5.735  -5.617   1.425  0.00  0.00    +0.000 A 
ATOM     18  C   UNL     1       5.946  -4.765   2.497  0.00  0.00    +0.001 A 
ATOM     19  C   UNL     1       4.949  -4.558   3.424  0.00  0.00    +0.008 A 
ENDBRANCH   2  14
BRANCH   1  22
ATOM     20  C   UNL     1       1.355  -1.953   2.828  0.00  0.00    +0.197 C 
ATOM     21  O   UNL     1       1.724  -1.111   3.619  0.00  0.00    -0.278 OA
ATOM     22  N   UNL     1       1.467  -3.261   3.134  0.00  0.00    -0.302 N 
ATOM     23  H   UNL     1       1.172  -3.934   2.502  0.00  0.00    +0.150 HD
BRANCH  20  24
ATOM     24  C   UNL     1       0.771  -1.538   1.502  0.00  0.00    +0.019 C 
BRANCH  24  25
ATOM     25  N   UNL     1       0.886  -0.081   1.352  0.00  0.00    +0.385 N 
ATOM     26  H   UNL     1       0.481   0.373   2.157  0.00  0.00    -0.081 HD
BRANCH  25  28
ATOM     27  C   UNL     1       2.431   1.814   1.210  0.00  0.00    -0.017 C 
ATOM     28  C   UNL     1       2.303   0.290   1.241  0.00  0.00    -0.082 C 
ENDBRANCH  25  28
BRANCH  25  29
ATOM     29  C   UNL     1       0.173   0.344   0.140  0.00  0.00    -0.082 C 
ATOM     30  C   UNL     1      -1.324   0.073   0.307  0.00  0.00    -0.017 C 
ENDBRANCH  25  29
ENDBRANCH  24  25
ENDBRANCH  20  24
ENDBRANCH   1  22
TORSDOF 6
