REMARK  Name = ZINC12132392
REMARK  8 active torsions:
REMARK  status: ('A' for Active; 'I' for Inactive)
REMARK    1  A    between atoms: C_1  and  C_2
REMARK    2  A    between atoms: C_2  and  C_3
REMARK    3  A    between atoms: C_2  and  C_4
REMARK    4  A    between atoms: C_4  and  C_6
REMARK    5  A    between atoms: C_4  and  N_28
REMARK    6  A    between atoms: C_15  and  C_16
REMARK    7  A    between atoms: C_15  and  N_62
REMARK    8  A    between atoms: C_29  and  C_31
REMARK                            x       y       z     vdW  Elec       q    Type
REMARK                         _______ _______ _______ _____ _____    ______ ____
ROOT
ATOM      1  C   UNL     1       2.033   0.742  -0.008  0.00  0.00    +0.154 A 
ATOM      2  N   UNL     1       1.192   1.744   0.000  0.00  0.00    -0.132 NA
ATOM      3  N   UNL     1      -0.016   1.297   0.009  0.00  0.00    -0.134 NA
ATOM      4  C   UNL     1       0.002  -0.004   0.002  0.00  0.00    +0.132 A 
ATOM      5  N   UNL     1       1.301  -0.392   0.005  0.00  0.00    -0.315 N 
ATOM      6  C   UNL     1       1.788  -1.771   0.035  0.00  0.00    +0.106 C 
ATOM      7  C   UNL     1       0.746  -2.686  -0.616  0.00  0.00    -0.056 C 
ATOM      8  C   UNL     1      -0.950  -2.050   1.010  0.00  0.00    -0.071 C 
ATOM      9  C   UNL     1      -1.177  -0.942  -0.023  0.00  0.00    +0.058 C 
ATOM     10  N   UNL     1      -0.191  -3.176   0.420  0.00  0.00    +0.384 N 
ATOM     11  H   UNL     1       0.348  -3.636   1.163  0.00  0.00    -0.081 HD
ENDROOT
BRANCH   1  12
ATOM     12  C   UNL     1       3.537   0.837  -0.028  0.00  0.00    +0.144 C 
BRANCH  12  13
ATOM     13  N   UNL     1       3.950   1.839  -1.013  0.00  0.00    -0.301 N 
ATOM     14  C   UNL     1       5.172   1.765  -1.577  0.00  0.00    +0.248 C 
ATOM     15  O   UNL     1       5.931   0.866  -1.269  0.00  0.00    -0.270 OA
ATOM     16  H   UNL     1       3.345   2.556  -1.259  0.00  0.00    +0.150 HD
BRANCH  14  17
ATOM     17  C   UNL     1       5.588   2.773  -2.569  0.00  0.00    +0.074 A 
ATOM     18  C   UNL     1       6.876   2.848  -3.274  0.00  0.00    +0.054 A 
ATOM     19  C   UNL     1       6.798   3.923  -4.072  0.00  0.00    +0.195 A 
ATOM     20  O   UNL     1       5.598   4.504  -3.911  0.00  0.00    -0.470 OA
ATOM     21  C   UNL     1       4.861   3.836  -3.020  0.00  0.00    +0.207 A 
ENDBRANCH  14  17
ENDBRANCH  12  13
BRANCH  12  23
ATOM     22  C   UNL     1       3.354   2.543   1.788  0.00  0.00    +0.009 C 
ATOM     23  C   UNL     1       4.041   1.246   1.358  0.00  0.00    +0.011 C 
ATOM     24  C   UNL     1       3.718   0.140   2.365  0.00  0.00    +0.009 C 
ENDBRANCH  12  23
ENDBRANCH   1  12
BRANCH  10  25
ATOM     25  C   UNL     1      -1.124  -4.154  -0.167  0.00  0.00    -0.037 C 
BRANCH  25  26
ATOM     26  C   UNL     1      -1.921  -4.787   0.944  0.00  0.00    +0.001 A 
ATOM     27  C   UNL     1      -3.149  -4.303   1.256  0.00  0.00    +0.017 A 
ATOM     28  C   UNL     1      -3.900  -4.944   2.337  0.00  0.00    -0.001 A 
ATOM     29  C   UNL     1      -5.173  -4.493   2.700  0.00  0.00    +0.010 A 
ATOM     30  C   UNL     1      -5.845  -5.109   3.717  0.00  0.00    +0.001 A 
ATOM     31  C   UNL     1      -5.276  -6.179   4.394  0.00  0.00    +0.002 A 
ATOM     32  C   UNL     1      -4.023  -6.641   4.053  0.00  0.00    +0.026 A 
ATOM     33  C   UNL     1      -3.319  -6.029   3.020  0.00  0.00    +0.049 A 
ATOM     34  N   UNL     1      -2.064  -6.470   2.659  0.00  0.00    -0.322 N 
ATOM     35  H   UNL     1      -1.666  -7.217   3.131  0.00  0.00    +0.169 HD
ATOM     36  C   UNL     1      -1.384  -5.878   1.661  0.00  0.00    +0.251 A 
ATOM     37  O   UNL     1      -0.277  -6.294   1.369  0.00  0.00    -0.268 OA
ENDBRANCH  25  26
ENDBRANCH  10  25
TORSDOF 6
