REMARK  Name = ZINC20756942
REMARK  5 active torsions:
REMARK  status: ('A' for Active; 'I' for Inactive)
REMARK    1  A    between atoms: C_1  and  N_2
REMARK    2  A    between atoms: C_15  and  C_17
REMARK    3  A    between atoms: N_21  and  C_24
REMARK    4  A    between atoms: C_24  and  C_25
REMARK    5  A    between atoms: C_25  and  C_26
REMARK                            x       y       z     vdW  Elec       q    Type
REMARK                         _______ _______ _______ _____ _____    ______ ____
ROOT
ATOM      1  C   UNL     1      -0.083  -0.155   2.430  0.00  0.00    +0.074 A 
ATOM      2  C   UNL     1       0.482   0.557   3.445  0.00  0.00    +0.260 A 
ATOM      3  N   UNL     1      -0.261   0.850   4.560  0.00  0.00    -0.275 N 
ATOM      4  C   UNL     1      -1.539   0.438   4.655  0.00  0.00    +0.332 A 
ATOM      5  N   UNL     1      -2.115  -0.266   3.663  0.00  0.00    -0.260 N 
ATOM      6  C   UNL     1      -1.421  -0.569   2.548  0.00  0.00    +0.262 A 
ATOM      7  O   UNL     1      -1.949  -1.203   1.650  0.00  0.00    -0.267 OA
ATOM      8  O   UNL     1      -2.183   0.706   5.651  0.00  0.00    -0.246 OA
ATOM      9  O   UNL     1       1.764   0.972   3.355  0.00  0.00    -0.267 OA
ATOM     10  H   UNL     1       0.136   1.356   5.286  0.00  0.00    +0.173 HD
ENDROOT
BRANCH   1  25
ATOM     11  C   UNL     1      -0.018   1.465   0.010  0.00  0.00    -0.095 C 
ATOM     12  N   UNL     1       0.002  -0.004   0.002  0.00  0.00    +0.387 N 
ATOM     13  C   UNL     1       0.674  -0.475  -1.216  0.00  0.00    -0.073 C 
ATOM     14  C   UNL     1       0.422  -1.979  -1.392  0.00  0.00    +0.019 C 
ATOM     15  C   UNL     1       0.741  -2.656  -0.082  0.00  0.00    -0.022 A 
ATOM     16  C   UNL     1       0.959  -4.056   0.200  0.00  0.00    +0.003 A 
ATOM     17  C   UNL     1       0.948  -5.202  -0.602  0.00  0.00    +0.010 A 
ATOM     18  C   UNL     1       1.204  -6.399   0.020  0.00  0.00    +0.001 A 
ATOM     19  C   UNL     1       1.462  -6.482   1.379  0.00  0.00    +0.002 A 
ATOM     20  C   UNL     1       1.480  -5.365   2.197  0.00  0.00    +0.026 A 
ATOM     21  C   UNL     1       1.224  -4.136   1.593  0.00  0.00    +0.047 A 
ATOM     22  N   UNL     1       1.165  -2.866   2.092  0.00  0.00    -0.359 N 
ATOM     23  H   UNL     1       1.308  -2.624   3.020  0.00  0.00    +0.166 HD
ATOM     24  C   UNL     1       0.876  -1.986   1.085  0.00  0.00    +0.011 A 
ATOM     25  C   UNL     1       0.714  -0.488   1.195  0.00  0.00    +0.021 C 
ATOM     26  H   UNL     1      -0.945  -0.351   0.014  0.00  0.00    -0.081 HD
ENDBRANCH   1  25
BRANCH   5  27
ATOM     27  C   UNL     1      -3.507  -0.702   3.795  0.00  0.00    +0.134 C 
BRANCH  27  28
ATOM     28  C   UNL     1      -4.434   0.374   3.225  0.00  0.00    +0.052 C 
BRANCH  28  29
ATOM     29  C   UNL     1      -5.866  -0.074   3.360  0.00  0.00    -0.072 C 
ATOM     30  C   UNL     1      -6.533   0.328   4.394  0.00  0.00    -0.028 C 
ATOM     31  C   UNL     1      -7.961  -0.043   4.670  0.00  0.00    +0.027 C 
ATOM     32  C   UNL     1      -8.622  -0.577   3.398  0.00  0.00    +0.004 C 
ATOM     33  C   UNL     1      -7.705  -1.644   2.785  0.00  0.00    +0.005 C 
ATOM     34  C   UNL     1      -6.433  -0.954   2.284  0.00  0.00    +0.030 C 
ENDBRANCH  28  29
ENDBRANCH  27  28
ENDBRANCH   5  27
TORSDOF 4
