REMARK  Name = ZINC10001239
REMARK  11 active torsions:
REMARK  status: ('A' for Active; 'I' for Inactive)
REMARK    1  A    between atoms: C_1  and  C_2
REMARK    2  A    between atoms: C_2  and  C_3
REMARK    3  A    between atoms: C_2  and  C_4
REMARK    4  A    between atoms: C_4  and  C_6
REMARK    5  A    between atoms: C_4  and  N_21
REMARK    6  A    between atoms: N_8  and  N_9
REMARK    7  A    between atoms: C_10  and  C_11
REMARK    8  A    between atoms: C_13  and  O_19
REMARK    9  A    between atoms: C_14  and  O_18
REMARK   10  A    between atoms: O_19  and  C_20
REMARK   11  A    between atoms: C_22  and  C_24
REMARK                            x       y       z     vdW  Elec       q    Type
REMARK                         _______ _______ _______ _____ _____    ______ ____
ROOT
ATOM      1  C   UNL     1      -2.149   1.498   1.280  0.00  0.00    +0.253 C 
ATOM      2  O   UNL     1      -2.527   0.790   2.190  0.00  0.00    -0.272 OA
ATOM      3  N   UNL     1      -2.992   1.817   0.279  0.00  0.00    -0.205 N 
ATOM      4  H   UNL     1      -2.690   2.383  -0.449  0.00  0.00    +0.177 HD
ENDROOT
BRANCH   3   5
ATOM      5  N   UNL     1      -4.307   1.332   0.289  0.00  0.00    -0.188 NA
ATOM      6  C   UNL     1      -5.119   1.640  -0.675  0.00  0.00    +0.138 C 
BRANCH   6   7
ATOM      7  C   UNL     1      -6.503   1.130  -0.665  0.00  0.00    -0.001 A 
ATOM      8  C   UNL     1      -7.381   1.465  -1.699  0.00  0.00    +0.059 A 
ATOM      9  C   UNL     1      -8.674   0.979  -1.688  0.00  0.00    +0.163 A 
ATOM     10  C   UNL     1      -9.104   0.167  -0.641  0.00  0.00    +0.172 A 
ATOM     11  C   UNL     1      -8.235  -0.162   0.390  0.00  0.00    +0.059 A 
ATOM     12  C   UNL     1      -6.940   0.315   0.382  0.00  0.00    +0.027 A 
ATOM     13  I   UNL     1      -8.890  -1.384   1.960  0.00  0.00    -0.040 I 
BRANCH  10  14
ATOM     14  O   UNL     1     -10.379  -0.306  -0.629  0.00  0.00    -0.503 OA
ATOM     15  H   UNL     1     -11.009   0.273  -0.177  0.00  0.00    +0.292 HD
ENDBRANCH  10  14
BRANCH   9  16
ATOM     16  O   UNL     1      -9.529   1.298  -2.696  0.00  0.00    -0.491 OA
ATOM     17  C   UNL     1      -9.021   2.135  -3.737  0.00  0.00    +0.277 C 
ENDBRANCH   9  16
ENDBRANCH   6   7
ENDBRANCH   3   5
BRANCH   1  18
ATOM     18  C   UNL     1      -0.735   2.019   1.269  0.00  0.00    +0.163 C 
BRANCH  18  19
ATOM     19  N   UNL     1      -0.026   1.534   2.456  0.00  0.00    -0.300 N 
ATOM     20  C   UNL     1       1.026   2.222   2.941  0.00  0.00    +0.245 C 
ATOM     21  O   UNL     1       1.387   3.246   2.394  0.00  0.00    -0.270 OA
ATOM     22  H   UNL     1      -0.314   0.717   2.893  0.00  0.00    +0.150 HD
BRANCH  20  23
ATOM     23  C   UNL     1       1.740   1.733   4.138  0.00  0.00    +0.037 A 
ATOM     24  C   UNL     1       1.324   0.560   4.772  0.00  0.00    +0.016 A 
ATOM     25  C   UNL     1       1.998   0.105   5.884  0.00  0.00    +0.039 A 
ATOM     26  C   UNL     1       3.080   0.815   6.382  0.00  0.00    +0.123 A 
ATOM     27  C   UNL     1       3.494   1.983   5.760  0.00  0.00    +0.039 A 
ATOM     28  C   UNL     1       2.831   2.444   4.643  0.00  0.00    +0.016 A 
ATOM     29  F   UNL     1       3.734   0.367   7.476  0.00  0.00    -0.205 F 
ENDBRANCH  20  23
ENDBRANCH  18  19
BRANCH  18  31
ATOM     30  C   UNL     1       0.002  -0.004   0.002  0.00  0.00    +0.009 C 
ATOM     31  C   UNL     1      -0.019   1.526   0.010  0.00  0.00    +0.012 C 
ATOM     32  C   UNL     1       1.417   2.055  -0.000  0.00  0.00    +0.009 C 
ENDBRANCH  18  31
ENDBRANCH   1  18
TORSDOF 8
