REMARK  Name = ZINC63310769
REMARK  6 active torsions:
REMARK  status: ('A' for Active; 'I' for Inactive)
REMARK    1  A    between atoms: C_1  and  N_2
REMARK    2  A    between atoms: C_3  and  C_5
REMARK    3  A    between atoms: C_8  and  N_11
REMARK    4  A    between atoms: N_11  and  S_12
REMARK    5  A    between atoms: S_12  and  C_15
REMARK    6  A    between atoms: C_18  and  C_21
REMARK                            x       y       z     vdW  Elec       q    Type
REMARK                         _______ _______ _______ _____ _____    ______ ____
ROOT
ATOM      1  S   UNL     1      -0.792  -5.234   4.792  0.00  0.00    +0.059 S 
ATOM      2  O   UNL     1      -1.492  -4.496   5.785  0.00  0.00    -0.153 OA
ATOM      3  O   UNL     1      -1.214  -6.520   4.360  0.00  0.00    -0.153 OA
ENDROOT
BRANCH   1   4
ATOM      4  C   UNL     1       0.862  -5.415   5.372  0.00  0.00    +0.105 A 
ATOM      5  C   UNL     1       1.645  -6.457   4.909  0.00  0.00    +0.029 A 
ATOM      6  C   UNL     1       2.941  -6.603   5.359  0.00  0.00    +0.010 A 
ATOM      7  C   UNL     1       3.461  -5.699   6.283  0.00  0.00    -0.018 A 
ATOM      8  C   UNL     1       2.668  -4.651   6.747  0.00  0.00    +0.010 A 
ATOM      9  C   UNL     1       1.375  -4.511   6.285  0.00  0.00    +0.029 A 
BRANCH   7  10
ATOM     10  C   UNL     1       4.854  -5.851   6.771  0.00  0.00    -0.018 A 
ATOM     11  C   UNL     1       5.648  -6.896   6.304  0.00  0.00    +0.008 A 
ATOM     12  C   UNL     1       6.943  -7.033   6.761  0.00  0.00    +0.001 A 
ATOM     13  C   UNL     1       7.453  -6.136   7.683  0.00  0.00    +0.000 A 
ATOM     14  C   UNL     1       6.668  -5.097   8.150  0.00  0.00    +0.001 A 
ATOM     15  C   UNL     1       5.374  -4.947   7.695  0.00  0.00    +0.008 A 
ENDBRANCH   7  10
ENDBRANCH   1   4
BRANCH   1  16
ATOM     16  N   UNL     1      -0.736  -4.276   3.443  0.00  0.00    -0.187 NA
ATOM     17  H   UNL     1      -1.157  -3.402   3.450  0.00  0.00    +0.148 HD
BRANCH  16  21
ATOM     18  C   UNL     1       0.625  -2.182   0.995  0.00  0.00    +0.075 C 
ATOM     19  C   UNL     1      -0.811  -2.712   1.006  0.00  0.00    +0.014 C 
ATOM     20  C   UNL     1      -0.790  -4.242   0.998  0.00  0.00    +0.021 C 
ATOM     21  C   UNL     1      -0.050  -4.748   2.237  0.00  0.00    +0.077 C 
ATOM     22  C   UNL     1       1.386  -4.219   2.226  0.00  0.00    +0.021 C 
ATOM     23  C   UNL     1       1.365  -2.689   2.235  0.00  0.00    +0.014 C 
BRANCH  18  26
ATOM     24  C   UNL     1      -0.018   1.461   0.010  0.00  0.00    +0.128 C 
ATOM     25  N   UNL     1       0.002  -0.004   0.002  0.00  0.00    -0.318 N 
ATOM     26  C   UNL     1       0.604  -0.675   1.004  0.00  0.00    +0.216 C 
ATOM     27  O   UNL     1       1.130  -0.067   1.911  0.00  0.00    -0.276 OA
ATOM     28  H   UNL     1      -0.418  -0.491  -0.724  0.00  0.00    +0.148 HD
ENDBRANCH  18  26
ENDBRANCH  16  21
ENDBRANCH   1  16
TORSDOF 5
