REMARK  Name = ZINC12321067
REMARK  6 active torsions:
REMARK  status: ('A' for Active; 'I' for Inactive)
REMARK    1  A    between atoms: C_1  and  C_2
REMARK    2  A    between atoms: C_2  and  N_3
REMARK    3  A    between atoms: C_5  and  C_17
REMARK    4  A    between atoms: C_6  and  C_11
REMARK    5  A    between atoms: N_22  and  N_23
REMARK    6  A    between atoms: C_24  and  C_25
REMARK                            x       y       z     vdW  Elec       q    Type
REMARK                         _______ _______ _______ _____ _____    ______ ____
ROOT
ATOM      1  N   UNL     1      -1.372  -0.511   0.012  0.00  0.00    -0.262 N 
ATOM      2  C   UNL     1      -1.979  -0.740   1.236  0.00  0.00    +0.087 C 
ATOM      3  C   UNL     1      -3.231  -1.202   1.309  0.00  0.00    +0.017 C 
ATOM      4  C   UNL     1      -3.966  -1.468   0.012  0.00  0.00    +0.138 C 
ATOM      5  N   UNL     1      -3.240  -1.194  -1.239  0.00  0.00    -0.288 N 
ATOM      6  C   UNL     1      -1.980  -0.725  -1.162  0.00  0.00    +0.307 C 
ATOM      7  O   UNL     1      -1.373  -0.492  -2.190  0.00  0.00    -0.252 OA
ATOM      8  H   UNL     1      -3.661  -1.346  -2.100  0.00  0.00    +0.151 HD
ENDROOT
BRANCH   3   9
ATOM      9  C   UNL     1      -3.877  -1.447   2.615  0.00  0.00    +0.080 A 
ATOM     10  C   UNL     1      -3.202  -1.198   3.779  0.00  0.00    +0.076 A 
ATOM     11  S   UNL     1      -4.436  -1.661   4.987  0.00  0.00    -0.059 S 
ATOM     12  C   UNL     1      -5.715  -2.136   3.832  0.00  0.00    +0.178 A 
ATOM     13  N   UNL     1      -5.125  -1.907   2.672  0.00  0.00    -0.224 NA
ATOM     14  N   UNL     1      -6.990  -2.612   4.086  0.00  0.00    -0.215 N 
ATOM     15  H   UNL     1      -7.581  -2.832   3.349  0.00  0.00    +0.176 HD
BRANCH  14  16
ATOM     16  N   UNL     1      -7.426  -2.778   5.407  0.00  0.00    -0.185 NA
ATOM     17  C   UNL     1      -8.624  -3.226   5.645  0.00  0.00    +0.176 C 
BRANCH  17  18
ATOM     18  C   UNL     1      -9.080  -3.399   7.028  0.00  0.00    +0.147 A 
ATOM     19  C   UNL     1     -10.303  -3.863   7.416  0.00  0.00    +0.051 A 
ATOM     20  C   UNL     1     -10.307  -3.865   8.824  0.00  0.00    +0.042 A 
ATOM     21  C   UNL     1      -9.103  -3.409   9.224  0.00  0.00    +0.196 A 
ATOM     22  O   UNL     1      -8.362  -3.134   8.138  0.00  0.00    -0.462 OA
ENDBRANCH  17  18
ENDBRANCH  14  16
ENDBRANCH   3   9
BRANCH   4  23
ATOM     23  C   UNL     1      -4.378  -2.917   0.001  0.00  0.00    -0.023 A 
ATOM     24  C   UNL     1      -3.459  -3.894  -0.331  0.00  0.00    +0.006 A 
ATOM     25  C   UNL     1      -3.837  -5.224  -0.341  0.00  0.00    +0.000 A 
ATOM     26  C   UNL     1      -5.134  -5.576  -0.019  0.00  0.00    +0.000 A 
ATOM     27  C   UNL     1      -6.053  -4.599   0.314  0.00  0.00    +0.000 A 
ATOM     28  C   UNL     1      -5.674  -3.270   0.328  0.00  0.00    +0.006 A 
ENDBRANCH   4  23
BRANCH   1  30
ATOM     29  C   UNL     1      -0.019   1.526   0.010  0.00  0.00    +0.025 C 
ATOM     30  C   UNL     1       0.002  -0.004   0.002  0.00  0.00    +0.111 C 
ENDBRANCH   1  30
TORSDOF 5
