REMARK  Name = ZINC00617613
REMARK  4 active torsions:
REMARK  status: ('A' for Active; 'I' for Inactive)
REMARK    1  A    between atoms: C_1  and  C_2
REMARK    2  A    between atoms: C_2  and  C_3
REMARK    3  A    between atoms: C_6  and  C_9
REMARK    4  A    between atoms: C_12  and  C_20
REMARK                            x       y       z     vdW  Elec       q    Type
REMARK                         _______ _______ _______ _____ _____    ______ ____
ROOT
ATOM      1  C   UNL     1      -5.419  -2.005   0.043  0.00  0.00    +0.143 C 
ATOM      2  C   UNL     1      -5.474  -3.353  -0.687  0.00  0.00    +0.059 C 
ATOM      3  C   UNL     1      -6.935  -3.755  -0.921  0.00  0.00    +0.107 C 
ATOM      4  N   UNL     1      -7.568  -2.745  -1.792  0.00  0.00    -0.307 N 
ATOM      5  C   UNL     1      -7.288  -1.418  -1.496  0.00  0.00    +0.215 A 
ATOM      6  N   UNL     1      -6.297  -1.057  -0.643  0.00  0.00    -0.226 N 
ATOM      7  N   UNL     1      -6.310   0.337  -0.582  0.00  0.00    -0.156 NA
ATOM      8  C   UNL     1      -7.274   0.741  -1.371  0.00  0.00    +0.247 A 
ATOM      9  N   UNL     1      -7.864  -0.328  -1.929  0.00  0.00    -0.202 NA
ATOM     10  H   UNL     1      -8.146  -2.995  -2.530  0.00  0.00    +0.149 HD
ENDROOT
BRANCH   3  11
ATOM     11  C   UNL     1      -6.987  -5.106  -1.586  0.00  0.00    -0.009 A 
ATOM     12  C   UNL     1      -7.082  -5.196  -2.962  0.00  0.00    +0.007 A 
ATOM     13  C   UNL     1      -7.130  -6.435  -3.573  0.00  0.00    +0.000 A 
ATOM     14  C   UNL     1      -7.082  -7.586  -2.808  0.00  0.00    +0.001 A 
ATOM     15  C   UNL     1      -6.987  -7.497  -1.432  0.00  0.00    +0.020 A 
ATOM     16  C   UNL     1      -6.933  -6.257  -0.821  0.00  0.00    +0.046 A 
ATOM     17 CL   UNL     1      -6.806  -6.145   0.907  0.00  0.00    -0.083 Cl
ENDBRANCH   3  11
BRANCH   1  21
ATOM     18  C   UNL     1      -1.412  -0.526   0.013  0.00  0.00    -0.048 A 
ATOM     19  C   UNL     1      -2.051  -0.766   1.215  0.00  0.00    +0.004 A 
ATOM     20  C   UNL     1      -3.348  -1.244   1.225  0.00  0.00    +0.006 A 
ATOM     21  C   UNL     1      -4.006  -1.482   0.032  0.00  0.00    -0.023 A 
ATOM     22  C   UNL     1      -3.367  -1.241  -1.170  0.00  0.00    +0.006 A 
ATOM     23  C   UNL     1      -2.072  -0.758  -1.179  0.00  0.00    +0.004 A 
BRANCH  18  25
ATOM     24  C   UNL     1      -0.019   1.526   0.010  0.00  0.00    +0.009 C 
ATOM     25  C   UNL     1       0.002  -0.004   0.002  0.00  0.00    +0.032 C 
ENDBRANCH  18  25
ENDBRANCH   1  21
TORSDOF 3
