REMARK  Name = ZINC07873372
REMARK  8 active torsions:
REMARK  status: ('A' for Active; 'I' for Inactive)
REMARK    1  A    between atoms: C_1  and  C_2
REMARK    2  A    between atoms: C_2  and  C_4
REMARK    3  A    between atoms: C_2  and  O_15
REMARK    4  A    between atoms: N_9  and  C_10
REMARK    5  A    between atoms: O_15  and  C_16
REMARK    6  A    between atoms: C_16  and  C_18
REMARK    7  A    between atoms: C_21  and  N_24
REMARK    8  A    between atoms: C_25  and  C_27
REMARK                            x       y       z     vdW  Elec       q    Type
REMARK                         _______ _______ _______ _____ _____    ______ ____
ROOT
ATOM      1  C   UNL     1      10.123   3.456   1.285  0.00  0.00    +0.340 C 
ATOM      2  O   UNL     1      10.476   3.284   0.135  0.00  0.00    -0.245 OA
ENDROOT
BRANCH   1   3
ATOM      3  C   UNL     1      10.980   4.217   2.213  0.00  0.00    +0.059 A 
ATOM      4  C   UNL     1      10.572   4.421   3.535  0.00  0.00    +0.017 A 
ATOM      5  C   UNL     1      11.377   5.127   4.400  0.00  0.00    +0.024 A 
ATOM      6  C   UNL     1      12.590   5.646   3.958  0.00  0.00    +0.034 A 
ATOM      7  C   UNL     1      12.996   5.449   2.641  0.00  0.00    +0.024 A 
ATOM      8  C   UNL     1      12.199   4.740   1.772  0.00  0.00    +0.017 A 
BRANCH   6   9
ATOM      9  N   UNL     1      13.399   6.364   4.835  0.00  0.00    -0.279 N 
ATOM     10  C   UNL     1      14.146   7.388   4.377  0.00  0.00    +0.284 C 
ATOM     11  O   UNL     1      14.042   7.748   3.219  0.00  0.00    -0.266 OA
ATOM     12  H   UNL     1      13.426   6.127   5.775  0.00  0.00    +0.155 HD
BRANCH  10  13
ATOM     13  C   UNL     1      15.085   8.069   5.274  0.00  0.00    +0.189 A 
ATOM     14  C   UNL     1      15.897   9.116   4.942  0.00  0.00    +0.054 A 
ATOM     15  C   UNL     1      16.619   9.449   6.098  0.00  0.00    +0.042 A 
ATOM     16  C   UNL     1      16.221   8.602   7.074  0.00  0.00    +0.196 A 
ATOM     17  O   UNL     1      15.293   7.776   6.575  0.00  0.00    -0.458 OA
ENDBRANCH  10  13
ENDBRANCH   6   9
ENDBRANCH   1   3
BRANCH   1  18
ATOM     18  O   UNL     1       8.948   2.953   1.711  0.00  0.00    -0.449 OA
BRANCH  18  20
ATOM     19  C   UNL     1       8.543   0.735   0.790  0.00  0.00    +0.062 C 
ATOM     20  C   UNL     1       8.157   2.215   0.743  0.00  0.00    +0.259 C 
BRANCH  20  21
ATOM     21  C   UNL     1       6.694   2.363   1.073  0.00  0.00    +0.261 C 
ATOM     22  O   UNL     1       6.352   3.025   2.029  0.00  0.00    -0.271 OA
ATOM     23  N   UNL     1       5.765   1.760   0.304  0.00  0.00    -0.237 N 
ATOM     24  C   UNL     1       4.457   1.893   0.599  0.00  0.00    +0.306 C 
ATOM     25  O   UNL     1       4.114   2.556   1.558  0.00  0.00    -0.252 OA
ATOM     26  N   UNL     1       3.528   1.289  -0.170  0.00  0.00    -0.296 N 
ATOM     27  H   UNL     1       6.039   1.230  -0.461  0.00  0.00    +0.159 HD
ATOM     28  H   UNL     1       3.802   0.760  -0.935  0.00  0.00    +0.151 HD
BRANCH  26  29
ATOM     29  C   UNL     1       2.106   1.433   0.151  0.00  0.00    +0.074 C 
ATOM     30  C   UNL     1       1.493   2.640  -0.602  0.00  0.00    +0.022 C 
ATOM     31  C   UNL     1      -0.013   2.315  -0.676  0.00  0.00    +0.002 C 
ATOM     32  C   UNL     1      -0.139   0.787  -0.550  0.00  0.00    +0.002 C 
ATOM     33  C   UNL     1       1.294   0.237  -0.404  0.00  0.00    +0.022 C 
ENDBRANCH  26  29
ENDBRANCH  20  21
ENDBRANCH  18  20
ENDBRANCH   1  18
TORSDOF 7
