REMARK  Name = ZINC01112477
REMARK  12 active torsions:
REMARK  status: ('A' for Active; 'I' for Inactive)
REMARK    1  A    between atoms: C_1  and  C_2
REMARK    2  A    between atoms: C_6  and  N_9
REMARK    3  A    between atoms: C_7  and  C_8
REMARK    4  A    between atoms: N_9  and  C_10
REMARK    5  A    between atoms: N_9  and  S_26
REMARK    6  A    between atoms: C_10  and  C_11
REMARK    7  A    between atoms: N_13  and  C_14
REMARK    8  A    between atoms: C_19  and  C_20
REMARK    9  A    between atoms: N_22  and  C_23
REMARK   10  A    between atoms: C_23  and  C_24
REMARK   11  A    between atoms: C_23  and  C_25
REMARK   12  A    between atoms: S_26  and  C_29
REMARK                            x       y       z     vdW  Elec       q    Type
REMARK                         _______ _______ _______ _____ _____    ______ ____
ROOT
ATOM      1  C   UNL     1      -4.778   3.622   0.594  0.00  0.00    +0.236 C 
ATOM      2  O   UNL     1      -5.804   2.987   0.719  0.00  0.00    -0.274 OA
ATOM      3  N   UNL     1      -3.605   2.979   0.428  0.00  0.00    -0.283 N 
ATOM      4  H   UNL     1      -2.776   3.483   0.398  0.00  0.00    +0.155 HD
ENDROOT
BRANCH   3   5
ATOM      5  C   UNL     1      -3.582   1.593   0.299  0.00  0.00    +0.046 A 
ATOM      6  C   UNL     1      -4.540   0.817   0.937  0.00  0.00    +0.024 A 
ATOM      7  C   UNL     1      -4.516  -0.557   0.808  0.00  0.00    +0.002 A 
ATOM      8  C   UNL     1      -3.538  -1.172   0.043  0.00  0.00    +0.001 A 
ATOM      9  C   UNL     1      -2.581  -0.418  -0.601  0.00  0.00    +0.015 A 
ATOM     10  C   UNL     1      -2.590   0.973  -0.476  0.00  0.00    +0.058 A 
BRANCH  10  11
ATOM     11  C   UNL     1      -1.566   1.786  -1.159  0.00  0.00    +0.246 C 
ATOM     12  O   UNL     1      -1.636   3.000  -1.132  0.00  0.00    -0.270 OA
ATOM     13  N   UNL     1      -0.554   1.184  -1.813  0.00  0.00    -0.309 N 
ATOM     14  H   UNL     1      -0.498   0.216  -1.835  0.00  0.00    +0.149 HD
BRANCH  13  15
ATOM     15  C   UNL     1       0.460   1.991  -2.497  0.00  0.00    +0.067 C 
ATOM     16  C   UNL     1       1.758   1.190  -2.613  0.00  0.00    +0.027 C 
ATOM     17  C   UNL     1      -0.039   2.358  -3.896  0.00  0.00    +0.027 C 
ENDBRANCH  13  15
ENDBRANCH  10  11
ENDBRANCH   3   5
BRANCH   1  18
ATOM     18  C   UNL     1      -4.815   5.128   0.625  0.00  0.00    +0.227 C 
BRANCH  18  19
ATOM     19  N   UNL     1      -6.196   5.579   0.815  0.00  0.00    -0.199 N 
BRANCH  19  25
ATOM     20  C   UNL     1      -8.100   8.390  -2.738  0.00  0.00    +0.044 C 
ATOM     21  C   UNL     1      -7.988   7.065  -2.028  0.00  0.00    -0.046 A 
ATOM     22  C   UNL     1      -8.726   5.981  -2.467  0.00  0.00    +0.004 A 
ATOM     23  C   UNL     1      -8.626   4.764  -1.818  0.00  0.00    +0.002 A 
ATOM     24  C   UNL     1      -7.787   4.627  -0.730  0.00  0.00    +0.025 A 
ATOM     25  C   UNL     1      -7.044   5.714  -0.286  0.00  0.00    +0.055 A 
ATOM     26  C   UNL     1      -7.152   6.937  -0.936  0.00  0.00    -0.025 A 
ATOM     27  C   UNL     1      -6.353   8.120  -0.454  0.00  0.00    +0.046 C 
ENDBRANCH  19  25
BRANCH  19  28
ATOM     28  S   UNL     1      -6.750   5.928   2.336  0.00  0.00    +0.043 S 
ATOM     29  O   UNL     1      -8.166   5.904   2.220  0.00  0.00    -0.155 OA
ATOM     30  O   UNL     1      -6.077   5.011   3.187  0.00  0.00    -0.155 OA
ATOM     31  C   UNL     1      -6.179   7.618   2.663  0.00  0.00    +0.218 C 
ENDBRANCH  19  28
ENDBRANCH  18  19
ENDBRANCH   1  18
TORSDOF 7
