REMARK  Name = ZINC32744795
REMARK  7 active torsions:
REMARK  status: ('A' for Active; 'I' for Inactive)
REMARK    1  A    between atoms: C_1  and  N_2
REMARK    2  A    between atoms: C_6  and  C_7
REMARK    3  A    between atoms: N_9  and  N_10
REMARK    4  A    between atoms: C_11  and  C_13
REMARK    5  A    between atoms: C_18  and  C_19
REMARK    6  A    between atoms: C_19  and  S_20
REMARK    7  A    between atoms: S_20  and  C_21
REMARK                            x       y       z     vdW  Elec       q    Type
REMARK                         _______ _______ _______ _____ _____    ______ ____
ROOT
ATOM      1  C   UNL     1      -6.176   6.266  -0.161  0.00  0.00    +0.042 A 
ATOM      2  C   UNL     1      -5.664   7.561  -0.057  0.00  0.00    +0.013 A 
ATOM      3  C   UNL     1      -6.448   8.640  -0.407  0.00  0.00    +0.001 A 
ATOM      4  C   UNL     1      -7.744   8.442  -0.851  0.00  0.00    +0.000 A 
ATOM      5  C   UNL     1      -8.259   7.162  -0.952  0.00  0.00    +0.005 A 
ATOM      6  C   UNL     1      -7.483   6.074  -0.609  0.00  0.00    -0.025 A 
ENDROOT
BRANCH   1   8
ATOM      7  N   UNL     1      -4.041   5.283   0.525  0.00  0.00    -0.230 N 
ATOM      8  C   UNL     1      -5.339   5.105   0.208  0.00  0.00    +0.260 C 
ATOM      9  O   UNL     1      -5.821   3.989   0.226  0.00  0.00    -0.269 OA
ATOM     10  H   UNL     1      -3.605   6.293   0.510  0.00  0.00    +0.173 HD
BRANCH   7  13
ATOM     11  C   UNL     1      -1.950   4.361   1.192  0.00  0.00    +0.277 C 
ATOM     12  O   UNL     1      -1.490   5.485   1.264  0.00  0.00    -0.267 OA
ATOM     13  N   UNL     1      -3.248   4.182   0.875  0.00  0.00    -0.229 N 
ATOM     14  H   UNL     1      -3.685   3.173   0.891  0.00  0.00    +0.173 HD
BRANCH  11  20
ATOM     15  C   UNL     1       1.098   4.429   1.742  0.00  0.00    +0.149 C 
ATOM     16  N   UNL     1       0.262   3.227   1.695  0.00  0.00    -0.346 N 
ATOM     17  C   UNL     1       0.694   1.956   1.882  0.00  0.00    +0.086 A 
ATOM     18  C   UNL     1      -0.361   1.113   1.772  0.00  0.00    +0.020 A 
ATOM     19  C   UNL     1      -1.497   1.882   1.500  0.00  0.00    +0.032 A 
ATOM     20  C   UNL     1      -1.093   3.199   1.451  0.00  0.00    +0.106 A 
ENDBRANCH  11  20
ENDBRANCH   7  13
ENDBRANCH   1   8
BRANCH   6  21
ATOM     21  C   UNL     1      -8.046   4.680  -0.720  0.00  0.00    +0.114 C 
BRANCH  21  22
ATOM     22  S   UNL     1      -8.656   4.146   0.899  0.00  0.00    -0.062 S 
BRANCH  22  23
ATOM     23  C   UNL     1      -9.240   2.535   0.489  0.00  0.00    +0.258 A 
ATOM     24  N   UNL     1      -9.793   1.700   1.332  0.00  0.00    -0.203 NA
ATOM     25  C   UNL     1     -10.119   0.558   0.666  0.00  0.00    +0.110 A 
ATOM     26  C   UNL     1     -10.718  -0.643   1.049  0.00  0.00    +0.031 A 
ATOM     27  C   UNL     1     -10.917  -1.635   0.114  0.00  0.00    +0.002 A 
ATOM     28  C   UNL     1     -10.525  -1.447  -1.203  0.00  0.00    +0.004 A 
ATOM     29  C   UNL     1      -9.932  -0.264  -1.594  0.00  0.00    +0.048 A 
ATOM     30  C   UNL     1      -9.724   0.745  -0.667  0.00  0.00    +0.156 A 
ATOM     31  O   UNL     1      -9.188   1.985  -0.738  0.00  0.00    -0.431 OA
ENDBRANCH  22  23
ENDBRANCH  21  22
ENDBRANCH   6  21
TORSDOF 6
