REMARK  Name = ZINC08604270
REMARK  7 active torsions:
REMARK  status: ('A' for Active; 'I' for Inactive)
REMARK    1  A    between atoms: C_1  and  N_2
REMARK    2  A    between atoms: C_6  and  S_12
REMARK    3  A    between atoms: S_12  and  N_15
REMARK    4  A    between atoms: N_15  and  C_16
REMARK    5  A    between atoms: C_16  and  C_17
REMARK    6  A    between atoms: C_17  and  C_18
REMARK    7  A    between atoms: N_20  and  C_21
REMARK                            x       y       z     vdW  Elec       q    Type
REMARK                         _______ _______ _______ _____ _____    ______ ____
ROOT
ATOM      1  N   UNL     1      -4.323  -4.710  -1.577  0.00  0.00    -0.189 NA
ATOM      2  H   UNL     1      -5.221  -4.598  -1.927  0.00  0.00    +0.148 HD
ENDROOT
BRANCH   1   3
ATOM      3  S   UNL     1      -3.999  -4.340   0.004  0.00  0.00    +0.059 S 
ATOM      4  O   UNL     1      -3.289  -5.447   0.543  0.00  0.00    -0.153 OA
ATOM      5  O   UNL     1      -5.214  -3.866   0.568  0.00  0.00    -0.153 OA
BRANCH   3  11
ATOM      6  C   UNL     1      -0.055   1.479   0.003  0.00  0.00    +0.156 C 
ATOM      7  N   UNL     1      -0.025   0.014  -0.005  0.00  0.00    -0.277 N 
ATOM      8  C   UNL     1      -1.133  -0.833  -0.002  0.00  0.00    +0.090 A 
ATOM      9  C   UNL     1      -2.501  -0.611   0.011  0.00  0.00    +0.031 A 
ATOM     10  C   UNL     1      -3.371  -1.684   0.012  0.00  0.00    +0.031 A 
ATOM     11  C   UNL     1      -2.881  -2.978   0.001  0.00  0.00    +0.109 A 
ATOM     12  C   UNL     1      -1.519  -3.207  -0.011  0.00  0.00    +0.077 A 
ATOM     13  C   UNL     1      -0.638  -2.137  -0.013  0.00  0.00    +0.159 A 
ATOM     14  O   UNL     1       0.715  -2.053  -0.023  0.00  0.00    -0.407 OA
ATOM     15  C   UNL     1       1.077  -0.761  -0.024  0.00  0.00    +0.421 A 
ATOM     16  O   UNL     1       2.223  -0.352  -0.037  0.00  0.00    -0.223 OA
ENDBRANCH   3  11
ENDBRANCH   1   3
BRANCH   1  17
ATOM     17  C   UNL     1      -3.254  -5.207  -2.447  0.00  0.00    +0.115 C 
BRANCH  17  18
ATOM     18  C   UNL     1      -3.866  -5.817  -3.710  0.00  0.00    +0.113 C 
BRANCH  18  19
ATOM     19  C   UNL     1      -2.767  -6.328  -4.605  0.00  0.00    +0.218 C 
ATOM     20  O   UNL     1      -1.608  -6.215  -4.266  0.00  0.00    -0.275 OA
ATOM     21  N   UNL     1      -3.072  -6.910  -5.781  0.00  0.00    -0.285 N 
ATOM     22  H   UNL     1      -3.999  -7.061  -6.022  0.00  0.00    +0.155 HD
BRANCH  21  23
ATOM     23  C   UNL     1      -2.050  -7.298  -6.657  0.00  0.00    +0.035 A 
ATOM     24  C   UNL     1      -2.234  -7.197  -8.029  0.00  0.00    +0.026 A 
ATOM     25  C   UNL     1      -1.225  -7.579  -8.891  0.00  0.00    +0.041 A 
ATOM     26  C   UNL     1      -0.029  -8.062  -8.388  0.00  0.00    +0.142 A 
ATOM     27  C   UNL     1       0.158  -8.164  -7.019  0.00  0.00    +0.078 A 
ATOM     28  C   UNL     1      -0.848  -7.777  -6.153  0.00  0.00    +0.046 A 
ATOM     29 CL   UNL     1       1.658  -8.770  -6.391  0.00  0.00    -0.081 Cl
ATOM     30  F   UNL     1       0.956  -8.436  -9.233  0.00  0.00    -0.204 F 
ENDBRANCH  21  23
ENDBRANCH  18  19
ENDBRANCH  17  18
ENDBRANCH   1  17
TORSDOF 6
