REMARK  Name = ZINC12560658
REMARK  7 active torsions:
REMARK  status: ('A' for Active; 'I' for Inactive)
REMARK    1  A    between atoms: C_1  and  C_2
REMARK    2  A    between atoms: C_2  and  C_24
REMARK    3  A    between atoms: N_3  and  N_4
REMARK    4  A    between atoms: C_5  and  C_7
REMARK    5  A    between atoms: C_11  and  S_13
REMARK    6  A    between atoms: S_13  and  N_16
REMARK    7  A    between atoms: N_16  and  C_17
REMARK                            x       y       z     vdW  Elec       q    Type
REMARK                         _______ _______ _______ _____ _____    ______ ____
ROOT
ATOM      1  C   UNL     1      -5.160  -3.158  -0.267  0.00  0.00    +0.040 A 
ATOM      2  C   UNL     1      -6.403  -2.522  -0.263  0.00  0.00    +0.013 A 
ATOM      3  C   UNL     1      -7.558  -3.273  -0.196  0.00  0.00    +0.003 A 
ATOM      4  C   UNL     1      -7.487  -4.653  -0.124  0.00  0.00    +0.029 A 
ATOM      5  C   UNL     1      -6.258  -5.289  -0.124  0.00  0.00    +0.109 A 
ATOM      6  C   UNL     1      -5.095  -4.550  -0.194  0.00  0.00    +0.042 A 
ENDROOT
BRANCH   1   8
ATOM      7  N   UNL     1      -3.985  -1.015  -0.413  0.00  0.00    -0.203 N 
ATOM      8  C   UNL     1      -3.919  -2.360  -0.343  0.00  0.00    +0.263 C 
ATOM      9  O   UNL     1      -2.837  -2.916  -0.341  0.00  0.00    -0.268 OA
ATOM     10  H   UNL     1      -4.848  -0.572  -0.414  0.00  0.00    +0.178 HD
BRANCH   7  13
ATOM     11  C   UNL     1      -4.212   1.725  -0.554  0.00  0.00    +0.068 C 
ATOM     12  C   UNL     1      -2.872   1.036  -0.552  0.00  0.00    +0.063 C 
ATOM     13  N   UNL     1      -2.808  -0.259  -0.484  0.00  0.00    -0.184 NA
BRANCH  12  14
ATOM     14  C   UNL     1      -1.633   1.832  -0.627  0.00  0.00    -0.001 A 
ATOM     15  C   UNL     1      -1.698   3.226  -0.695  0.00  0.00    +0.011 A 
ATOM     16  C   UNL     1      -0.537   3.966  -0.771  0.00  0.00    +0.022 A 
ATOM     17  C   UNL     1       0.693   3.330  -0.775  0.00  0.00    +0.059 A 
ATOM     18  C   UNL     1       0.766   1.948  -0.702  0.00  0.00    +0.060 A 
ATOM     19  C   UNL     1      -0.390   1.196  -0.626  0.00  0.00    +0.031 A 
ATOM     20 CL   UNL     1       2.313   1.160  -0.707  0.00  0.00    -0.082 Cl
ATOM     21 CL   UNL     1       2.151   4.268  -0.871  0.00  0.00    -0.082 Cl
ENDBRANCH  12  14
ENDBRANCH   7  13
ENDBRANCH   1   8
BRANCH   5  22
ATOM     22  S   UNL     1      -6.178  -7.047  -0.032  0.00  0.00    +0.072 S 
ATOM     23  O   UNL     1      -7.418  -7.536  -0.524  0.00  0.00    -0.150 OA
ATOM     24  O   UNL     1      -4.931  -7.427  -0.596  0.00  0.00    -0.150 OA
BRANCH  22  25
ATOM     25  N   UNL     1      -6.114  -7.451   1.573  0.00  0.00    -0.215 N 
ATOM     26  H   UNL     1      -5.350  -7.938   1.921  0.00  0.00    +0.174 HD
BRANCH  25  27
ATOM     27  C   UNL     1      -7.160  -7.090   2.427  0.00  0.00    +0.066 A 
ATOM     28  C   UNL     1      -8.469  -7.094   1.964  0.00  0.00    +0.026 A 
ATOM     29  C   UNL     1      -9.501  -6.742   2.812  0.00  0.00    +0.002 A 
ATOM     30  C   UNL     1      -9.231  -6.375   4.117  0.00  0.00    +0.002 A 
ATOM     31  C   UNL     1      -7.929  -6.365   4.581  0.00  0.00    +0.022 A 
ATOM     32  C   UNL     1      -6.891  -6.721   3.740  0.00  0.00    +0.063 A 
ATOM     33 CL   UNL     1      -5.256  -6.708   4.322  0.00  0.00    -0.082 Cl
ENDBRANCH  25  27
ENDBRANCH  22  25
ENDBRANCH   5  22
TORSDOF 6
