REMARK  Name = ZINC36210560
REMARK  13 active torsions:
REMARK  status: ('A' for Active; 'I' for Inactive)
REMARK    1  A    between atoms: C_1  and  C_2
REMARK    2  A    between atoms: C_7  and  C_8
REMARK    3  A    between atoms: C_13  and  C_16
REMARK    4  A    between atoms: C_16  and  C_18
REMARK    5  A    between atoms: C_16  and  N_27
REMARK    6  A    between atoms: N_20  and  C_21
REMARK    7  A    between atoms: C_21  and  C_23
REMARK    8  A    between atoms: C_21  and  C_24
REMARK    9  A    between atoms: C_24  and  C_25
REMARK   10  A    between atoms: C_24  and  C_26
REMARK   11  A    between atoms: C_28  and  C_30
REMARK   12  A    between atoms: C_33  and  O_36
REMARK   13  A    between atoms: O_36  and  C_37
REMARK                            x       y       z     vdW  Elec       q    Type
REMARK                         _______ _______ _______ _____ _____    ______ ____
ROOT
ATOM      1  C   UNL     1      -1.317  -2.439   6.948  0.00  0.00    +0.162 C 
ENDROOT
BRANCH   1   7
ATOM      2  C   UNL     1       0.126   0.181   2.391  0.00  0.00    +0.247 C 
ATOM      3  O   UNL     1      -0.021   1.386   2.333  0.00  0.00    -0.270 OA
ATOM      4  N   UNL     1       0.323  -0.417   3.583  0.00  0.00    -0.298 N 
ATOM      5  C   UNL     1       0.601  -1.858   3.660  0.00  0.00    +0.108 C 
ATOM      6  C   UNL     1      -0.400  -2.502   4.625  0.00  0.00    +0.025 C 
ATOM      7  C   UNL     1      -0.343  -1.777   5.971  0.00  0.00    +0.021 C 
ATOM      8  C   UNL     1      -0.732  -0.309   5.780  0.00  0.00    +0.025 C 
ATOM      9  C   UNL     1       0.271   0.360   4.828  0.00  0.00    +0.108 C 
BRANCH   2  16
ATOM     10  C   UNL     1      -2.173   0.346   0.642  0.00  0.00    +0.044 C 
ATOM     11  C   UNL     1      -1.015  -0.557   0.303  0.00  0.00    -0.038 A 
ATOM     12  C   UNL     1      -1.041  -1.311  -0.852  0.00  0.00    +0.004 A 
ATOM     13  C   UNL     1       0.021  -2.141  -1.164  0.00  0.00    +0.000 A 
ATOM     14  C   UNL     1       1.116  -2.220  -0.322  0.00  0.00    +0.001 A 
ATOM     15  C   UNL     1       1.155  -1.472   0.836  0.00  0.00    +0.013 A 
ATOM     16  C   UNL     1       0.089  -0.629   1.155  0.00  0.00    +0.040 A 
ENDBRANCH   2  16
ENDBRANCH   1   7
BRANCH   1  17
ATOM     17  C   UNL     1      -1.261  -1.726   8.275  0.00  0.00    +0.234 C 
ATOM     18  O   UNL     1      -2.259  -1.205   8.726  0.00  0.00    -0.274 OA
ATOM     19  N   UNL     1      -0.102  -1.667   8.960  0.00  0.00    -0.311 N 
ATOM     20  H   UNL     1       0.697  -2.084   8.599  0.00  0.00    +0.149 HD
BRANCH  19  21
ATOM     21  C   UNL     1      -0.047  -0.974  10.249  0.00  0.00    +0.072 C 
ATOM     22  C   UNL     1      -0.486  -1.929  11.361  0.00  0.00    +0.028 C 
BRANCH  21  23
ATOM     23  C   UNL     1       1.385  -0.505  10.516  0.00  0.00    +0.003 C 
ATOM     24  C   UNL     1       1.442   0.219  11.862  0.00  0.00    +0.009 C 
ATOM     25  C   UNL     1       2.321  -1.715  10.547  0.00  0.00    +0.009 C 
ENDBRANCH  21  23
ENDBRANCH  19  21
ENDBRANCH   1  17
BRANCH   1  26
ATOM     26  N   UNL     1      -2.677  -2.362   6.410  0.00  0.00    -0.300 N 
ATOM     27  C   UNL     1      -3.604  -3.265   6.788  0.00  0.00    +0.245 C 
ATOM     28  O   UNL     1      -3.311  -4.143   7.576  0.00  0.00    -0.270 OA
ATOM     29  H   UNL     1      -2.911  -1.662   5.781  0.00  0.00    +0.150 HD
BRANCH  27  30
ATOM     30  C   UNL     1      -4.974  -3.187   6.245  0.00  0.00    +0.037 A 
ATOM     31  C   UNL     1      -5.311  -2.182   5.335  0.00  0.00    +0.016 A 
ATOM     32  C   UNL     1      -6.591  -2.114   4.830  0.00  0.00    +0.046 A 
ATOM     33  C   UNL     1      -7.546  -3.042   5.226  0.00  0.00    +0.120 A 
ATOM     34  C   UNL     1      -7.215  -4.043   6.131  0.00  0.00    +0.046 A 
ATOM     35  C   UNL     1      -5.936  -4.122   6.636  0.00  0.00    +0.016 A 
BRANCH  33  36
ATOM     36  O   UNL     1      -8.807  -2.970   4.727  0.00  0.00    -0.495 OA
ATOM     37  C   UNL     1      -9.739  -3.956   5.176  0.00  0.00    +0.277 C 
ENDBRANCH  33  36
ENDBRANCH  27  30
ENDBRANCH   1  26
TORSDOF 8
