REMARK  Name = ZINC58846384
REMARK  7 active torsions:
REMARK  status: ('A' for Active; 'I' for Inactive)
REMARK    1  A    between atoms: C_1  and  C_2
REMARK    2  A    between atoms: C_5  and  C_38
REMARK    3  A    between atoms: C_6  and  N_8
REMARK    4  A    between atoms: N_8  and  S_9
REMARK    5  A    between atoms: S_9  and  C_12
REMARK    6  A    between atoms: C_25  and  C_28
REMARK    7  A    between atoms: C_33  and  C_34
REMARK                            x       y       z     vdW  Elec       q    Type
REMARK                         _______ _______ _______ _____ _____    ______ ____
ROOT
ATOM      1  C   UNL     1      -2.304  -3.144   3.764  0.00  0.00    +0.109 A 
ATOM      2  C   UNL     1      -2.693  -1.933   3.221  0.00  0.00    +0.030 A 
ATOM      3  C   UNL     1      -4.027  -1.698   2.956  0.00  0.00    +0.025 A 
ATOM      4  C   UNL     1      -4.977  -2.676   3.233  0.00  0.00    +0.031 A 
ATOM      5  C   UNL     1      -4.587  -3.895   3.766  0.00  0.00    -0.018 A 
ATOM      6  C   UNL     1      -3.243  -4.119   4.030  0.00  0.00    +0.034 A 
ATOM      7  C   UNL     1      -5.570  -4.982   4.039  0.00  0.00    +0.049 C 
ATOM      8  C   UNL     1      -5.883  -5.109   5.508  0.00  0.00    -0.023 C 
ATOM      9  C   UNL     1      -7.143  -5.424   5.678  0.00  0.00    -0.030 C 
ATOM     10  C   UNL     1      -7.853  -5.546   4.347  0.00  0.00    +0.033 C 
ATOM     11  C   UNL     1      -6.927  -4.794   3.364  0.00  0.00    +0.029 C 
ATOM     12  C   UNL     1      -7.380  -3.350   3.298  0.00  0.00    +0.105 C 
ATOM     13  N   UNL     1      -6.319  -2.418   2.979  0.00  0.00    -0.336 N 
ATOM     14  H   UNL     1      -6.557  -1.562   2.591  0.00  0.00    +0.147 HD
ENDROOT
BRANCH  12  15
ATOM     15  C   UNL     1      -7.998  -2.982   4.622  0.00  0.00    -0.015 A 
ATOM     16  C   UNL     1      -7.191  -2.733   5.716  0.00  0.00    +0.006 A 
ATOM     17  C   UNL     1      -7.757  -2.395   6.931  0.00  0.00    +0.000 A 
ATOM     18  C   UNL     1      -9.132  -2.305   7.051  0.00  0.00    +0.001 A 
ATOM     19  C   UNL     1      -9.939  -2.552   5.957  0.00  0.00    +0.013 A 
ATOM     20  C   UNL     1      -9.372  -2.886   4.741  0.00  0.00    +0.060 A 
BRANCH  20  21
ATOM     21  C   UNL     1     -10.252  -3.150   3.547  0.00  0.00    +0.418 C 
ATOM     22  F   UNL     1     -11.594  -3.120   3.940  0.00  0.00    -0.166 F 
ATOM     23  F   UNL     1     -10.029  -2.168   2.576  0.00  0.00    -0.166 F 
ATOM     24  F   UNL     1      -9.950  -4.409   3.014  0.00  0.00    -0.166 F 
ENDBRANCH  20  21
ENDBRANCH  12  15
BRANCH   1  25
ATOM     25  S   UNL     1      -0.603  -3.444   4.111  0.00  0.00    +0.072 S 
ATOM     26  O   UNL     1      -0.565  -4.447   5.117  0.00  0.00    -0.150 OA
ATOM     27  O   UNL     1       0.008  -2.172   4.281  0.00  0.00    -0.150 OA
BRANCH  25  28
ATOM     28  N   UNL     1       0.064  -4.112   2.751  0.00  0.00    -0.216 N 
ATOM     29  H   UNL     1       0.453  -5.000   2.787  0.00  0.00    +0.174 HD
BRANCH  28  35
ATOM     30  C   UNL     1       0.403   0.183   0.387  0.00  0.00    +0.044 C 
ATOM     31  C   UNL     1       0.229  -1.313   0.375  0.00  0.00    -0.049 A 
ATOM     32  C   UNL     1       0.070  -1.981  -0.826  0.00  0.00    +0.004 A 
ATOM     33  C   UNL     1      -0.090  -3.354  -0.842  0.00  0.00    +0.005 A 
ATOM     34  C   UNL     1      -0.093  -4.064   0.343  0.00  0.00    -0.028 A 
ATOM     35  C   UNL     1       0.066  -3.397   1.551  0.00  0.00    +0.051 A 
ATOM     36  C   UNL     1       0.233  -2.018   1.563  0.00  0.00    +0.028 A 
ATOM     37  C   UNL     1      -0.268  -5.561   0.325  0.00  0.00    +0.046 C 
ENDBRANCH  28  35
ENDBRANCH  25  28
ENDBRANCH   1  25
TORSDOF 5
