REMARK  Name = ZINC06483700
REMARK  10 active torsions:
REMARK  status: ('A' for Active; 'I' for Inactive)
REMARK    1  A    between atoms: C_1  and  O_2
REMARK    2  A    between atoms: O_2  and  C_3
REMARK    3  A    between atoms: C_5  and  C_13
REMARK    4  A    between atoms: C_7  and  O_11
REMARK    5  A    between atoms: C_8  and  O_9
REMARK    6  A    between atoms: O_9  and  C_10
REMARK    7  A    between atoms: O_11  and  C_12
REMARK    8  A    between atoms: C_14  and  O_26
REMARK    9  A    between atoms: C_18  and  O_25
REMARK   10  A    between atoms: C_20  and  O_24
REMARK                            x       y       z     vdW  Elec       q    Type
REMARK                         _______ _______ _______ _____ _____    ______ ____
ROOT
ATOM      1  C   UNL     1       3.206   2.433   3.554  0.00  0.00    +0.181 A 
ATOM      2  C   UNL     1       3.185   3.330   2.528  0.00  0.00    +0.208 A 
ATOM      3  C   UNL     1       2.471   3.019   1.343  0.00  0.00    +0.238 A 
ATOM      4  O   UNL     1       2.430   3.798   0.404  0.00  0.00    -0.283 OA
ATOM      5  C   UNL     1       1.781   1.720   1.289  0.00  0.00    +0.109 A 
ATOM      6  C   UNL     1       1.053   1.330   0.157  0.00  0.00    +0.135 A 
ATOM      7  C   UNL     1       0.424   0.100   0.143  0.00  0.00    +0.091 A 
ATOM      8  C   UNL     1       0.510  -0.742   1.247  0.00  0.00    +0.124 A 
ATOM      9  C   UNL     1       1.224  -0.361   2.372  0.00  0.00    +0.092 A 
ATOM     10  C   UNL     1       1.862   0.870   2.405  0.00  0.00    +0.147 A 
ATOM     11  O   UNL     1       2.562   1.255   3.493  0.00  0.00    -0.451 OA
ENDROOT
BRANCH   1  14
ATOM     12  C   UNL     1       5.956   3.577   5.842  0.00  0.00    +0.166 A 
ATOM     13  C   UNL     1       5.259   3.260   4.691  0.00  0.00    +0.061 A 
ATOM     14  C   UNL     1       3.952   2.772   4.779  0.00  0.00    +0.028 A 
ATOM     15  C   UNL     1       3.352   2.612   6.031  0.00  0.00    +0.061 A 
ATOM     16  C   UNL     1       4.057   2.925   7.179  0.00  0.00    +0.166 A 
ATOM     17  C   UNL     1       5.358   3.411   7.088  0.00  0.00    +0.204 A 
BRANCH  12  19
ATOM     18  C   UNL     1       7.779   4.199   4.446  0.00  0.00    +0.277 C 
ATOM     19  O   UNL     1       7.228   4.052   5.756  0.00  0.00    -0.491 OA
ENDBRANCH  12  19
BRANCH  17  20
ATOM     20  O   UNL     1       6.046   3.724   8.218  0.00  0.00    -0.488 OA
ATOM     21  C   UNL     1       5.926   5.064   8.700  0.00  0.00    +0.277 C 
ENDBRANCH  17  20
BRANCH  16  22
ATOM     22  O   UNL     1       3.476   2.764   8.398  0.00  0.00    -0.491 OA
ATOM     23  C   UNL     1       2.138   2.262   8.418  0.00  0.00    +0.277 C 
ENDBRANCH  16  22
ENDBRANCH   1  14
BRANCH   8  24
ATOM     24  O   UNL     1      -0.112  -1.949   1.222  0.00  0.00    -0.507 OA
ATOM     25  H   UNL     1      -0.047  -2.619   2.092  0.00  0.00    +0.292 HD
ENDBRANCH   8  24
BRANCH   6  26
ATOM     26  O   UNL     1       0.970   2.153  -0.920  0.00  0.00    -0.506 OA
ATOM     27  H   UNL     1       0.397   1.843  -1.806  0.00  0.00    +0.292 HD
ENDBRANCH   6  26
BRANCH   2  28
ATOM     28  O   UNL     1       3.844   4.516   2.641  0.00  0.00    -0.501 OA
ATOM     29  H   UNL     1       3.824   5.237   1.811  0.00  0.00    +0.292 HD
ENDBRANCH   2  28
TORSDOF 7
