REMARK  Name = ZINC09103650
REMARK  9 active torsions:
REMARK  status: ('A' for Active; 'I' for Inactive)
REMARK    1  A    between atoms: C_1  and  C_2
REMARK    2  A    between atoms: C_5  and  S_9
REMARK    3  A    between atoms: C_7  and  C_8
REMARK    4  A    between atoms: S_9  and  C_12
REMARK    5  A    between atoms: C_12  and  C_14
REMARK    6  A    between atoms: C_12  and  C_30
REMARK    7  A    between atoms: C_14  and  N_15
REMARK    8  A    between atoms: N_15  and  S_16
REMARK    9  A    between atoms: S_16  and  C_19
REMARK                            x       y       z     vdW  Elec       q    Type
REMARK                         _______ _______ _______ _____ _____    ______ ____
ROOT
ATOM      1  C   UNL     1       0.918   5.160   0.021  0.00  0.00    +0.188 C 
ENDROOT
BRANCH   1   2
ATOM      2  C   UNL     1       0.421   3.738   0.017  0.00  0.00    +0.015 A 
ATOM      3  C   UNL     1      -0.855   3.279   0.027  0.00  0.00    +0.013 A 
ATOM      4  C   UNL     1      -1.077   1.915   0.017  0.00  0.00    +0.008 A 
ATOM      5  C   UNL     1      -0.013   1.076   0.008  0.00  0.00    +0.045 A 
ATOM      6  S   UNL     1       1.359   2.219   0.001  0.00  0.00    -0.100 S 
ENDBRANCH   1   2
BRANCH   1   7
ATOM      7  S   UNL     1       1.939   5.441   1.494  0.00  0.00    +0.006 S 
ATOM      8  O   UNL     1       3.017   4.516   1.525  0.00  0.00    -0.169 OA
ATOM      9  O   UNL     1       2.171   6.832   1.670  0.00  0.00    -0.169 OA
BRANCH   7  14
ATOM     10  C   UNL     1      -1.575   3.867   6.139  0.00  0.00    +0.044 C 
ATOM     11  C   UNL     1      -0.698   4.260   4.979  0.00  0.00    -0.047 A 
ATOM     12  C   UNL     1       0.114   3.318   4.376  0.00  0.00    +0.005 A 
ATOM     13  C   UNL     1       0.919   3.678   3.312  0.00  0.00    +0.027 A 
ATOM     14  C   UNL     1       0.912   4.981   2.850  0.00  0.00    +0.089 A 
ATOM     15  C   UNL     1       0.104   5.925   3.456  0.00  0.00    +0.030 A 
ATOM     16  C   UNL     1      -0.705   5.563   4.518  0.00  0.00    -0.046 A 
ATOM     17  C   UNL     1      -1.589   6.591   5.175  0.00  0.00    +0.044 C 
ENDBRANCH   7  14
ENDBRANCH   1   7
BRANCH   1  18
ATOM     18  C   UNL     1       1.755   5.410  -1.235  0.00  0.00    +0.137 C 
BRANCH  18  19
ATOM     19  N   UNL     1       2.239   6.793  -1.232  0.00  0.00    -0.188 NA
ATOM     20  H   UNL     1       1.844   7.444  -0.631  0.00  0.00    +0.148 HD
BRANCH  19  21
ATOM     21  S   UNL     1       3.460   7.246  -2.256  0.00  0.00    +0.059 S 
ATOM     22  O   UNL     1       3.680   8.633  -2.037  0.00  0.00    -0.153 OA
ATOM     23  O   UNL     1       4.490   6.279  -2.111  0.00  0.00    -0.153 OA
BRANCH  21  24
ATOM     24  C   UNL     1       2.847   7.087  -3.900  0.00  0.00    +0.109 A 
ATOM     25  C   UNL     1       2.217   8.159  -4.507  0.00  0.00    +0.031 A 
ATOM     26  C   UNL     1       1.735   8.043  -5.796  0.00  0.00    +0.031 A 
ATOM     27  C   UNL     1       1.883   6.847  -6.482  0.00  0.00    +0.087 A 
ATOM     28  C   UNL     1       2.518   5.766  -5.871  0.00  0.00    +0.159 A 
ATOM     29  C   UNL     1       3.003   5.894  -4.579  0.00  0.00    +0.077 A 
ATOM     30  O   UNL     1       2.520   4.745  -6.763  0.00  0.00    -0.408 OA
ATOM     31  C   UNL     1       1.917   5.145  -7.893  0.00  0.00    +0.419 A 
ATOM     32  O   UNL     1       1.759   4.459  -8.885  0.00  0.00    -0.223 OA
ATOM     33  N   UNL     1       1.515   6.424  -7.759  0.00  0.00    -0.288 N 
ATOM     34  H   UNL     1       1.054   6.953  -8.428  0.00  0.00    +0.172 HD
ENDBRANCH  21  24
ENDBRANCH  19  21
ENDBRANCH  18  19
ENDBRANCH   1  18
TORSDOF 7
