REMARK  Name = ZINC08672719
REMARK  5 active torsions:
REMARK  status: ('A' for Active; 'I' for Inactive)
REMARK    1  A    between atoms: C_6  and  C_7
REMARK    2  A    between atoms: N_9  and  C_10
REMARK    3  A    between atoms: C_10  and  C_12
REMARK    4  A    between atoms: C_10  and  N_36
REMARK    5  A    between atoms: C_16  and  N_36
REMARK                            x       y       z     vdW  Elec       q    Type
REMARK                         _______ _______ _______ _____ _____    ______ ____
ROOT
ATOM      1  C   UNL     1       6.131  -0.704  -0.059  0.00  0.00    +0.068 C 
ENDROOT
BRANCH   1   4
ATOM      2  C   UNL     1       3.695  -0.684  -0.036  0.00  0.00    +0.243 C 
ATOM      3  O   UNL     1       3.714  -1.899  -0.043  0.00  0.00    -0.270 OA
ATOM      4  N   UNL     1       4.851   0.008  -0.044  0.00  0.00    -0.321 N 
ATOM      5  H   UNL     1       4.836   0.978  -0.039  0.00  0.00    +0.147 HD
BRANCH   2  11
ATOM      6  C   UNL     1       1.204  -0.680  -0.013  0.00  0.00    +0.014 A 
ATOM      7  C   UNL     1       0.002  -0.004   0.002  0.00  0.00    +0.016 A 
ATOM      8  C   UNL     1      -0.017   1.381   0.010  0.00  0.00    +0.018 A 
ATOM      9  C   UNL     1       1.170   2.095   0.002  0.00  0.00    +0.016 A 
ATOM     10  C   UNL     1       2.378   1.430  -0.013  0.00  0.00    +0.014 A 
ATOM     11  C   UNL     1       2.403   0.034  -0.021  0.00  0.00    +0.037 A 
ATOM     12 BR   UNL     1      -1.669   2.300   0.022  0.00  0.00    -0.050 Br
ENDBRANCH   2  11
ENDBRANCH   1   4
BRANCH   1  13
ATOM     13  C   UNL     1       7.063  -0.055  -1.085  0.00  0.00    +0.194 C 
ATOM     14 CL   UNL     1       7.340   1.670  -0.639  0.00  0.00    -0.084 Cl
ATOM     15 CL   UNL     1       8.639  -0.932  -1.104  0.00  0.00    -0.084 Cl
ATOM     16 CL   UNL     1       6.309  -0.139  -2.720  0.00  0.00    -0.084 Cl
ENDBRANCH   1  13
BRANCH   1  17
ATOM     17  N   UNL     1       6.751  -0.627   1.277  0.00  0.00    +0.397 N 
ATOM     18  H   UNL     1       6.281   0.103   1.827  0.00  0.00    -0.083 HD
ATOM     19  H   UNL     1       7.745  -0.392   1.177  0.00  0.00    -0.083 HD
BRANCH  17  20
ATOM     20  C   UNL     1       6.624  -1.919   1.976  0.00  0.00    -0.046 C 
ATOM     21  C   UNL     1       7.776  -2.845   1.552  0.00  0.00    +0.008 C 
ATOM     22  C   UNL     1       7.808  -4.057   2.526  0.00  0.00    +0.164 C 
ATOM     23  S   UNL     1       7.478  -3.210   4.129  0.00  0.00    -0.033 S 
ATOM     24  O   UNL     1       8.717  -2.870   4.736  0.00  0.00    -0.174 OA
ATOM     25  O   UNL     1       6.523  -3.964   4.862  0.00  0.00    -0.174 OA
ATOM     26  C   UNL     1       6.678  -1.677   3.504  0.00  0.00    +0.150 C 
ENDBRANCH  17  20
ENDBRANCH   1  17
TORSDOF 5
