REMARK  Name = ZINC22504835
REMARK  3 active torsions:
REMARK  status: ('A' for Active; 'I' for Inactive)
REMARK    1  A    between atoms: C_4  and  C_7
REMARK    2  A    between atoms: C_9  and  C_13
REMARK    3  A    between atoms: C_16  and  C_21
REMARK                            x       y       z     vdW  Elec       q    Type
REMARK                         _______ _______ _______ _____ _____    ______ ____
ROOT
ATOM      1  C   UNL     1       1.775  -0.220  -0.016  0.00  0.00    +0.150 A 
ATOM      2  N   UNL     1       2.204   1.018  -0.013  0.00  0.00    -0.154 NA
ATOM      3  N   UNL     1       1.315   2.085   0.001  0.00  0.00    -0.185 N 
ATOM      4  C   UNL     1       1.326   3.473   0.008  0.00  0.00    +0.189 A 
ATOM      5  N   UNL     1       0.079   3.884   0.022  0.00  0.00    -0.126 NA
ATOM      6  N   UNL     1      -0.716   2.871   0.029  0.00  0.00    -0.120 NA
ATOM      7  C   UNL     1      -0.022   1.771   0.012  0.00  0.00    +0.219 A 
ATOM      8  S   UNL     1       0.002  -0.004   0.002  0.00  0.00    -0.025 S 
ENDROOT
BRANCH   4   9
ATOM      9  C   UNL     1       2.527   4.335   0.001  0.00  0.00    +0.056 A 
ATOM     10  C   UNL     1       2.393   5.724   0.010  0.00  0.00    +0.014 A 
ATOM     11  C   UNL     1       3.518   6.523   0.004  0.00  0.00    +0.001 A 
ATOM     12  C   UNL     1       4.778   5.951  -0.011  0.00  0.00    +0.003 A 
ATOM     13  C   UNL     1       4.920   4.575  -0.020  0.00  0.00    +0.039 A 
ATOM     14  C   UNL     1       3.802   3.762  -0.008  0.00  0.00    +0.134 A 
ATOM     15  F   UNL     1       3.941   2.418  -0.012  0.00  0.00    -0.205 F 
ENDBRANCH   4   9
BRANCH   1  18
ATOM     16  C   UNL     1       3.133  -3.633  -0.047  0.00  0.00    +0.093 A 
ATOM     17  C   UNL     1       2.050  -2.740  -0.027  0.00  0.00    +0.060 A 
ATOM     18  C   UNL     1       2.556  -1.471  -0.031  0.00  0.00    +0.093 A 
ATOM     19  N   UNL     1       3.918  -1.572  -0.044  0.00  0.00    -0.274 N 
ATOM     20  H   UNL     1       4.537  -0.663  -0.045  0.00  0.00    +0.189 HD
ATOM     21  N   UNL     1       4.248  -2.933  -0.054  0.00  0.00    -0.173 NA
BRANCH  16  25
ATOM     22  C   UNL     1       2.857  -7.877  -0.065  0.00  0.00    +0.000 A 
ATOM     23  C   UNL     1       4.098  -7.267  -0.075  0.00  0.00    +0.001 A 
ATOM     24  C   UNL     1       4.194  -5.890  -0.069  0.00  0.00    +0.010 A 
ATOM     25  C   UNL     1       3.037  -5.115  -0.054  0.00  0.00    +0.002 A 
ATOM     26  C   UNL     1       1.789  -5.734  -0.039  0.00  0.00    +0.010 A 
ATOM     27  C   UNL     1       1.705  -7.112  -0.050  0.00  0.00    +0.001 A 
ENDBRANCH  16  25
ENDBRANCH   1  18
TORSDOF 3
