REMARK  Name = ZINC20343722
REMARK  9 active torsions:
REMARK  status: ('A' for Active; 'I' for Inactive)
REMARK    1  A    between atoms: C_1  and  C_2
REMARK    2  A    between atoms: C_10  and  C_11
REMARK    3  A    between atoms: N_13  and  N_14
REMARK    4  A    between atoms: C_15  and  C_16
REMARK    5  A    between atoms: C_15  and  C_17
REMARK    6  A    between atoms: C_21  and  N_23
REMARK    7  A    between atoms: C_24  and  C_26
REMARK    8  A    between atoms: C_26  and  C_27
REMARK    9  A    between atoms: C_27  and  C_28
REMARK                            x       y       z     vdW  Elec       q    Type
REMARK                         _______ _______ _______ _____ _____    ______ ____
ROOT
ATOM      1  C   UNL     1      -5.527   7.030   0.065  0.00  0.00    -0.001 A 
ATOM      2  C   UNL     1      -6.922   6.949   0.074  0.00  0.00    +0.010 A 
ATOM      3  C   UNL     1      -7.680   8.101   0.101  0.00  0.00    +0.002 A 
ATOM      4  C   UNL     1      -7.064   9.339   0.107  0.00  0.00    +0.023 A 
ATOM      5  C   UNL     1      -5.677   9.431   0.092  0.00  0.00    +0.034 A 
ATOM      6  C   UNL     1      -4.906   8.280   0.071  0.00  0.00    +0.033 A 
ENDROOT
BRANCH   5   7
ATOM      7  N   UNL     1      -5.060  10.687   0.098  0.00  0.00    -0.280 N 
ATOM      8  C   UNL     1      -3.897  10.863   0.758  0.00  0.00    +0.293 C 
ATOM      9  O   UNL     1      -3.344   9.916   1.275  0.00  0.00    -0.269 OA
ATOM     10  H   UNL     1      -5.522  11.530  -0.435  0.00  0.00    +0.155 HD
BRANCH   8  11
ATOM     11  C   UNL     1      -3.286  12.237   0.852  0.00  0.00    +0.393 C 
ATOM     12  F   UNL     1      -2.519  12.486  -0.291  0.00  0.00    -0.188 F 
ATOM     13  F   UNL     1      -4.301  13.194   0.951  0.00  0.00    -0.188 F 
BRANCH  11  14
ATOM     14  C   UNL     1      -2.392  12.313   2.092  0.00  0.00    +0.411 C 
ATOM     15  F   UNL     1      -3.158  12.064   3.235  0.00  0.00    -0.189 F 
ATOM     16  F   UNL     1      -1.376  11.356   1.993  0.00  0.00    -0.189 F 
BRANCH  14  17
ATOM     17  C   UNL     1      -1.770  13.708   2.188  0.00  0.00    +0.461 C 
ATOM     18  F   UNL     1      -2.786  14.665   2.286  0.00  0.00    -0.165 F 
ATOM     19  F   UNL     1      -0.953  13.777   3.321  0.00  0.00    -0.165 F 
ATOM     20  F   UNL     1      -1.004  13.957   1.044  0.00  0.00    -0.165 F 
ENDBRANCH  14  17
ENDBRANCH  11  14
ENDBRANCH   8  11
ENDBRANCH   5   7
BRANCH   1  22
ATOM     21  N   UNL     1      -3.419   5.878   0.027  0.00  0.00    -0.184 NA
ATOM     22  C   UNL     1      -4.714   5.800   0.041  0.00  0.00    +0.063 C 
ATOM     23  C   UNL     1      -5.388   4.452   0.035  0.00  0.00    +0.068 C 
BRANCH  21  26
ATOM     24  C   UNL     1      -1.301   4.791  -0.010  0.00  0.00    +0.299 C 
ATOM     25  O   UNL     1      -0.757   5.880  -0.004  0.00  0.00    -0.265 OA
ATOM     26  N   UNL     1      -2.646   4.710   0.005  0.00  0.00    -0.200 N 
ATOM     27  H   UNL     1      -3.138   3.725   0.000  0.00  0.00    +0.178 HD
BRANCH  24  37
ATOM     28  C   UNL     1       1.808   4.703  -0.047  0.00  0.00    +0.048 C 
ATOM     29  C   UNL     1       0.867   3.526  -0.049  0.00  0.00    +0.008 A 
ATOM     30  C   UNL     1       1.230   2.110  -0.069  0.00  0.00    +0.024 A 
ATOM     31  C   UNL     1       2.443   1.416  -0.093  0.00  0.00    +0.012 A 
ATOM     32  C   UNL     1       2.441   0.050  -0.109  0.00  0.00    +0.001 A 
ATOM     33  C   UNL     1       1.243  -0.652  -0.102  0.00  0.00    +0.004 A 
ATOM     34  C   UNL     1       0.036   0.013  -0.080  0.00  0.00    +0.047 A 
ATOM     35  C   UNL     1       0.013   1.403  -0.063  0.00  0.00    +0.136 A 
ATOM     36  O   UNL     1      -0.984   2.309  -0.046  0.00  0.00    -0.450 OA
ATOM     37  C   UNL     1      -0.491   3.566  -0.033  0.00  0.00    +0.195 A 
ENDBRANCH  24  37
ENDBRANCH  21  26
ENDBRANCH   1  22
TORSDOF 7
