REMARK  Name = ZINC04124994
REMARK  10 active torsions:
REMARK  status: ('A' for Active; 'I' for Inactive)
REMARK    1  A    between atoms: C_1  and  C_2
REMARK    2  A    between atoms: C_2  and  N_3
REMARK    3  A    between atoms: C_4  and  C_30
REMARK    4  A    between atoms: C_7  and  S_8
REMARK    5  A    between atoms: S_8  and  C_9
REMARK    6  A    between atoms: C_9  and  C_10
REMARK    7  A    between atoms: C_17  and  C_18
REMARK    8  A    between atoms: C_17  and  C_24
REMARK    9  A    between atoms: C_17  and  N_69
REMARK   10  A    between atoms: C_33  and  N_36
REMARK                            x       y       z     vdW  Elec       q    Type
REMARK                         _______ _______ _______ _____ _____    ______ ____
ROOT
ATOM      1  C   UNL     1       0.092   4.898   0.051  0.00  0.00    +0.226 C 
ATOM      2  O   UNL     1      -0.164   6.010  -0.361  0.00  0.00    -0.275 OA
ATOM      3  N   UNL     1      -0.491   3.821  -0.511  0.00  0.00    -0.304 N 
ATOM      4  C   UNL     1      -0.194   2.463  -0.027  0.00  0.00    +0.089 C 
ATOM      5  C   UNL     1       0.189   1.592  -1.228  0.00  0.00    -0.058 C 
ATOM      6  C   UNL     1      -1.007   3.040  -2.762  0.00  0.00    -0.058 C 
ATOM      7  C   UNL     1      -1.440   3.971  -1.624  0.00  0.00    +0.089 C 
ATOM      8  N   UNL     1      -0.894   1.663  -2.232  0.00  0.00    +0.389 N 
ATOM      9  H   UNL     1      -1.781   1.405  -1.784  0.00  0.00    -0.080 HD
ENDROOT
BRANCH   1  10
ATOM     10  C   UNL     1       1.062   4.721   1.191  0.00  0.00    +0.173 C 
BRANCH  10  11
ATOM     11  S   UNL     1       1.669   6.341   1.724  0.00  0.00    -0.077 S 
BRANCH  11  16
ATOM     12  N   UNL     1       3.507   6.677   3.806  0.00  0.00    -0.302 N 
ATOM     13  C   UNL     1       4.180   5.852   4.678  0.00  0.00    +0.165 A 
ATOM     14  N   UNL     1       3.824   4.620   4.394  0.00  0.00    -0.128 NA
ATOM     15  N   UNL     1       2.982   4.619   3.423  0.00  0.00    -0.122 NA
ATOM     16  C   UNL     1       2.750   5.850   3.026  0.00  0.00    +0.192 A 
BRANCH  13  17
ATOM     17  C   UNL     1       5.129   6.272   5.729  0.00  0.00    +0.019 A 
ATOM     18  C   UNL     1       5.128   7.592   6.186  0.00  0.00    +0.013 A 
ATOM     19  C   UNL     1       6.010   7.979   7.171  0.00  0.00    +0.023 A 
ATOM     20  C   UNL     1       6.909   7.060   7.702  0.00  0.00    +0.025 A 
ATOM     21  C   UNL     1       6.916   5.747   7.245  0.00  0.00    +0.023 A 
ATOM     22  C   UNL     1       6.033   5.352   6.264  0.00  0.00    +0.013 A 
BRANCH  20  23
ATOM     23  N   UNL     1       7.806   7.457   8.695  0.00  0.00    -0.358 N 
ATOM     24  H   UNL     1       8.433   6.817   9.066  0.00  0.00    +0.142 HD
ATOM     25  H   UNL     1       7.801   8.373   9.015  0.00  0.00    +0.142 HD
ENDBRANCH  20  23
ENDBRANCH  13  17
BRANCH  12  27
ATOM     26  C   UNL     1       2.495   8.752   4.615  0.00  0.00    +0.027 C 
ATOM     27  C   UNL     1       3.584   8.138   3.732  0.00  0.00    +0.122 C 
ENDBRANCH  12  27
ENDBRANCH  11  16
ENDBRANCH  10  11
ENDBRANCH   1  10
BRANCH   8  28
ATOM     28  C   UNL     1      -0.622   0.719  -3.336  0.00  0.00    -0.007 C 
BRANCH  28  29
ATOM     29  C   UNL     1      -0.523  -0.675  -2.772  0.00  0.00    -0.057 A 
ATOM     30  C   UNL     1      -1.441  -1.107  -1.833  0.00  0.00    +0.002 A 
ATOM     31  C   UNL     1      -1.354  -2.388  -1.320  0.00  0.00    +0.000 A 
ATOM     32  C   UNL     1      -0.343  -3.233  -1.739  0.00  0.00    +0.000 A 
ATOM     33  C   UNL     1       0.578  -2.799  -2.674  0.00  0.00    +0.000 A 
ATOM     34  C   UNL     1       0.487  -1.520  -3.191  0.00  0.00    +0.002 A 
ENDBRANCH  28  29
BRANCH  28  35
ATOM     35  C   UNL     1      -1.758   0.783  -4.324  0.00  0.00    -0.057 A 
ATOM     36  C   UNL     1      -3.064   0.808  -3.874  0.00  0.00    +0.002 A 
ATOM     37  C   UNL     1      -4.106   0.871  -4.781  0.00  0.00    +0.000 A 
ATOM     38  C   UNL     1      -3.841   0.900  -6.137  0.00  0.00    +0.000 A 
ATOM     39  C   UNL     1      -2.535   0.869  -6.587  0.00  0.00    +0.000 A 
ATOM     40  C   UNL     1      -1.493   0.811  -5.681  0.00  0.00    +0.002 A 
ENDBRANCH  28  35
ENDBRANCH   8  28
TORSDOF 9
