REMARK  Name = ZINC22052785
REMARK  11 active torsions:
REMARK  status: ('A' for Active; 'I' for Inactive)
REMARK    1  A    between atoms: C_1  and  C_2
REMARK    2  A    between atoms: C_5  and  S_8
REMARK    3  A    between atoms: S_8  and  N_11
REMARK    4  A    between atoms: N_14  and  C_17
REMARK    5  A    between atoms: C_17  and  C_19
REMARK    6  A    between atoms: C_17  and  C_20
REMARK    7  A    between atoms: C_28  and  N_30
REMARK    8  A    between atoms: N_30  and  C_31
REMARK    9  A    between atoms: C_31  and  C_32
REMARK   10  A    between atoms: C_37  and  O_38
REMARK   11  A    between atoms: O_38  and  C_39
REMARK                            x       y       z     vdW  Elec       q    Type
REMARK                         _______ _______ _______ _____ _____    ______ ____
ROOT
ATOM      1  C   UNL     1      -5.955   2.114  -0.786  0.00  0.00    +0.096 A 
ATOM      2  N   UNL     1      -6.312   2.553  -1.970  0.00  0.00    -0.344 N 
ATOM      3  C   UNL     1      -5.534   2.333  -3.040  0.00  0.00    +0.051 A 
ATOM      4  C   UNL     1      -5.885   2.787  -4.319  0.00  0.00    +0.026 A 
ATOM      5  C   UNL     1      -5.057   2.536  -5.372  0.00  0.00    +0.002 A 
ATOM      6  C   UNL     1      -3.867   1.835  -5.198  0.00  0.00    +0.001 A 
ATOM      7  C   UNL     1      -3.496   1.379  -3.968  0.00  0.00    +0.013 A 
ATOM      8  C   UNL     1      -4.323   1.620  -2.865  0.00  0.00    +0.038 A 
ATOM      9  C   UNL     1      -3.992   1.172  -1.563  0.00  0.00    +0.130 A 
ATOM     10  N   UNL     1      -4.837   1.439  -0.576  0.00  0.00    -0.221 NA
ATOM     11  H   UNL     1      -7.256   3.106  -2.090  0.00  0.00    +0.167 HD
ENDROOT
BRANCH   1  12
ATOM     12  C   UNL     1      -6.863   2.385   0.386  0.00  0.00    -0.004 C 
ATOM     13  C   UNL     1      -8.078   1.458   0.315  0.00  0.00    -0.005 C 
BRANCH  12  17
ATOM     14  N   UNL     1      -7.679   6.438   1.109  0.00  0.00    -0.180 NA
ATOM     15  C   UNL     1      -8.787   5.490   1.298  0.00  0.00    +0.091 C 
ATOM     16  C   UNL     1      -8.200   4.085   1.475  0.00  0.00    -0.060 C 
ATOM     17  N   UNL     1      -7.311   3.784   0.345  0.00  0.00    +0.388 N 
ATOM     18  C   UNL     1      -6.165   4.703   0.308  0.00  0.00    -0.060 C 
ATOM     19  C   UNL     1      -6.669   6.133   0.084  0.00  0.00    +0.091 C 
ATOM     20  H   UNL     1      -7.886   3.929  -0.581  0.00  0.00    -0.081 HD
BRANCH  14  21
ATOM     21  S   UNL     1      -7.572   7.815   2.023  0.00  0.00    +0.061 S 
ATOM     22  O   UNL     1      -6.798   8.742   1.274  0.00  0.00    -0.153 OA
ATOM     23  O   UNL     1      -8.888   8.107   2.472  0.00  0.00    -0.153 OA
BRANCH  21  28
ATOM     24  C   UNL     1      -4.343   6.447   6.933  0.00  0.00    +0.044 C 
ATOM     25  C   UNL     1      -5.149   6.789   5.707  0.00  0.00    -0.050 A 
ATOM     26  C   UNL     1      -4.515   7.250   4.569  0.00  0.00    +0.005 A 
ATOM     27  C   UNL     1      -5.255   7.563   3.444  0.00  0.00    +0.029 A 
ATOM     28  C   UNL     1      -6.629   7.415   3.457  0.00  0.00    +0.105 A 
ATOM     29  C   UNL     1      -7.264   6.959   4.597  0.00  0.00    +0.029 A 
ATOM     30  C   UNL     1      -6.524   6.641   5.721  0.00  0.00    +0.005 A 
ENDBRANCH  21  28
ENDBRANCH  14  21
ENDBRANCH  12  17
ENDBRANCH   1  12
BRANCH   9  31
ATOM     31  N   UNL     1      -2.828   0.473  -1.329  0.00  0.00    -0.324 N 
ATOM     32  H   UNL     1      -2.140   0.256  -2.160  0.00  0.00    +0.148 HD
BRANCH  31  33
ATOM     33  C   UNL     1      -2.505   0.019   0.025  0.00  0.00    +0.142 C 
BRANCH  33  34
ATOM     34  C   UNL     1      -1.189  -0.715   0.010  0.00  0.00    +0.011 A 
ATOM     35  C   UNL     1      -1.167  -2.096   0.002  0.00  0.00    +0.009 A 
ATOM     36  C   UNL     1       0.040  -2.770  -0.013  0.00  0.00    +0.001 A 
ATOM     37  C   UNL     1       1.228  -2.064  -0.021  0.00  0.00    +0.004 A 
ATOM     38  C   UNL     1       1.212  -0.682  -0.019  0.00  0.00    +0.046 A 
ATOM     39  C   UNL     1       0.002  -0.004   0.002  0.00  0.00    +0.125 A 
BRANCH  39  40
ATOM     40  O   UNL     1      -0.016   1.355   0.009  0.00  0.00    -0.495 OA
ATOM     41  C   UNL     1       1.248   2.021   0.001  0.00  0.00    +0.277 C 
ENDBRANCH  39  40
ENDBRANCH  33  34
ENDBRANCH  31  33
ENDBRANCH   9  31
TORSDOF 8
