REMARK  Name = ZINC39708871
REMARK  5 active torsions:
REMARK  status: ('A' for Active; 'I' for Inactive)
REMARK    1  A    between atoms: C_4  and  C_7
REMARK    2  A    between atoms: C_10  and  C_13
REMARK    3  A    between atoms: N_15  and  C_16
REMARK    4  A    between atoms: C_24  and  C_25
REMARK    5  A    between atoms: N_27  and  C_28
REMARK                            x       y       z     vdW  Elec       q    Type
REMARK                         _______ _______ _______ _____ _____    ______ ____
ROOT
ATOM      1  C   UNL     1       8.646  -4.774  -0.013  0.00  0.00    +0.092 A 
ATOM      2  C   UNL     1       8.897  -6.190  -0.309  0.00  0.00    +0.042 A 
ATOM      3  C   UNL     1       8.098  -7.246  -0.747  0.00  0.00    +0.013 A 
ATOM      4  C   UNL     1       8.650  -8.483  -0.931  0.00  0.00    +0.001 A 
ATOM      5  C   UNL     1      10.000  -8.694  -0.684  0.00  0.00    +0.004 A 
ATOM      6  C   UNL     1      10.805  -7.663  -0.251  0.00  0.00    +0.047 A 
ATOM      7  C   UNL     1      10.265  -6.396  -0.057  0.00  0.00    +0.138 A 
ATOM      8  O   UNL     1      10.791  -5.224   0.350  0.00  0.00    -0.448 OA
ATOM      9  C   UNL     1       9.850  -4.254   0.377  0.00  0.00    +0.212 A 
ENDROOT
BRANCH   1  12
ATOM     10  C   UNL     1       6.284  -4.737   0.174  0.00  0.00    +0.248 C 
ATOM     11  O   UNL     1       6.293  -5.926   0.426  0.00  0.00    -0.270 OA
ATOM     12  N   UNL     1       7.436  -4.100  -0.113  0.00  0.00    -0.278 N 
ATOM     13  H   UNL     1       7.421  -3.170  -0.390  0.00  0.00    +0.155 HD
BRANCH  10  17
ATOM     14  C   UNL     1       2.618  -2.588   0.200  0.00  0.00    -0.018 A 
ATOM     15  C   UNL     1       2.628  -3.953   0.488  0.00  0.00    +0.009 A 
ATOM     16  C   UNL     1       3.815  -4.650   0.480  0.00  0.00    +0.013 A 
ATOM     17  C   UNL     1       5.010  -3.990   0.182  0.00  0.00    +0.037 A 
ATOM     18  C   UNL     1       4.999  -2.623  -0.107  0.00  0.00    +0.013 A 
ATOM     19  C   UNL     1       3.810  -1.929  -0.103  0.00  0.00    +0.009 A 
BRANCH  14  23
ATOM     20  C   UNL     1      -1.050  -0.438   0.227  0.00  0.00    +0.000 A 
ATOM     21  C   UNL     1      -1.042  -1.790   0.518  0.00  0.00    +0.001 A 
ATOM     22  C   UNL     1       0.146  -2.493   0.510  0.00  0.00    +0.008 A 
ATOM     23  C   UNL     1       1.339  -1.838   0.209  0.00  0.00    -0.018 A 
ATOM     24  C   UNL     1       1.324  -0.475  -0.084  0.00  0.00    +0.008 A 
ATOM     25  C   UNL     1       0.131   0.218  -0.073  0.00  0.00    +0.001 A 
ENDBRANCH  14  23
ENDBRANCH  10  17
ENDBRANCH   1  12
BRANCH   9  26
ATOM     26  C   UNL     1      10.083  -2.865   0.766  0.00  0.00    +0.285 C 
ATOM     27  O   UNL     1       9.146  -2.091   0.849  0.00  0.00    -0.266 OA
ATOM     28  N   UNL     1      11.334  -2.440   1.033  0.00  0.00    -0.279 N 
ATOM     29  H   UNL     1      12.070  -3.071   1.034  0.00  0.00    +0.155 HD
BRANCH  28  30
ATOM     30  C   UNL     1      11.569  -1.088   1.308  0.00  0.00    +0.035 A 
ATOM     31  C   UNL     1      10.629  -0.347   2.012  0.00  0.00    +0.026 A 
ATOM     32  C   UNL     1      10.863   0.986   2.284  0.00  0.00    +0.041 A 
ATOM     33  C   UNL     1      12.035   1.586   1.855  0.00  0.00    +0.142 A 
ATOM     34  C   UNL     1      12.975   0.849   1.152  0.00  0.00    +0.078 A 
ATOM     35  C   UNL     1      12.747  -0.488   0.884  0.00  0.00    +0.046 A 
ATOM     36 CL   UNL     1      14.444   1.603   0.615  0.00  0.00    -0.081 Cl
ATOM     37  F   UNL     1      12.262   2.891   2.121  0.00  0.00    -0.204 F 
ENDBRANCH  28  30
ENDBRANCH   9  26
TORSDOF 5
