REMARK  Name = ZINC39695379
REMARK  7 active torsions:
REMARK  status: ('A' for Active; 'I' for Inactive)
REMARK    1  A    between atoms: C_1  and  C_2
REMARK    2  A    between atoms: C_2  and  C_3
REMARK    3  A    between atoms: C_3  and  C_5
REMARK    4  A    between atoms: C_3  and  N_11
REMARK    5  A    between atoms: C_12  and  C_14
REMARK    6  A    between atoms: C_25  and  C_27
REMARK    7  A    between atoms: C_30  and  C_32
REMARK                            x       y       z     vdW  Elec       q    Type
REMARK                         _______ _______ _______ _____ _____    ______ ____
ROOT
ATOM      1  C   UNL     1      -0.688   1.503  -4.202  0.00  0.00    +0.100 C 
ATOM      2  C   UNL     1      -2.203   1.395  -3.914  0.00  0.00    +0.121 C 
ATOM      3  N   UNL     1      -2.606   2.764  -3.514  0.00  0.00    -0.294 N 
ATOM      4  C   UNL     1      -1.840   3.653  -4.418  0.00  0.00    +0.115 C 
ATOM      5  C   UNL     1      -0.455   2.986  -4.536  0.00  0.00    -0.004 C 
ATOM      6  C   UNL     1       0.081   3.130  -5.957  0.00  0.00    -0.010 C 
ATOM      7  C   UNL     1       0.360   4.607  -6.246  0.00  0.00    -0.082 C 
ATOM      8  N   UNL     1       1.338   5.121  -5.279  0.00  0.00    +0.379 N 
ATOM      9  C   UNL     1       0.777   5.065  -3.924  0.00  0.00    -0.082 C 
ATOM     10  C   UNL     1       0.516   3.607  -3.536  0.00  0.00    -0.010 C 
ATOM     11  C   UNL     1      -3.475   3.119  -2.546  0.00  0.00    +0.282 C 
ATOM     12  O   UNL     1      -3.704   4.296  -2.337  0.00  0.00    -0.267 OA
ATOM     13  H   UNL     1       2.175   4.559  -5.318  0.00  0.00    -0.086 HD
ATOM     14  H   UNL     1       1.566   6.076  -5.508  0.00  0.00    -0.086 HD
ENDROOT
BRANCH  11  15
ATOM     15  C   UNL     1      -4.143   2.088  -1.747  0.00  0.00    +0.190 A 
ATOM     16  C   UNL     1      -5.052   2.312  -0.736  0.00  0.00    +0.055 A 
ATOM     17  C   UNL     1      -5.432   1.056  -0.250  0.00  0.00    +0.050 A 
ATOM     18  C   UNL     1      -4.748   0.122  -0.974  0.00  0.00    +0.136 A 
ATOM     19  O   UNL     1      -3.979   0.755  -1.876  0.00  0.00    -0.450 OA
BRANCH  18  20
ATOM     20  C   UNL     1      -4.842  -1.341  -0.799  0.00  0.00    +0.017 A 
ATOM     21  C   UNL     1      -5.691  -1.878   0.172  0.00  0.00    +0.011 A 
ATOM     22  C   UNL     1      -5.774  -3.246   0.330  0.00  0.00    +0.001 A 
ATOM     23  C   UNL     1      -5.020  -4.085  -0.470  0.00  0.00    +0.000 A 
ATOM     24  C   UNL     1      -4.176  -3.560  -1.433  0.00  0.00    +0.001 A 
ATOM     25  C   UNL     1      -4.088  -2.195  -1.606  0.00  0.00    +0.011 A 
ENDBRANCH  18  20
ENDBRANCH  11  15
BRANCH   1  27
ATOM     26  N   UNL     1       1.341   0.586  -3.126  0.00  0.00    -0.308 N 
ATOM     27  C   UNL     1       0.107   1.109  -2.984  0.00  0.00    +0.219 C 
ATOM     28  O   UNL     1      -0.363   1.262  -1.877  0.00  0.00    -0.275 OA
ATOM     29  H   UNL     1       1.717   0.463  -4.011  0.00  0.00    +0.149 HD
BRANCH  26  30
ATOM     30  C   UNL     1       2.114   0.202  -1.942  0.00  0.00    +0.103 C 
BRANCH  30  31
ATOM     31  C   UNL     1       3.585   0.239  -2.269  0.00  0.00    -0.027 A 
ATOM     32  C   UNL     1       4.032  -0.213  -3.496  0.00  0.00    +0.005 A 
ATOM     33  C   UNL     1       5.381  -0.178  -3.796  0.00  0.00    +0.000 A 
ATOM     34  C   UNL     1       6.283   0.308  -2.868  0.00  0.00    +0.000 A 
ATOM     35  C   UNL     1       5.836   0.761  -1.641  0.00  0.00    +0.000 A 
ATOM     36  C   UNL     1       4.486   0.731  -1.343  0.00  0.00    +0.005 A 
ENDBRANCH  30  31
BRANCH  30  38
ATOM     37  C   UNL     1       0.261  -1.224  -1.063  0.00  0.00    +0.006 C 
ATOM     38  C   UNL     1       1.723  -1.214  -1.514  0.00  0.00    +0.024 C 
ENDBRANCH  30  38
ENDBRANCH  26  30
ENDBRANCH   1  27
TORSDOF 6
