REMARK  Name = ZINC39653003
REMARK  13 active torsions:
REMARK  status: ('A' for Active; 'I' for Inactive)
REMARK    1  A    between atoms: C_1  and  O_2
REMARK    2  A    between atoms: O_2  and  C_3
REMARK    3  A    between atoms: C_5  and  C_11
REMARK    4  A    between atoms: C_7  and  O_9
REMARK    5  A    between atoms: O_9  and  C_10
REMARK    6  A    between atoms: C_11  and  C_12
REMARK    7  A    between atoms: C_12  and  N_13
REMARK    8  A    between atoms: C_14  and  C_16
REMARK    9  A    between atoms: C_27  and  C_29
REMARK   10  A    between atoms: C_31  and  O_37
REMARK   11  A    between atoms: C_33  and  O_35
REMARK   12  A    between atoms: O_35  and  C_36
REMARK   13  A    between atoms: O_37  and  C_38
REMARK                            x       y       z     vdW  Elec       q    Type
REMARK                         _______ _______ _______ _____ _____    ______ ____
ROOT
ATOM      1  C   UNL     1      -2.713  -8.969   2.360  0.00  0.00    +0.100 C 
ATOM      2  C   UNL     1      -1.369  -9.226   1.641  0.00  0.00    +0.121 C 
ATOM      3  N   UNL     1      -0.396  -9.448   2.737  0.00  0.00    -0.296 N 
ATOM      4  C   UNL     1      -1.143 -10.246   3.738  0.00  0.00    +0.115 C 
ATOM      5  C   UNL     1      -2.562  -9.643   3.733  0.00  0.00    -0.004 C 
ATOM      6  C   UNL     1      -3.604 -10.745   3.899  0.00  0.00    -0.010 C 
ATOM      7  C   UNL     1      -3.473 -11.361   5.294  0.00  0.00    -0.082 C 
ATOM      8  N   UNL     1      -3.666 -10.320   6.311  0.00  0.00    +0.379 N 
ATOM      9  C   UNL     1      -2.603  -9.313   6.204  0.00  0.00    -0.082 C 
ATOM     10  C   UNL     1      -2.699  -8.610   4.847  0.00  0.00    -0.010 C 
ATOM     11  C   UNL     1       0.881  -9.021   2.807  0.00  0.00    +0.247 C 
ATOM     12  O   UNL     1       1.316  -8.265   1.960  0.00  0.00    -0.270 OA
ATOM     13  H   UNL     1      -4.562  -9.878   6.172  0.00  0.00    -0.086 HD
ATOM     14  H   UNL     1      -3.639 -10.739   7.229  0.00  0.00    -0.086 HD
ENDROOT
BRANCH  11  15
ATOM     15  C   UNL     1       1.751  -9.471   3.914  0.00  0.00    +0.044 A 
ATOM     16  C   UNL     1       1.439 -10.633   4.621  0.00  0.00    +0.059 A 
ATOM     17  C   UNL     1       2.258 -11.052   5.657  0.00  0.00    +0.124 A 
ATOM     18  C   UNL     1       3.386 -10.317   5.992  0.00  0.00    +0.091 A 
ATOM     19  C   UNL     1       3.700  -9.161   5.292  0.00  0.00    +0.124 A 
ATOM     20  C   UNL     1       2.890  -8.739   4.251  0.00  0.00    +0.059 A 
BRANCH  19  21
ATOM     21  O   UNL     1       4.806  -8.446   5.625  0.00  0.00    -0.495 OA
ATOM     22  C   UNL     1       5.599  -8.942   6.705  0.00  0.00    +0.277 C 
ENDBRANCH  19  21
BRANCH  17  23
ATOM     23  O   UNL     1       1.955 -12.183   6.346  0.00  0.00    -0.495 OA
ATOM     24  C   UNL     1       2.842 -12.556   7.402  0.00  0.00    +0.277 C 
ENDBRANCH  17  23
ENDBRANCH  11  15
BRANCH   1  26
ATOM     25  N   UNL     1      -4.198  -7.015   2.670  0.00  0.00    -0.315 N 
ATOM     26  C   UNL     1      -2.945  -7.489   2.524  0.00  0.00    +0.218 C 
ATOM     27  O   UNL     1      -2.004  -6.724   2.526  0.00  0.00    -0.275 OA
ATOM     28  H   UNL     1      -4.951  -7.627   2.670  0.00  0.00    +0.149 HD
BRANCH  25  29
ATOM     29  C   UNL     1      -4.424  -5.577   2.831  0.00  0.00    +0.109 C 
BRANCH  29  30
ATOM     30  C   UNL     1      -5.923  -5.309   2.976  0.00  0.00    +0.054 C 
BRANCH  30  33
ATOM     31  C   UNL     1      -6.571  -1.671   2.178  0.00  0.00    +0.124 A 
ATOM     32  C   UNL     1      -6.356  -3.034   2.028  0.00  0.00    +0.049 A 
ATOM     33  C   UNL     1      -6.156  -3.829   3.141  0.00  0.00    -0.039 A 
ATOM     34  C   UNL     1      -6.168  -3.269   4.404  0.00  0.00    +0.049 A 
ATOM     35  C   UNL     1      -6.382  -1.907   4.558  0.00  0.00    +0.124 A 
ATOM     36  C   UNL     1      -6.578  -1.106   3.443  0.00  0.00    +0.091 A 
BRANCH  31  38
ATOM     37  C   UNL     1      -6.977   0.505   1.311  0.00  0.00    +0.277 C 
ATOM     38  O   UNL     1      -6.768  -0.890   1.083  0.00  0.00    -0.495 OA
ENDBRANCH  31  38
BRANCH  35  39
ATOM     39  O   UNL     1      -6.394  -1.357   5.801  0.00  0.00    -0.495 OA
ATOM     40  C   UNL     1      -6.620   0.051   5.885  0.00  0.00    +0.277 C 
ENDBRANCH  35  39
ENDBRANCH  30  33
ENDBRANCH  29  30
ENDBRANCH  25  29
ENDBRANCH   1  26
TORSDOF 9
