REMARK  Name = ZINC34782007
REMARK  13 active torsions:
REMARK  status: ('A' for Active; 'I' for Inactive)
REMARK    1  A    between atoms: C_1  and  C_2
REMARK    2  A    between atoms: C_2  and  C_3
REMARK    3  A    between atoms: C_2  and  C_4
REMARK    4  A    between atoms: C_4  and  C_5
REMARK    5  A    between atoms: C_5  and  C_7
REMARK    6  A    between atoms: C_5  and  N_19
REMARK    7  A    between atoms: N_9  and  C_10
REMARK    8  A    between atoms: C_13  and  N_16
REMARK    9  A    between atoms: C_20  and  C_22
REMARK   10  A    between atoms: C_25  and  C_27
REMARK   11  A    between atoms: C_27  and  C_29
REMARK   12  A    between atoms: C_27  and  N_36
REMARK   13  A    between atoms: C_29  and  C_30
REMARK                            x       y       z     vdW  Elec       q    Type
REMARK                         _______ _______ _______ _____ _____    ______ ____
ROOT
ATOM      1  N   UNL     1       2.840   1.384  -0.977  0.00  0.00    -0.299 N 
ATOM      2  C   UNL     1       2.955   1.758   0.313  0.00  0.00    +0.266 C 
ATOM      3  O   UNL     1       2.725   0.960   1.201  0.00  0.00    -0.268 OA
ATOM      4  H   UNL     1       3.094   1.997  -1.685  0.00  0.00    +0.150 HD
ENDROOT
BRANCH   2   5
ATOM      5  C   UNL     1       3.362   3.136   0.647  0.00  0.00    +0.163 A 
ATOM      6  C   UNL     1       3.525   3.650   1.896  0.00  0.00    +0.230 A 
ATOM      7  O   UNL     1       3.899   4.931   1.747  0.00  0.00    -0.449 OA
ATOM      8  C   UNL     1       3.965   5.198   0.435  0.00  0.00    +0.182 A 
ATOM      9  N   UNL     1       3.651   4.130  -0.236  0.00  0.00    -0.210 NA
BRANCH   8  10
ATOM     10  C   UNL     1       4.348   6.525  -0.168  0.00  0.00    +0.017 C 
BRANCH  10  11
ATOM     11  N   UNL     1       3.651   7.605   0.544  0.00  0.00    +0.386 N 
ATOM     12  H   UNL     1       3.907   8.493   0.141  0.00  0.00    -0.089 HD
ATOM     13  H   UNL     1       2.654   7.473   0.462  0.00  0.00    -0.089 HD
ATOM     14  H   UNL     1       3.912   7.589   1.518  0.00  0.00    -0.089 HD
ENDBRANCH  10  11
BRANCH  10  15
ATOM     15  C   UNL     1       5.859   6.725  -0.042  0.00  0.00    +0.028 C 
BRANCH  15  16
ATOM     16  C   UNL     1       6.259   7.993  -0.752  0.00  0.00    -0.048 A 
ATOM     17  C   UNL     1       6.602   7.957  -2.091  0.00  0.00    +0.003 A 
ATOM     18  C   UNL     1       6.969   9.120  -2.741  0.00  0.00    +0.000 A 
ATOM     19  C   UNL     1       6.992  10.319  -2.054  0.00  0.00    +0.000 A 
ATOM     20  C   UNL     1       6.648  10.355  -0.716  0.00  0.00    +0.000 A 
ATOM     21  C   UNL     1       6.277   9.193  -0.066  0.00  0.00    +0.003 A 
ENDBRANCH  15  16
ENDBRANCH  10  15
ENDBRANCH   8  10
ENDBRANCH   2   5
BRANCH   1  22
ATOM     22  C   UNL     1       2.330   0.052  -1.310  0.00  0.00    +0.160 C 
BRANCH  22  23
ATOM     23  C   UNL     1       2.910  -0.393  -2.628  0.00  0.00    +0.238 C 
ATOM     24  O   UNL     1       3.370   0.426  -3.395  0.00  0.00    -0.273 OA
ATOM     25  N   UNL     1       2.917  -1.701  -2.954  0.00  0.00    -0.284 N 
ATOM     26  H   UNL     1       2.483  -2.347  -2.375  0.00  0.00    +0.155 HD
BRANCH  25  27
ATOM     27  C   UNL     1       3.551  -2.126  -4.127  0.00  0.00    +0.034 A 
ATOM     28  C   UNL     1       4.202  -3.352  -4.161  0.00  0.00    +0.025 A 
ATOM     29  C   UNL     1       4.826  -3.769  -5.320  0.00  0.00    +0.034 A 
ATOM     30  C   UNL     1       4.804  -2.966  -6.446  0.00  0.00    +0.126 A 
ATOM     31  C   UNL     1       4.158  -1.744  -6.415  0.00  0.00    +0.034 A 
ATOM     32  C   UNL     1       3.526  -1.325  -5.261  0.00  0.00    +0.025 A 
BRANCH  30  33
ATOM     33  N   UNL     1       5.475  -3.416  -7.686  0.00  0.00    +0.056 N 
ATOM     34  O   UNL     1       6.041  -4.484  -7.715  0.00  0.00    -0.126 OA
ATOM     35  O   UNL     1       5.456  -2.716  -8.671  0.00  0.00    -0.126 OA
ENDBRANCH  30  33
ENDBRANCH  25  27
ENDBRANCH  22  23
BRANCH  22  36
ATOM     36  C   UNL     1       0.804   0.101  -1.415  0.00  0.00    +0.034 C 
BRANCH  36  38
ATOM     37  C   UNL     1       0.525  -2.163  -0.394  0.00  0.00    +0.007 C 
ATOM     38  C   UNL     1       0.263  -1.312  -1.639  0.00  0.00    -0.015 C 
ATOM     39  C   UNL     1      -1.243  -1.246  -1.902  0.00  0.00    +0.007 C 
ENDBRANCH  36  38
ENDBRANCH  22  36
ENDBRANCH   1  22
TORSDOF 11
