REMARK  Name = ZINC26127922
REMARK  8 active torsions:
REMARK  status: ('A' for Active; 'I' for Inactive)
REMARK    1  A    between atoms: C_1  and  C_2
REMARK    2  A    between atoms: C_3  and  C_7
REMARK    3  A    between atoms: C_10  and  S_13
REMARK    4  A    between atoms: N_11  and  N_12
REMARK    5  A    between atoms: S_13  and  C_14
REMARK    6  A    between atoms: C_14  and  C_16
REMARK    7  A    between atoms: C_14  and  C_17
REMARK    8  A    between atoms: N_19  and  C_20
REMARK                            x       y       z     vdW  Elec       q    Type
REMARK                         _______ _______ _______ _____ _____    ______ ____
ROOT
ATOM      1  C   UNL     1      -2.132   7.259  -0.950  0.00  0.00    +0.137 C 
ATOM      2  C   UNL     1      -3.235   7.749  -0.009  0.00  0.00    +0.029 C 
ENDROOT
BRANCH   1   3
ATOM      3  C   UNL     1      -2.112   5.752  -0.958  0.00  0.00    +0.227 C 
ATOM      4  O   UNL     1      -2.637   5.143  -1.866  0.00  0.00    -0.275 OA
ATOM      5  N   UNL     1      -1.510   5.081   0.044  0.00  0.00    -0.309 N 
ATOM      6  H   UNL     1      -1.033   5.633   0.867  0.00  0.00    +0.149 HD
BRANCH   5   7
ATOM      7  C   UNL     1      -1.490   3.616   0.036  0.00  0.00    +0.035 C 
ATOM      8  C   UNL     1      -0.773   3.123  -1.223  0.00  0.00    +0.029 C 
ATOM      9  C   UNL     1      -0.753   1.593  -1.232  0.00  0.00    -0.008 C 
ATOM     10  C   UNL     1      -0.013   1.086   0.008  0.00  0.00    +0.007 C 
ATOM     11  C   UNL     1      -0.729   1.579   1.267  0.00  0.00    -0.008 C 
ATOM     12  C   UNL     1      -0.750   3.109   1.275  0.00  0.00    +0.029 C 
ATOM     13  C   UNL     1      -2.164   1.050   1.278  0.00  0.00    +0.007 C 
ATOM     14  C   UNL     1      -2.904   1.556   0.038  0.00  0.00    -0.008 C 
ATOM     15  C   UNL     1      -2.188   1.063  -1.221  0.00  0.00    +0.007 C 
ATOM     16  C   UNL     1      -2.925   3.086   0.047  0.00  0.00    +0.029 C 
ENDBRANCH   5   7
ENDBRANCH   1   3
BRANCH   1  17
ATOM     17  S   UNL     1      -2.453   7.867  -2.624  0.00  0.00    -0.072 S 
BRANCH  17  21
ATOM     18  C   UNL     1      -2.184  11.765  -2.636  0.00  0.00    +0.185 A 
ATOM     19  N   UNL     1      -1.934  11.462  -1.384  0.00  0.00    -0.127 NA
ATOM     20  N   UNL     1      -1.993  10.189  -1.220  0.00  0.00    -0.121 NA
ATOM     21  C   UNL     1      -2.275   9.600  -2.359  0.00  0.00    +0.209 A 
ATOM     22  N   UNL     1      -2.410  10.582  -3.300  0.00  0.00    -0.224 N 
BRANCH  18  25
ATOM     23  C   UNL     1      -1.680  14.459  -1.114  0.00  0.00    +0.087 C 
ATOM     24  C   UNL     1      -2.002  14.301  -2.578  0.00  0.00    +0.112 A 
ATOM     25  C   UNL     1      -2.218  13.123  -3.222  0.00  0.00    +0.061 A 
ATOM     26  C   UNL     1      -2.497  13.479  -4.619  0.00  0.00    +0.053 A 
ATOM     27  C   UNL     1      -2.419  14.818  -4.684  0.00  0.00    +0.196 A 
ATOM     28  O   UNL     1      -2.121  15.298  -3.467  0.00  0.00    -0.467 OA
ENDBRANCH  18  25
BRANCH  22  29
ATOM     29  N   UNL     1      -2.709  10.423  -4.624  0.00  0.00    -0.295 N 
ATOM     30  H   UNL     1      -2.868   9.414  -5.034  0.00  0.00    +0.163 HD
ATOM     31  H   UNL     1      -2.790  11.302  -5.279  0.00  0.00    +0.163 HD
ENDBRANCH  22  29
ENDBRANCH  17  21
ENDBRANCH   1  17
TORSDOF 6
