REMARK  Name = ZINC22475609
REMARK  3 active torsions:
REMARK  status: ('A' for Active; 'I' for Inactive)
REMARK    1  A    between atoms: C_4  and  C_11
REMARK    2  A    between atoms: N_14  and  S_17
REMARK    3  A    between atoms: S_17  and  C_20
REMARK                            x       y       z     vdW  Elec       q    Type
REMARK                         _______ _______ _______ _____ _____    ______ ____
ROOT
ATOM      1  C   UNL     1       0.002  -0.004   0.002  0.00  0.00    -0.040 C 
ATOM      2  C   UNL     1      -0.016   1.308   0.009  0.00  0.00    -0.006 C 
ATOM      3  C   UNL     1       1.228   2.153   0.002  0.00  0.00    +0.137 C 
ATOM      4  N   UNL     1       2.395   1.296   0.252  0.00  0.00    -0.172 NA
ATOM      5  C   UNL     1       2.449   0.004  -0.454  0.00  0.00    +0.114 C 
ATOM      6  C   UNL     1       1.252  -0.834   0.003  0.00  0.00    +0.052 C 
ENDROOT
BRANCH   1  10
ATOM      7  C   UNL     1      -3.281  -0.805   3.256  0.00  0.00    +0.020 A 
ATOM      8  C   UNL     1      -2.204  -0.461   2.458  0.00  0.00    +0.013 A 
ATOM      9  C   UNL     1      -2.219  -0.870   1.125  0.00  0.00    +0.026 A 
ATOM     10  C   UNL     1      -1.294  -0.711  -0.008  0.00  0.00    +0.005 A 
ATOM     11  C   UNL     1      -1.870  -1.336  -1.067  0.00  0.00    +0.093 A 
ATOM     12  N   UNL     1      -3.065  -1.876  -0.689  0.00  0.00    -0.345 N 
ATOM     13  H   UNL     1      -3.674  -2.429  -1.418  0.00  0.00    +0.167 HD
ATOM     14  C   UNL     1      -3.312  -1.609   0.638  0.00  0.00    +0.139 A 
ATOM     15  N   UNL     1      -4.318  -1.911   1.449  0.00  0.00    -0.237 NA
ATOM     16  C   UNL     1      -4.325  -1.535   2.711  0.00  0.00    +0.113 A 
ENDBRANCH   1  10
BRANCH   4  17
ATOM     17  S   UNL     1       3.601   1.763   1.286  0.00  0.00    +0.063 S 
ATOM     18  O   UNL     1       3.026   2.703   2.183  0.00  0.00    -0.153 OA
ATOM     19  O   UNL     1       4.237   0.573   1.733  0.00  0.00    -0.153 OA
BRANCH  17  20
ATOM     20  C   UNL     1       4.793   2.643   0.332  0.00  0.00    +0.124 A 
ATOM     21  C   UNL     1       5.853   1.971  -0.260  0.00  0.00    +0.033 A 
ATOM     22  C   UNL     1       6.764   2.702  -1.006  0.00  0.00    +0.042 A 
ATOM     23  C   UNL     1       6.593   4.070  -1.126  0.00  0.00    +0.129 A 
ATOM     24  N   UNL     1       5.575   4.676  -0.544  0.00  0.00    -0.242 NA
ATOM     25  C   UNL     1       4.687   4.010   0.169  0.00  0.00    +0.141 A 
ATOM     26 CL   UNL     1       7.730   5.000  -2.051  0.00  0.00    -0.062 Cl
ENDBRANCH  17  20
ENDBRANCH   4  17
TORSDOF 3
