REMARK  Name = ZINC36530987
REMARK  8 active torsions:
REMARK  status: ('A' for Active; 'I' for Inactive)
REMARK    1  A    between atoms: C_1  and  N_2
REMARK    2  A    between atoms: N_2  and  C_3
REMARK    3  A    between atoms: C_3  and  C_5
REMARK    4  A    between atoms: C_3  and  C_19
REMARK    5  A    between atoms: N_21  and  C_22
REMARK    6  A    between atoms: C_28  and  C_30
REMARK    7  A    between atoms: C_31  and  O_37
REMARK    8  A    between atoms: C_35  and  O_36
REMARK                            x       y       z     vdW  Elec       q    Type
REMARK                         _______ _______ _______ _____ _____    ______ ____
ROOT
ATOM      1  C   UNL     1       0.146  -0.749   1.266  0.00  0.00    +0.193 C 
ENDROOT
BRANCH   1   2
ATOM      2  C   UNL     1      -1.186  -0.150   1.637  0.00  0.00    -0.010 A 
ATOM      3  C   UNL     1      -1.219   1.002   2.337  0.00  0.00    +0.015 A 
ATOM      4  C   UNL     1      -2.444   1.604   2.710  0.00  0.00    -0.017 A 
ATOM      5  C   UNL     1      -2.467   2.803   3.437  0.00  0.00    +0.008 A 
ATOM      6  C   UNL     1      -3.663   3.361   3.782  0.00  0.00    +0.001 A 
ATOM      7  C   UNL     1      -4.863   2.758   3.424  0.00  0.00    +0.001 A 
ATOM      8  C   UNL     1      -4.873   1.591   2.716  0.00  0.00    +0.009 A 
ATOM      9  C   UNL     1      -3.666   0.994   2.347  0.00  0.00    -0.010 A 
ATOM     10  C   UNL     1      -3.630  -0.258   1.587  0.00  0.00    -0.010 A 
ATOM     11  C   UNL     1      -2.374  -0.806   1.240  0.00  0.00    -0.012 A 
ATOM     12  C   UNL     1      -2.330  -2.001   0.508  0.00  0.00    +0.009 A 
ATOM     13  C   UNL     1      -3.491  -2.612   0.138  0.00  0.00    +0.001 A 
ATOM     14  C   UNL     1      -4.724  -2.067   0.476  0.00  0.00    +0.001 A 
ATOM     15  C   UNL     1      -4.802  -0.911   1.199  0.00  0.00    +0.009 A 
ENDBRANCH   1   2
BRANCH   1  17
ATOM     16  C   UNL     1       0.382   0.875  -0.669  0.00  0.00    +0.133 C 
ATOM     17  N   UNL     1       0.417  -0.495  -0.151  0.00  0.00    -0.285 N 
ATOM     18  C   UNL     1       0.700  -1.521  -0.978  0.00  0.00    +0.254 C 
ATOM     19  O   UNL     1       0.729  -2.659  -0.547  0.00  0.00    -0.270 OA
BRANCH  18  20
ATOM     20  C   UNL     1       0.973  -1.266  -2.402  0.00  0.00    +0.119 A 
ATOM     21  C   UNL     1       2.284  -1.025  -2.837  0.00  0.00    +0.133 A 
ATOM     22  C   UNL     1       2.530  -0.786  -4.180  0.00  0.00    +0.046 A 
ATOM     23  C   UNL     1       1.488  -0.785  -5.089  0.00  0.00    +0.007 A 
ATOM     24  C   UNL     1       0.192  -1.021  -4.670  0.00  0.00    +0.046 A 
ATOM     25  C   UNL     1      -0.076  -1.268  -3.333  0.00  0.00    +0.133 A 
BRANCH  25  26
ATOM     26  O   UNL     1      -1.348  -1.505  -2.926  0.00  0.00    -0.506 OA
ATOM     27  H   UNL     1      -1.836  -0.709  -2.676  0.00  0.00    +0.292 HD
ENDBRANCH  25  26
BRANCH  21  28
ATOM     28  O   UNL     1       3.308  -1.025  -1.947  0.00  0.00    -0.506 OA
ATOM     29  H   UNL     1       3.720  -1.891  -1.822  0.00  0.00    +0.292 HD
ENDBRANCH  21  28
ENDBRANCH  18  20
ENDBRANCH   1  17
BRANCH   1  30
ATOM     30  C   UNL     1       1.230  -0.123   2.106  0.00  0.00    +0.238 C 
ATOM     31  O   UNL     1       1.950   0.728   1.629  0.00  0.00    -0.273 OA
ATOM     32  N   UNL     1       1.399  -0.510   3.385  0.00  0.00    -0.311 N 
ATOM     33  H   UNL     1       0.868  -1.238   3.746  0.00  0.00    +0.149 HD
BRANCH  32  34
ATOM     34  C   UNL     1       2.383   0.168   4.232  0.00  0.00    +0.073 C 
ATOM     35  C   UNL     1       3.761  -0.460   4.014  0.00  0.00    +0.022 C 
ATOM     36  C   UNL     1       4.790   0.248   4.898  0.00  0.00    +0.002 C 
ATOM     37  C   UNL     1       4.389   0.100   6.367  0.00  0.00    +0.000 C 
ATOM     38  C   UNL     1       3.010   0.728   6.585  0.00  0.00    +0.002 C 
ATOM     39  C   UNL     1       1.982   0.020   5.701  0.00  0.00    +0.022 C 
ENDBRANCH  32  34
ENDBRANCH   1  30
TORSDOF 7
