REMARK  Name = ZINC41584980
REMARK  7 active torsions:
REMARK  status: ('A' for Active; 'I' for Inactive)
REMARK    1  A    between atoms: C_4  and  C_7
REMARK    2  A    between atoms: C_7  and  N_8
REMARK    3  A    between atoms: N_11  and  C_14
REMARK    4  A    between atoms: C_14  and  C_15
REMARK    5  A    between atoms: C_16  and  O_34
REMARK    6  A    between atoms: C_23  and  O_26
REMARK    7  A    between atoms: O_26  and  C_27
REMARK                            x       y       z     vdW  Elec       q    Type
REMARK                         _______ _______ _______ _____ _____    ______ ____
ROOT
ATOM      1  C   UNL     1       6.738  -3.843   4.758  0.00  0.00    +0.051 A 
ATOM      2  C   UNL     1       6.683  -5.223   4.865  0.00  0.00    +0.125 A 
ATOM      3  C   UNL     1       7.853  -5.972   4.970  0.00  0.00    +0.046 A 
ATOM      4  C   UNL     1       9.072  -5.355   4.968  0.00  0.00    +0.019 A 
ATOM      5  C   UNL     1       9.143  -3.966   4.861  0.00  0.00    +0.068 A 
ATOM      6  C   UNL     1       7.968  -3.201   4.750  0.00  0.00    +0.147 A 
ATOM      7  O   UNL     1       8.050  -1.860   4.642  0.00  0.00    -0.459 OA
ATOM      8  C   UNL     1       9.221  -1.210   4.631  0.00  0.00    +0.245 A 
ATOM      9  C   UNL     1      10.407  -1.844   4.727  0.00  0.00    +0.210 A 
ATOM     10  C   UNL     1      10.437  -3.262   4.856  0.00  0.00    +0.235 A 
ATOM     11  O   UNL     1      11.491  -3.869   4.945  0.00  0.00    -0.283 OA
ENDROOT
BRANCH   2  12
ATOM     12  O   UNL     1       5.479  -5.850   4.868  0.00  0.00    -0.506 OA
ATOM     13  H   UNL     1       5.165  -6.101   3.989  0.00  0.00    +0.292 HD
ENDBRANCH   2  12
BRANCH   1  14
ATOM     14  C   UNL     1       5.466  -3.042   4.645  0.00  0.00    +0.126 C 
BRANCH  14  18
ATOM     15  N   UNL     1       4.371  -1.409   0.903  0.00  0.00    +0.384 N 
ATOM     16  C   UNL     1       3.392  -2.252   1.602  0.00  0.00    -0.063 C 
ATOM     17  C   UNL     1       3.754  -2.331   3.087  0.00  0.00    +0.066 C 
ATOM     18  N   UNL     1       5.103  -2.897   3.229  0.00  0.00    -0.301 NA
ATOM     19  C   UNL     1       6.091  -2.077   2.514  0.00  0.00    +0.066 C 
ATOM     20  C   UNL     1       5.710  -1.999   1.034  0.00  0.00    -0.063 C 
ATOM     21  H   UNL     1       4.370  -0.485   1.310  0.00  0.00    -0.081 HD
BRANCH  15  22
ATOM     22  C   UNL     1       4.013  -1.318  -0.518  0.00  0.00    -0.043 C 
BRANCH  22  26
ATOM     23  C   UNL     1       0.277   0.714  -0.920  0.00  0.00    +0.000 A 
ATOM     24  C   UNL     1       1.458   1.431  -0.933  0.00  0.00    +0.000 A 
ATOM     25  C   UNL     1       2.667   0.774  -0.803  0.00  0.00    +0.002 A 
ATOM     26  C   UNL     1       2.695  -0.601  -0.659  0.00  0.00    -0.064 A 
ATOM     27  C   UNL     1       1.513  -1.318  -0.646  0.00  0.00    +0.002 A 
ATOM     28  C   UNL     1       0.304  -0.661  -0.778  0.00  0.00    +0.000 A 
ENDBRANCH  22  26
ENDBRANCH  15  22
ENDBRANCH  14  18
ENDBRANCH   1  14
BRANCH   9  29
ATOM     29  O   UNL     1      11.568  -1.133   4.710  0.00  0.00    -0.448 OA
BRANCH  29  30
ATOM     30  C   UNL     1      12.398  -1.291   3.646  0.00  0.00    +0.143 A 
ATOM     31  C   UNL     1      12.002  -2.066   2.565  0.00  0.00    +0.047 A 
ATOM     32  C   UNL     1      12.847  -2.225   1.484  0.00  0.00    +0.004 A 
ATOM     33  C   UNL     1      14.087  -1.613   1.478  0.00  0.00    +0.001 A 
ATOM     34  C   UNL     1      14.485  -0.840   2.554  0.00  0.00    +0.019 A 
ATOM     35  C   UNL     1      13.641  -0.673   3.635  0.00  0.00    +0.060 A 
ATOM     36 BR   UNL     1      14.181   0.390   5.103  0.00  0.00    -0.046 Br
ENDBRANCH  29  30
ENDBRANCH   9  29
TORSDOF 7
