REMARK  Name = ZINC39681126
REMARK  6 active torsions:
REMARK  status: ('A' for Active; 'I' for Inactive)
REMARK    1  A    between atoms: C_1  and  C_2
REMARK    2  A    between atoms: C_2  and  C_4
REMARK    3  A    between atoms: C_2  and  N_10
REMARK    4  A    between atoms: C_11  and  C_13
REMARK    5  A    between atoms: C_24  and  C_26
REMARK    6  A    between atoms: C_29  and  C_31
REMARK                            x       y       z     vdW  Elec       q    Type
REMARK                         _______ _______ _______ _____ _____    ______ ____
ROOT
ATOM      1  C   UNL     1       0.712  -1.094  -3.598  0.00  0.00    +0.100 C 
ATOM      2  C   UNL     1       1.342  -2.483  -3.349  0.00  0.00    +0.121 C 
ATOM      3  N   UNL     1       0.333  -3.447  -3.848  0.00  0.00    -0.294 N 
ATOM      4  C   UNL     1      -0.202  -2.817  -5.079  0.00  0.00    +0.115 C 
ATOM      5  C   UNL     1      -0.298  -1.317  -4.737  0.00  0.00    -0.004 C 
ATOM      6  C   UNL     1       0.078  -0.473  -5.950  0.00  0.00    -0.010 C 
ATOM      7  C   UNL     1      -0.973  -0.667  -7.047  0.00  0.00    -0.082 C 
ATOM      8  N   UNL     1      -2.291  -0.269  -6.540  0.00  0.00    +0.379 N 
ATOM      9  C   UNL     1      -2.687  -1.147  -5.431  0.00  0.00    -0.082 C 
ATOM     10  C   UNL     1      -1.709  -0.973  -4.266  0.00  0.00    -0.010 C 
ATOM     11  C   UNL     1      -0.019  -4.629  -3.304  0.00  0.00    +0.282 C 
ATOM     12  O   UNL     1      -0.873  -5.314  -3.837  0.00  0.00    -0.267 OA
ATOM     13  H   UNL     1      -2.251   0.685  -6.214  0.00  0.00    -0.086 HD
ATOM     14  H   UNL     1      -2.971  -0.340  -7.282  0.00  0.00    -0.086 HD
ENDROOT
BRANCH  11  15
ATOM     15  C   UNL     1       0.625  -5.090  -2.073  0.00  0.00    +0.190 A 
ATOM     16  C   UNL     1       0.366  -6.274  -1.418  0.00  0.00    +0.055 A 
ATOM     17  C   UNL     1       1.201  -6.307  -0.297  0.00  0.00    +0.051 A 
ATOM     18  C   UNL     1       1.933  -5.154  -0.308  0.00  0.00    +0.139 A 
ATOM     19  O   UNL     1       1.582  -4.431  -1.385  0.00  0.00    -0.450 OA
BRANCH  18  20
ATOM     20  C   UNL     1       2.947  -4.769   0.694  0.00  0.00    +0.052 A 
ATOM     21  C   UNL     1       2.646  -4.832   2.057  0.00  0.00    +0.014 A 
ATOM     22  C   UNL     1       3.597  -4.470   2.987  0.00  0.00    +0.001 A 
ATOM     23  C   UNL     1       4.848  -4.045   2.576  0.00  0.00    +0.003 A 
ATOM     24  C   UNL     1       5.155  -3.979   1.229  0.00  0.00    +0.039 A 
ATOM     25  C   UNL     1       4.215  -4.344   0.284  0.00  0.00    +0.134 A 
ATOM     26  F   UNL     1       4.517  -4.285  -1.031  0.00  0.00    -0.205 F 
ENDBRANCH  18  20
ENDBRANCH  11  15
BRANCH   1  28
ATOM     27  N   UNL     1      -0.107   0.714  -2.122  0.00  0.00    -0.308 N 
ATOM     28  C   UNL     1       0.006  -0.608  -2.358  0.00  0.00    +0.219 C 
ATOM     29  O   UNL     1      -0.459  -1.407  -1.573  0.00  0.00    -0.275 OA
ATOM     30  H   UNL     1       0.265   1.353  -2.750  0.00  0.00    +0.149 HD
BRANCH  27  32
ATOM     31  C   UNL     1      -2.299   1.253  -1.180  0.00  0.00    +0.033 C 
ATOM     32  C   UNL     1      -0.793   1.186  -0.917  0.00  0.00    +0.100 C 
BRANCH  32  33
ATOM     33  C   UNL     1      -0.285   2.558  -0.555  0.00  0.00    -0.025 A 
ATOM     34  C   UNL     1      -0.035   3.504  -1.537  0.00  0.00    +0.025 A 
ATOM     35  C   UNL     1       0.431   4.752  -1.168  0.00  0.00    +0.111 A 
ATOM     36  N   UNL     1       0.637   5.046   0.101  0.00  0.00    -0.263 NA
ATOM     37  C   UNL     1       0.410   4.172   1.062  0.00  0.00    +0.111 A 
ATOM     38  C   UNL     1      -0.062   2.906   0.768  0.00  0.00    +0.025 A 
ENDBRANCH  32  33
ENDBRANCH  27  32
ENDBRANCH   1  28
TORSDOF 5
