REMARK  Name = ZINC39684100
REMARK  6 active torsions:
REMARK  status: ('A' for Active; 'I' for Inactive)
REMARK    1  A    between atoms: C_1  and  C_2
REMARK    2  A    between atoms: C_7  and  C_11
REMARK    3  A    between atoms: C_11  and  C_12
REMARK    4  A    between atoms: C_12  and  N_13
REMARK    5  A    between atoms: C_14  and  C_16
REMARK    6  A    between atoms: C_27  and  C_29
REMARK                            x       y       z     vdW  Elec       q    Type
REMARK                         _______ _______ _______ _____ _____    ______ ____
ROOT
ATOM      1  C   UNL     1      -9.143   2.159  -6.491  0.00  0.00    +0.100 C 
ATOM      2  C   UNL     1      -8.328   3.156  -7.345  0.00  0.00    +0.121 C 
ATOM      3  N   UNL     1      -7.939   2.387  -8.550  0.00  0.00    -0.296 N 
ATOM      4  C   UNL     1      -9.134   1.570  -8.867  0.00  0.00    +0.115 C 
ATOM      5  C   UNL     1      -9.674   1.122  -7.494  0.00  0.00    -0.004 C 
ATOM      6  C   UNL     1     -11.199   1.124  -7.500  0.00  0.00    -0.010 C 
ATOM      7  C   UNL     1     -11.703   0.044  -8.461  0.00  0.00    -0.082 C 
ATOM      8  N   UNL     1     -11.197  -1.267  -8.037  0.00  0.00    +0.379 N 
ATOM      9  C   UNL     1      -9.732  -1.290  -8.124  0.00  0.00    -0.082 C 
ATOM     10  C   UNL     1      -9.145  -0.267  -7.148  0.00  0.00    -0.010 C 
ATOM     11  C   UNL     1      -6.763   2.421  -9.208  0.00  0.00    +0.247 C 
ATOM     12  O   UNL     1      -5.829   3.051  -8.752  0.00  0.00    -0.270 OA
ATOM     13  H   UNL     1     -11.479  -1.442  -7.084  0.00  0.00    -0.086 HD
ATOM     14  H   UNL     1     -11.580  -1.983  -8.635  0.00  0.00    -0.086 HD
ENDROOT
BRANCH  11  15
ATOM     15  C   UNL     1      -6.610   1.694 -10.486  0.00  0.00    +0.040 A 
ATOM     16  C   UNL     1      -7.736   1.344 -11.232  0.00  0.00    +0.033 A 
ATOM     17  C   UNL     1      -7.587   0.664 -12.425  0.00  0.00    +0.043 A 
ATOM     18  C   UNL     1      -6.323   0.330 -12.881  0.00  0.00    +0.040 A 
ATOM     19  C   UNL     1      -5.202   0.674 -12.145  0.00  0.00    +0.043 A 
ATOM     20  C   UNL     1      -5.338   1.359 -10.954  0.00  0.00    +0.033 A 
ATOM     21 CL   UNL     1      -3.622   0.250 -12.725  0.00  0.00    -0.083 Cl
ATOM     22 CL   UNL     1      -8.987   0.227 -13.354  0.00  0.00    -0.083 Cl
ENDBRANCH  11  15
BRANCH   1  24
ATOM     23  N   UNL     1      -8.791   0.979  -4.346  0.00  0.00    -0.315 N 
ATOM     24  C   UNL     1      -8.255   1.496  -5.470  0.00  0.00    +0.218 C 
ATOM     25  O   UNL     1      -7.059   1.427  -5.659  0.00  0.00    -0.275 OA
ATOM     26  H   UNL     1      -9.747   1.034  -4.195  0.00  0.00    +0.149 HD
BRANCH  23  27
ATOM     27  C   UNL     1      -7.928   0.334  -3.353  0.00  0.00    +0.109 C 
BRANCH  27  28
ATOM     28  C   UNL     1      -8.780  -0.163  -2.183  0.00  0.00    +0.056 C 
BRANCH  28  35
ATOM     29  C   UNL     1      -4.936  -1.926   2.447  0.00  0.00    +0.046 C 
ATOM     30  C   UNL     1      -5.673  -0.849   1.694  0.00  0.00    -0.027 A 
ATOM     31  C   UNL     1      -5.558   0.468   2.082  0.00  0.00    +0.005 A 
ATOM     32  C   UNL     1      -6.231   1.470   1.396  0.00  0.00    +0.001 A 
ATOM     33  C   UNL     1      -7.021   1.166   0.323  0.00  0.00    +0.010 A 
ATOM     34  C   UNL     1      -7.152  -0.162  -0.087  0.00  0.00    +0.003 A 
ATOM     35  C   UNL     1      -7.893  -0.827  -1.162  0.00  0.00    -0.021 A 
ATOM     36  C   UNL     1      -7.631  -2.140  -1.064  0.00  0.00    +0.087 A 
ATOM     37  N   UNL     1      -6.784  -2.370  -0.015  0.00  0.00    -0.360 N 
ATOM     38  C   UNL     1      -6.467  -1.180   0.601  0.00  0.00    +0.050 A 
ATOM     39  H   UNL     1      -6.453  -3.242   0.253  0.00  0.00    +0.165 HD
ENDBRANCH  28  35
ENDBRANCH  27  28
ENDBRANCH  23  27
ENDBRANCH   1  24
TORSDOF 5
