REMARK  Name = ZINC40568838
REMARK  10 active torsions:
REMARK  status: ('A' for Active; 'I' for Inactive)
REMARK    1  A    between atoms: C_1  and  C_2
REMARK    2  A    between atoms: C_2  and  O_3
REMARK    3  A    between atoms: O_3  and  C_4
REMARK    4  A    between atoms: C_4  and  C_6
REMARK    5  A    between atoms: C_7  and  N_30
REMARK    6  A    between atoms: C_11  and  C_15
REMARK    7  A    between atoms: C_15  and  C_16
REMARK    8  A    between atoms: C_15  and  C_17
REMARK    9  A    between atoms: C_15  and  C_18
REMARK   10  A    between atoms: N_26  and  C_29
REMARK                            x       y       z     vdW  Elec       q    Type
REMARK                         _______ _______ _______ _____ _____    ______ ____
ROOT
ATOM      1  C   UNL     1      -0.709  -1.496  -3.329  0.00  0.00    +0.117 C 
ATOM      2  C   UNL     1      -1.225  -2.701  -3.681  0.00  0.00    +0.198 C 
ATOM      3  O   UNL     1      -0.709  -3.479  -4.652  0.00  0.00    -0.424 OA
ATOM      4  C   UNL     1       0.207  -2.930  -5.488  0.00  0.00    +0.223 A 
ATOM      5  C   UNL     1       0.811  -1.728  -5.233  0.00  0.00    +0.062 A 
ATOM      6  C   UNL     1       1.685  -1.458  -6.277  0.00  0.00    +0.077 A 
ATOM      7  N   UNL     1       1.620  -2.451  -7.132  0.00  0.00    -0.175 NA
ATOM      8  N   UNL     1       0.693  -3.389  -6.652  0.00  0.00    -0.246 N 
ATOM      9  H   UNL     1       0.447  -4.222  -7.084  0.00  0.00    +0.192 HD
ATOM     10  C   UNL     1       0.501  -0.918  -4.008  0.00  0.00    +0.142 C 
ATOM     11  C   UNL     1       1.674  -0.870  -3.081  0.00  0.00    -0.002 A 
ATOM     12  C   UNL     1       2.355  -1.866  -2.414  0.00  0.00    +0.007 A 
ATOM     13  C   UNL     1       3.423  -1.474  -1.615  0.00  0.00    +0.000 A 
ATOM     14  C   UNL     1       3.782  -0.147  -1.496  0.00  0.00    +0.002 A 
ATOM     15  C   UNL     1       3.102   0.860  -2.162  0.00  0.00    +0.024 A 
ATOM     16  C   UNL     1       2.027   0.480  -2.968  0.00  0.00    +0.041 A 
ATOM     17  N   UNL     1       1.183   1.265  -3.734  0.00  0.00    -0.273 N 
ATOM     18  C   UNL     1       0.255   0.528  -4.379  0.00  0.00    +0.240 C 
ATOM     19  O   UNL     1      -0.613   0.945  -5.117  0.00  0.00    -0.274 OA
ATOM     20  C   UNL     1       1.286   2.723  -3.833  0.00  0.00    +0.138 C 
ENDROOT
BRANCH   6  21
ATOM     21  C   UNL     1       2.558  -0.236  -6.405  0.00  0.00    +0.007 C 
ATOM     22  C   UNL     1       3.523  -0.172  -5.220  0.00  0.00    +0.017 C 
ATOM     23  C   UNL     1       3.356  -0.314  -7.709  0.00  0.00    +0.017 C 
ATOM     24  C   UNL     1       1.682   1.018  -6.418  0.00  0.00    +0.017 C 
ENDBRANCH   6  21
BRANCH   2  25
ATOM     25  N   UNL     1      -2.333  -3.150  -3.013  0.00  0.00    -0.329 N 
ATOM     26  H   UNL     1      -2.842  -2.542  -2.454  0.00  0.00    +0.145 HD
ATOM     27  H   UNL     1      -2.608  -4.077  -3.098  0.00  0.00    +0.145 HD
ENDBRANCH   2  25
BRANCH   1  28
ATOM     28  C   UNL     1      -1.328  -0.765  -2.304  0.00  0.00    +0.342 C 
ATOM     29  O   UNL     1      -0.800  -0.686  -1.208  0.00  0.00    -0.245 OA
BRANCH  28  30
ATOM     30  O   UNL     1      -2.508  -0.149  -2.531  0.00  0.00    -0.462 OA
BRANCH  30  32
ATOM     31  C   UNL     1      -4.405   1.202  -1.886  0.00  0.00    +0.048 C 
ATOM     32  C   UNL     1      -3.081   0.578  -1.442  0.00  0.00    +0.229 C 
ENDBRANCH  30  32
ENDBRANCH  28  30
ENDBRANCH   1  28
TORSDOF 5
