REMARK  Name = ZINC04651295
REMARK  4 active torsions:
REMARK  status: ('A' for Active; 'I' for Inactive)
REMARK    1  A    between atoms: C_1  and  C_2
REMARK    2  A    between atoms: C_5  and  C_8
REMARK    3  A    between atoms: N_9  and  C_10
REMARK    4  A    between atoms: C_11  and  N_20
REMARK                            x       y       z     vdW  Elec       q    Type
REMARK                         _______ _______ _______ _____ _____    ______ ____
ROOT
ATOM      1  C   UNL     1      -4.809   0.964  -0.072  0.00  0.00    +0.166 A 
ATOM      2  C   UNL     1      -5.918   1.331   0.689  0.00  0.00    +0.129 A 
ATOM      3  N   UNL     1      -7.080   0.616   0.561  0.00  0.00    -0.294 N 
ATOM      4  H   UNL     1      -7.882   0.871   1.102  0.00  0.00    +0.172 HD
ATOM      5  C   UNL     1      -7.153  -0.426  -0.286  0.00  0.00    +0.328 A 
ATOM      6  O   UNL     1      -8.197  -1.042  -0.381  0.00  0.00    -0.247 OA
ATOM      7  N   UNL     1      -6.099  -0.801  -1.032  0.00  0.00    -0.273 N 
ATOM      8  H   UNL     1      -6.185  -1.583  -1.649  0.00  0.00    +0.173 HD
ATOM      9  C   UNL     1      -4.929  -0.138  -0.958  0.00  0.00    +0.281 A 
ATOM     10  O   UNL     1      -3.981  -0.483  -1.641  0.00  0.00    -0.265 OA
ENDROOT
BRANCH   2  11
ATOM     11  N   UNL     1      -5.847   2.391   1.552  0.00  0.00    -0.343 N 
ATOM     12  H   UNL     1      -5.021   2.893   1.637  0.00  0.00    +0.144 HD
ATOM     13  H   UNL     1      -6.622   2.641   2.078  0.00  0.00    +0.144 HD
ENDBRANCH   2  11
BRANCH   1  15
ATOM     14  C   UNL     1      -2.512   1.009   0.179  0.00  0.00    +0.119 C 
ATOM     15  N   UNL     1      -3.634   1.653   0.029  0.00  0.00    -0.246 NA
BRANCH  14  20
ATOM     16  C   UNL     1       2.474   3.871   0.130  0.00  0.00    +0.044 C 
ATOM     17  C   UNL     1       1.167   3.122   0.146  0.00  0.00    -0.050 A 
ATOM     18  C   UNL     1       1.163   1.748   0.315  0.00  0.00    +0.004 A 
ATOM     19  C   UNL     1      -0.029   1.055   0.330  0.00  0.00    +0.009 A 
ATOM     20  C   UNL     1      -1.235   1.742   0.170  0.00  0.00    -0.007 A 
ATOM     21  C   UNL     1      -1.224   3.131   0.006  0.00  0.00    +0.009 A 
ATOM     22  C   UNL     1      -0.023   3.810  -0.008  0.00  0.00    +0.004 A 
ENDBRANCH  14  20
ENDBRANCH   1  15
TORSDOF 3
