REMARK  Name = ZINC04109203
REMARK  14 active torsions:
REMARK  status: ('A' for Active; 'I' for Inactive)
REMARK    1  A    between atoms: C_1  and  C_2
REMARK    2  A    between atoms: C_2  and  C_3
REMARK    3  A    between atoms: C_3  and  C_4
REMARK    4  A    between atoms: C_4  and  C_5
REMARK    5  A    between atoms: C_17  and  O_36
REMARK    6  A    between atoms: N_20  and  C_35
REMARK    7  A    between atoms: C_23  and  C_30
REMARK    8  A    between atoms: C_23  and  O_34
REMARK    9  A    between atoms: C_24  and  O_26
REMARK   10  A    between atoms: O_26  and  C_27
REMARK   11  A    between atoms: C_27  and  C_29
REMARK   12  A    between atoms: C_30  and  O_32
REMARK   13  A    between atoms: O_32  and  C_33
REMARK   14  A    between atoms: O_36  and  C_37
REMARK                            x       y       z     vdW  Elec       q    Type
REMARK                         _______ _______ _______ _____ _____    ______ ____
ROOT
ATOM      1  C   UNL     1       1.605   0.589   0.596  0.00  0.00    +0.018 C 
ATOM      2  C   UNL     1       1.481   2.073   0.809  0.00  0.00    -0.024 C 
ATOM      3  C   UNL     1       0.259   2.550   0.873  0.00  0.00    -0.049 C 
ATOM      4  C   UNL     1      -0.960   1.681   0.740  0.00  0.00    -0.051 C 
ATOM      5  C   UNL     1       0.598   0.205  -0.480  0.00  0.00    -0.042 C 
ATOM      6  C   UNL     1       0.662  -1.288  -0.753  0.00  0.00    +0.007 C 
ATOM      7  C   UNL     1      -0.202  -1.917   0.343  0.00  0.00    -0.007 C 
ATOM      8  C   UNL     1      -1.278  -0.821   0.607  0.00  0.00    -0.077 C 
ATOM      9  C   UNL     1       0.095  -1.767  -2.063  0.00  0.00    -0.020 A 
ATOM     10  C   UNL     1      -0.928  -1.311  -2.855  0.00  0.00    +0.009 A 
ATOM     11  C   UNL     1      -1.255  -2.080  -3.967  0.00  0.00    +0.046 A 
ATOM     12  C   UNL     1      -0.581  -3.255  -4.255  0.00  0.00    +0.122 A 
ATOM     13  C   UNL     1       0.471  -3.712  -3.465  0.00  0.00    +0.069 A 
ATOM     14  C   UNL     1       0.825  -2.938  -2.368  0.00  0.00    +0.037 A 
ATOM     15  N   UNL     1       1.863  -3.131  -1.433  0.00  0.00    -0.325 N 
ATOM     16  C   UNL     1       2.095  -1.769  -0.931  0.00  0.00    +0.128 C 
ATOM     17  C   UNL     1       3.054  -1.468   0.163  0.00  0.00    +0.219 C 
ATOM     18  C   UNL     1       2.986   0.038   0.504  0.00  0.00    +0.229 C 
ATOM     19  C   UNL     1       3.057  -3.657  -2.110  0.00  0.00    +0.129 C 
ATOM     20  N   UNL     1      -0.798   0.405  -0.064  0.00  0.00    +0.385 N 
ATOM     21  H   UNL     1      -1.363   0.521  -0.914  0.00  0.00    -0.081 HD
ENDROOT
BRANCH  17  22
ATOM     22  C   UNL     1       2.891  -2.359   1.361  0.00  0.00    +0.345 C 
ATOM     23  O   UNL     1       1.932  -3.091   1.444  0.00  0.00    -0.247 OA
BRANCH  22  24
ATOM     24  O   UNL     1       3.809  -2.343   2.340  0.00  0.00    -0.466 OA
ATOM     25  C   UNL     1       3.586  -3.231   3.467  0.00  0.00    +0.280 C 
ENDBRANCH  22  24
ENDBRANCH  17  22
BRANCH  17  26
ATOM     26  O   UNL     1       4.399  -1.708  -0.343  0.00  0.00    -0.373 OA
ATOM     27  H   UNL     1       5.100  -1.495   0.288  0.00  0.00    +0.211 HD
ENDBRANCH  17  26
BRANCH  12  28
ATOM     28  O   UNL     1      -0.950  -3.980  -5.344  0.00  0.00    -0.495 OA
ATOM     29  C   UNL     1      -2.029  -3.467  -6.129  0.00  0.00    +0.277 C 
ENDBRANCH  12  28
BRANCH   1  30
ATOM     30  C   UNL     1       1.111   0.117   1.953  0.00  0.00    +0.013 C 
BRANCH  30  31
ATOM     31  C   UNL     1       1.890   0.833   3.058  0.00  0.00    +0.001 C 
BRANCH  31  33
ATOM     32  C   UNL     1       1.813   1.619   5.428  0.00  0.00    +0.004 C 
ATOM     33  C   UNL     1       1.034   0.902   4.324  0.00  0.00    -0.003 C 
ENDBRANCH  31  33
ENDBRANCH  30  31
ENDBRANCH   1  30
BRANCH  18  34
ATOM     34  O   UNL     1       3.678   0.271   1.767  0.00  0.00    -0.457 OA
BRANCH  34  35
ATOM     35  C   UNL     1       5.009   0.433   1.712  0.00  0.00    +0.304 C 
ATOM     36  O   UNL     1       5.580   0.382   0.648  0.00  0.00    -0.251 OA
ATOM     37  C   UNL     1       5.791   0.677   2.976  0.00  0.00    +0.136 C 
ENDBRANCH  34  35
ENDBRANCH  18  34
TORSDOF 9
