REMARK  Name = ZINC40868669
REMARK  6 active torsions:
REMARK  status: ('A' for Active; 'I' for Inactive)
REMARK    1  A    between atoms: C_4  and  C_7
REMARK    2  A    between atoms: C_7  and  C_9
REMARK    3  A    between atoms: C_7  and  N_20
REMARK    4  A    between atoms: C_18  and  O_19
REMARK    5  A    between atoms: C_21  and  C_23
REMARK    6  A    between atoms: C_27  and  N_29
REMARK                            x       y       z     vdW  Elec       q    Type
REMARK                         _______ _______ _______ _____ _____    ______ ____
ROOT
ATOM      1  N   UNL     1       3.521  -1.704   0.909  0.00  0.00    -0.300 N 
ATOM      2  C   UNL     1       3.770  -1.448   2.209  0.00  0.00    +0.245 C 
ATOM      3  O   UNL     1       4.089  -0.328   2.557  0.00  0.00    -0.270 OA
ATOM      4  H   UNL     1       3.266  -2.598   0.631  0.00  0.00    +0.150 HD
ENDROOT
BRANCH   2   5
ATOM      5  C   UNL     1       3.655  -2.529   3.211  0.00  0.00    +0.038 A 
ATOM      6  C   UNL     1       3.294  -3.818   2.813  0.00  0.00    +0.013 A 
ATOM      7  C   UNL     1       3.188  -4.824   3.750  0.00  0.00    +0.003 A 
ATOM      8  C   UNL     1       3.438  -4.562   5.084  0.00  0.00    +0.024 A 
ATOM      9  C   UNL     1       3.797  -3.283   5.490  0.00  0.00    +0.045 A 
ATOM     10  C   UNL     1       3.912  -2.266   4.556  0.00  0.00    +0.037 A 
BRANCH   9  11
ATOM     11  N   UNL     1       4.048  -3.023   6.845  0.00  0.00    -0.202 N 
ATOM     12  C   UNL     1       4.395  -1.820   7.337  0.00  0.00    +0.258 C 
ATOM     13  O   UNL     1       4.538  -0.803   6.688  0.00  0.00    -0.269 OA
ATOM     14  C   UNL     1       4.573  -1.942   8.799  0.00  0.00    +0.050 A 
ATOM     15  C   UNL     1       4.919  -1.059   9.809  0.00  0.00    +0.014 A 
ATOM     16  C   UNL     1       4.999  -1.510  11.118  0.00  0.00    +0.001 A 
ATOM     17  C   UNL     1       4.737  -2.832  11.421  0.00  0.00    +0.001 A 
ATOM     18  C   UNL     1       4.389  -3.727  10.421  0.00  0.00    +0.014 A 
ATOM     19  C   UNL     1       4.305  -3.291   9.108  0.00  0.00    +0.050 A 
ATOM     20  C   UNL     1       3.967  -3.941   7.824  0.00  0.00    +0.258 C 
ATOM     21  O   UNL     1       3.671  -5.110   7.678  0.00  0.00    -0.269 OA
ENDBRANCH   9  11
ENDBRANCH   2   5
BRANCH   1  22
ATOM     22  C   UNL     1       3.634  -0.633  -0.084  0.00  0.00    +0.138 C 
BRANCH  22  23
ATOM     23  C   UNL     1       3.919  -1.231  -1.438  0.00  0.00    +0.026 A 
ATOM     24  C   UNL     1       4.933  -0.694  -2.248  0.00  0.00    -0.009 A 
ATOM     25  C   UNL     1       5.701   0.404  -1.823  0.00  0.00    +0.009 A 
ATOM     26  C   UNL     1       6.676   0.898  -2.634  0.00  0.00    +0.001 A 
ATOM     27  C   UNL     1       6.925   0.332  -3.883  0.00  0.00    +0.001 A 
ATOM     28  C   UNL     1       6.201  -0.731  -4.327  0.00  0.00    +0.008 A 
ATOM     29  C   UNL     1       5.187  -1.270  -3.518  0.00  0.00    -0.017 A 
ATOM     30  C   UNL     1       4.420  -2.368  -3.945  0.00  0.00    +0.012 A 
ATOM     31  C   UNL     1       3.446  -2.865  -3.137  0.00  0.00    +0.046 A 
ATOM     32  C   UNL     1       3.196  -2.302  -1.881  0.00  0.00    +0.123 A 
BRANCH  32  33
ATOM     33  O   UNL     1       2.220  -2.824  -1.094  0.00  0.00    -0.506 OA
ATOM     34  H   UNL     1       1.342  -2.452  -1.257  0.00  0.00    +0.292 HD
ENDBRANCH  32  33
ENDBRANCH  22  23
BRANCH  22  38
ATOM     35  C   UNL     1      -0.028   1.560  -0.240  0.00  0.00    +0.000 A 
ATOM     36  C   UNL     1       1.172   2.201  -0.485  0.00  0.00    +0.000 A 
ATOM     37  C   UNL     1       2.357   1.491  -0.434  0.00  0.00    +0.006 A 
ATOM     38  C   UNL     1       2.342   0.141  -0.138  0.00  0.00    -0.023 A 
ATOM     39  C   UNL     1       1.142  -0.500   0.107  0.00  0.00    +0.006 A 
ATOM     40  C   UNL     1      -0.043   0.210   0.055  0.00  0.00    +0.000 A 
ENDBRANCH  22  38
ENDBRANCH   1  22
TORSDOF 6
