REMARK  Name = ZINC14804458
REMARK  5 active torsions:
REMARK  status: ('A' for Active; 'I' for Inactive)
REMARK    1  A    between atoms: C_11  and  C_14
REMARK    2  A    between atoms: C_14  and  C_15
REMARK    3  A    between atoms: N_17  and  C_18
REMARK    4  A    between atoms: C_21  and  N_24
REMARK    5  A    between atoms: C_25  and  C_27
REMARK                            x       y       z     vdW  Elec       q    Type
REMARK                         _______ _______ _______ _____ _____    ______ ____
ROOT
ATOM      1  C   UNL     1       2.944   6.128  -1.427  0.00  0.00    +0.222 C 
ATOM      2  O   UNL     1       2.179   6.284  -2.355  0.00  0.00    -0.275 OA
ATOM      3  N   UNL     1       4.232   5.807  -1.663  0.00  0.00    -0.285 N 
ATOM      4  H   UNL     1       4.861   5.754  -0.926  0.00  0.00    +0.155 HD
ENDROOT
BRANCH   3   5
ATOM      5  C   UNL     1       4.662   5.548  -2.971  0.00  0.00    +0.034 A 
ATOM      6  C   UNL     1       3.801   4.945  -3.878  0.00  0.00    +0.025 A 
ATOM      7  C   UNL     1       4.223   4.694  -5.168  0.00  0.00    +0.025 A 
ATOM      8  C   UNL     1       5.511   5.038  -5.556  0.00  0.00    +0.034 A 
ATOM      9  C   UNL     1       6.373   5.637  -4.648  0.00  0.00    +0.025 A 
ATOM     10  C   UNL     1       5.950   5.891  -3.359  0.00  0.00    +0.025 A 
BRANCH   8  11
ATOM     11  N   UNL     1       5.940   4.781  -6.865  0.00  0.00    -0.285 N 
ATOM     12  C   UNL     1       5.076   4.896  -7.893  0.00  0.00    +0.220 C 
ATOM     13  O   UNL     1       3.907   5.140  -7.678  0.00  0.00    -0.275 OA
ATOM     14  H   UNL     1       6.859   4.520  -7.031  0.00  0.00    +0.155 HD
BRANCH  12  15
ATOM     15  C   UNL     1       5.561   4.720  -9.308  0.00  0.00    +0.075 C 
ATOM     16  C   UNL     1       5.577   5.958 -10.208  0.00  0.00    +0.013 C 
ATOM     17  C   UNL     1       4.531   4.863 -10.431  0.00  0.00    +0.013 C 
ENDBRANCH  12  15
ENDBRANCH   8  11
ENDBRANCH   3   5
BRANCH   1  18
ATOM     18  C   UNL     1       2.456   6.293  -0.011  0.00  0.00    +0.135 C 
BRANCH  18  29
ATOM     19  C   UNL     1      -0.618   1.530  -0.327  0.00  0.00    +0.001 A 
ATOM     20  C   UNL     1       0.660   2.079  -0.271  0.00  0.00    +0.001 A 
ATOM     21  C   UNL     1       0.840   3.429  -0.196  0.00  0.00    +0.009 A 
ATOM     22  C   UNL     1      -0.274   4.276  -0.174  0.00  0.00    -0.007 A 
ATOM     23  C   UNL     1      -1.575   3.720  -0.231  0.00  0.00    -0.017 A 
ATOM     24  C   UNL     1      -1.723   2.326  -0.313  0.00  0.00    +0.008 A 
ATOM     25  C   UNL     1      -2.695   4.574  -0.209  0.00  0.00    +0.012 A 
ATOM     26  C   UNL     1      -2.549   5.920  -0.135  0.00  0.00    +0.047 A 
ATOM     27  C   UNL     1      -1.286   6.521  -0.078  0.00  0.00    +0.136 A 
ATOM     28  C   UNL     1      -0.137   5.724  -0.096  0.00  0.00    +0.031 A 
ATOM     29  C   UNL     1       0.992   6.650  -0.024  0.00  0.00    +0.007 A 
ATOM     30  C   UNL     1       0.460   7.883   0.030  0.00  0.00    +0.200 A 
ATOM     31  O   UNL     1      -0.880   7.804  -0.002  0.00  0.00    -0.463 OA
ENDBRANCH  18  29
ENDBRANCH   1  18
TORSDOF 5
