REMARK  Name = ZINC40673359
REMARK  7 active torsions:
REMARK  status: ('A' for Active; 'I' for Inactive)
REMARK    1  A    between atoms: C_1  and  C_2
REMARK    2  A    between atoms: C_3  and  C_20
REMARK    3  A    between atoms: C_4  and  S_8
REMARK    4  A    between atoms: C_5  and  C_7
REMARK    5  A    between atoms: S_8  and  N_11
REMARK    6  A    between atoms: N_11  and  C_12
REMARK    7  A    between atoms: N_17  and  C_19
REMARK                            x       y       z     vdW  Elec       q    Type
REMARK                         _______ _______ _______ _____ _____    ______ ____
ROOT
ATOM      1  S   UNL     1      -1.499  -3.687  -0.011  0.00  0.00    +0.063 S 
ATOM      2  O   UNL     1      -0.654  -4.694   0.530  0.00  0.00    -0.153 OA
ATOM      3  O   UNL     1      -2.768  -3.377   0.547  0.00  0.00    -0.153 OA
ENDROOT
BRANCH   1   7
ATOM      4  C   UNL     1      -0.018   1.503   0.010  0.00  0.00    +0.087 C 
ATOM      5  C   UNL     1       0.002  -0.004   0.002  0.00  0.00    +0.118 A 
ATOM      6  C   UNL     1      -1.095  -0.819   0.003  0.00  0.00    +0.130 A 
ATOM      7  C   UNL     1      -0.567  -2.192  -0.007  0.00  0.00    +0.160 A 
ATOM      8  C   UNL     1       0.769  -2.073  -0.013  0.00  0.00    +0.129 A 
ATOM      9  O   UNL     1       1.095  -0.771  -0.013  0.00  0.00    -0.462 OA
ATOM     10  C   UNL     1       1.748  -3.219  -0.023  0.00  0.00    +0.088 C 
BRANCH   6  11
ATOM     11  C   UNL     1      -2.506  -0.409   0.012  0.00  0.00    +0.392 C 
ATOM     12  O   UNL     1      -2.799   0.779   0.020  0.00  0.00    -0.240 OA
ATOM     13  O   UNL     1      -3.389  -1.257   0.012  0.00  0.00    -0.240 OA
ENDBRANCH   6  11
ENDBRANCH   1   7
BRANCH   1  14
ATOM     14  N   UNL     1      -1.765  -4.094  -1.594  0.00  0.00    -0.189 NA
ATOM     15  H   UNL     1      -2.668  -4.099  -1.948  0.00  0.00    +0.148 HD
BRANCH  14  16
ATOM     16  C   UNL     1      -0.637  -4.447  -2.459  0.00  0.00    +0.060 C 
ATOM     17  C   UNL     1      -0.183  -3.209  -3.238  0.00  0.00    +0.017 C 
ATOM     18  C   UNL     1       0.944  -3.605  -4.196  0.00  0.00    -0.017 C 
ATOM     19  C   UNL     1       0.452  -4.722  -5.119  0.00  0.00    -0.079 C 
ATOM     20  N   UNL     1       0.058  -5.886  -4.317  0.00  0.00    +0.379 N 
ATOM     21  C   UNL     1      -1.070  -5.534  -3.446  0.00  0.00    -0.059 C 
ATOM     22  C   UNL     1      -0.339  -6.982  -5.210  0.00  0.00    -0.096 C 
ATOM     23  H   UNL     1       0.838  -6.183  -3.750  0.00  0.00    -0.082 HD
ENDBRANCH  14  16
ENDBRANCH   1  14
TORSDOF 4
