REMARK  Name = ZINC09471379
REMARK  13 active torsions:
REMARK  status: ('A' for Active; 'I' for Inactive)
REMARK    1  A    between atoms: C_1  and  C_2
REMARK    2  A    between atoms: C_2  and  N_65
REMARK    3  A    between atoms: C_3  and  C_4
REMARK    4  A    between atoms: C_3  and  N_65
REMARK    5  A    between atoms: C_5  and  C_6
REMARK    6  A    between atoms: C_5  and  N_65
REMARK    7  A    between atoms: C_6  and  C_7
REMARK    8  A    between atoms: C_7  and  N_8
REMARK    9  A    between atoms: C_9  and  C_29
REMARK   10  A    between atoms: C_11  and  C_16
REMARK   11  A    between atoms: C_12  and  O_15
REMARK   12  A    between atoms: C_16  and  C_18
REMARK   13  A    between atoms: C_25  and  C_28
REMARK                            x       y       z     vdW  Elec       q    Type
REMARK                         _______ _______ _______ _____ _____    ______ ____
ROOT
ATOM      1  N   UNL     1       2.043  -2.744   0.078  0.00  0.00    -0.284 N 
ATOM      2  C   UNL     1       1.426  -1.414  -0.006  0.00  0.00    +0.144 C 
ATOM      3  C   UNL     1       2.566  -0.422  -0.029  0.00  0.00    +0.071 C 
ATOM      4  C   UNL     1       3.710  -1.141   0.045  0.00  0.00    +0.188 C 
ATOM      5  C   UNL     1       3.378  -2.579   0.111  0.00  0.00    +0.282 C 
ATOM      6  O   UNL     1       4.189  -3.480   0.185  0.00  0.00    -0.267 OA
ENDROOT
BRANCH   2   7
ATOM      7  C   UNL     1       0.616  -1.301  -1.272  0.00  0.00    -0.021 A 
ATOM      8  C   UNL     1      -0.548  -0.555  -1.283  0.00  0.00    +0.006 A 
ATOM      9  C   UNL     1      -1.292  -0.451  -2.443  0.00  0.00    +0.001 A 
ATOM     10  C   UNL     1      -0.872  -1.093  -3.593  0.00  0.00    +0.015 A 
ATOM     11  C   UNL     1       0.292  -1.839  -3.583  0.00  0.00    +0.018 A 
ATOM     12  C   UNL     1       1.039  -1.939  -2.423  0.00  0.00    +0.021 A 
ATOM     13 BR   UNL     1       0.867  -2.717  -5.156  0.00  0.00    -0.050 Br
ENDBRANCH   2   7
BRANCH   4  14
ATOM     14  O   UNL     1       4.961  -0.624   0.057  0.00  0.00    -0.502 OA
ATOM     15  H   UNL     1       5.628  -1.366   0.118  0.00  0.00    +0.292 HD
ENDBRANCH   4  14
BRANCH   3  16
ATOM     16  C   UNL     1       2.453   1.038  -0.110  0.00  0.00    +0.195 C 
ATOM     17  O   UNL     1       2.847   1.625  -1.100  0.00  0.00    -0.287 OA
BRANCH  16  18
ATOM     18  C   UNL     1       1.862   1.795   1.011  0.00  0.00    +0.023 A 
ATOM     19  C   UNL     1       1.334   1.121   2.117  0.00  0.00    +0.015 A 
ATOM     20  C   UNL     1       0.777   1.828   3.155  0.00  0.00    +0.046 A 
ATOM     21  C   UNL     1       0.740   3.223   3.122  0.00  0.00    +0.124 A 
ATOM     22  C   UNL     1       1.272   3.889   2.021  0.00  0.00    -0.002 A 
ATOM     23  C   UNL     1       1.825   3.193   0.975  0.00  0.00    +0.019 A 
ATOM     24  C   UNL     1       1.098   5.374   2.275  0.00  0.00    +0.083 C 
ATOM     25  C   UNL     1       0.789   5.405   3.790  0.00  0.00    +0.175 C 
ATOM     26  O   UNL     1       0.233   4.101   4.029  0.00  0.00    -0.488 OA
ATOM     27  C   UNL     1       2.071   5.604   4.601  0.00  0.00    +0.052 C 
ENDBRANCH  16  18
ENDBRANCH   3  16
BRANCH   1  28
ATOM     28  C   UNL     1       1.330  -4.023   0.123  0.00  0.00    +0.107 C 
BRANCH  28  29
ATOM     29  C   UNL     1       1.037  -4.391   1.579  0.00  0.00    +0.000 C 
BRANCH  29  30
ATOM     30  C   UNL     1       0.293  -5.728   1.627  0.00  0.00    -0.077 C 
BRANCH  30  31
ATOM     31  N   UNL     1       0.036  -6.080   3.039  0.00  0.00    +0.379 N 
ATOM     32  H   UNL     1       0.918  -6.023   3.563  0.00  0.00    -0.082 HD
BRANCH  31  34
ATOM     33  C   UNL     1      -2.284  -5.236   2.915  0.00  0.00    -0.017 C 
ATOM     34  C   UNL     1      -0.934  -5.133   3.628  0.00  0.00    -0.082 C 
ENDBRANCH  31  34
BRANCH  31  35
ATOM     35  C   UNL     1      -0.486  -7.460   3.128  0.00  0.00    -0.082 C 
ATOM     36  C   UNL     1      -0.413  -7.920   4.586  0.00  0.00    -0.017 C 
ENDBRANCH  31  35
ENDBRANCH  30  31
ENDBRANCH  29  30
ENDBRANCH  28  29
ENDBRANCH   1  28
TORSDOF 10
