REMARK  Name = ZINC00227615
REMARK  3 active torsions:
REMARK  status: ('A' for Active; 'I' for Inactive)
REMARK    1  A    between atoms: C_14  and  C_15
REMARK    2  A    between atoms: N_16  and  N_17
REMARK    3  A    between atoms: C_18  and  C_20
REMARK                            x       y       z     vdW  Elec       q    Type
REMARK                         _______ _______ _______ _____ _____    ______ ____
ROOT
ATOM      1  C   UNL     1       8.348   6.416   0.276  0.00  0.00    +0.001 A 
ATOM      2  C   UNL     1       7.187   5.644   0.283  0.00  0.00    +0.001 A 
ATOM      3  C   UNL     1       5.953   6.210   0.196  0.00  0.00    +0.009 A 
ATOM      4  C   UNL     1       5.835   7.607   0.100  0.00  0.00    -0.009 A 
ATOM      5  C   UNL     1       7.053   8.420   0.089  0.00  0.00    -0.017 A 
ATOM      6  C   UNL     1       8.303   7.770   0.182  0.00  0.00    +0.008 A 
ATOM      7  C   UNL     1       6.972   9.810  -0.009  0.00  0.00    +0.017 A 
ATOM      8  C   UNL     1       5.726  10.431  -0.101  0.00  0.00    -0.017 A 
ATOM      9  C   UNL     1       5.620  11.835  -0.202  0.00  0.00    +0.008 A 
ATOM     10  C   UNL     1       4.392  12.409  -0.291  0.00  0.00    +0.001 A 
ATOM     11  C   UNL     1       3.226  11.646  -0.285  0.00  0.00    +0.001 A 
ATOM     12  C   UNL     1       3.261  10.289  -0.191  0.00  0.00    +0.009 A 
ATOM     13  C   UNL     1       4.499   9.631  -0.096  0.00  0.00    -0.009 A 
ATOM     14  C   UNL     1       4.572   8.226   0.003  0.00  0.00    +0.010 A 
ENDROOT
BRANCH  14  15
ATOM     15  C   UNL     1       3.348   7.420   0.009  0.00  0.00    +0.139 C 
ATOM     16  N   UNL     1       2.184   8.002   0.037  0.00  0.00    -0.187 NA
BRANCH  16  17
ATOM     17  N   UNL     1       1.015   7.231   0.044  0.00  0.00    -0.203 N 
ATOM     18  C   UNL     1      -0.190   7.834   0.073  0.00  0.00    +0.265 C 
ATOM     19  O   UNL     1      -0.262   9.048   0.094  0.00  0.00    -0.268 OA
ATOM     20  H   UNL     1       1.072   6.263   0.028  0.00  0.00    +0.178 HD
BRANCH  18  21
ATOM     21  C   UNL     1      -1.424   7.021   0.080  0.00  0.00    +0.056 A 
ATOM     22  C   UNL     1      -2.682   7.635   0.110  0.00  0.00    +0.016 A 
ATOM     23  C   UNL     1      -3.806   6.829   0.115  0.00  0.00    +0.020 A 
ATOM     24  C   UNL     1      -3.652   5.454   0.096  0.00  0.00    +0.111 A 
ATOM     25  N   UNL     1      -2.454   4.902   0.062  0.00  0.00    -0.263 NA
ATOM     26  C   UNL     1      -1.355   5.627   0.056  0.00  0.00    +0.123 A 
ENDBRANCH  18  21
ENDBRANCH  16  17
ENDBRANCH  14  15
TORSDOF 3
