REMARK  Name = ZINC12492581
REMARK  6 active torsions:
REMARK  status: ('A' for Active; 'I' for Inactive)
REMARK    1  A    between atoms: C_10  and  C_11
REMARK    2  A    between atoms: C_11  and  C_12
REMARK    3  A    between atoms: N_14  and  N_15
REMARK    4  A    between atoms: C_16  and  C_18
REMARK    5  A    between atoms: C_21  and  N_24
REMARK    6  A    between atoms: C_25  and  C_27
REMARK                            x       y       z     vdW  Elec       q    Type
REMARK                         _______ _______ _______ _____ _____    ______ ____
ROOT
ATOM      1  N   UNL     1       1.496  -4.851  -0.040  0.00  0.00    -0.230 N 
ATOM      2  C   UNL     1       0.299  -4.242   0.071  0.00  0.00    +0.260 C 
ATOM      3  O   UNL     1      -0.713  -4.907   0.185  0.00  0.00    -0.269 OA
ATOM      4  H   UNL     1       2.303  -4.321  -0.132  0.00  0.00    +0.173 HD
ENDROOT
BRANCH   2   5
ATOM      5  C   UNL     1       0.216  -2.768   0.055  0.00  0.00    +0.038 A 
ATOM      6  C   UNL     1      -1.024  -2.135   0.170  0.00  0.00    +0.015 A 
ATOM      7  C   UNL     1      -1.098  -0.761   0.155  0.00  0.00    +0.024 A 
ATOM      8  C   UNL     1       0.061  -0.002   0.025  0.00  0.00    +0.033 A 
ATOM      9  C   UNL     1       1.297  -0.629  -0.096  0.00  0.00    +0.024 A 
ATOM     10  C   UNL     1       1.378  -2.003  -0.076  0.00  0.00    +0.015 A 
BRANCH   8  11
ATOM     11  N   UNL     1      -0.017   1.390   0.010  0.00  0.00    -0.285 N 
ATOM     12  C   UNL     1       0.962   2.126   0.573  0.00  0.00    +0.220 C 
ATOM     13  O   UNL     1       1.949   1.582   1.020  0.00  0.00    -0.275 OA
ATOM     14  H   UNL     1      -0.773   1.829  -0.410  0.00  0.00    +0.155 HD
BRANCH  12  15
ATOM     15  C   UNL     1       0.828   3.625   0.649  0.00  0.00    +0.075 C 
ATOM     16  C   UNL     1       0.702   4.198  -0.764  0.00  0.00    +0.013 C 
ATOM     17  C   UNL     1       0.567   5.720  -0.687  0.00  0.00    +0.001 C 
ATOM     18  C   UNL     1       1.804   6.309  -0.006  0.00  0.00    +0.000 C 
ATOM     19  C   UNL     1       1.930   5.736   1.407  0.00  0.00    +0.001 C 
ATOM     20  C   UNL     1       2.066   4.214   1.330  0.00  0.00    +0.013 C 
ENDBRANCH  12  15
ENDBRANCH   8  11
ENDBRANCH   2   5
BRANCH   1  23
ATOM     21  C   UNL     1       2.771  -6.859  -0.136  0.00  0.00    +0.233 C 
ATOM     22  O   UNL     1       3.781  -6.196  -0.250  0.00  0.00    -0.274 OA
ATOM     23  N   UNL     1       1.574  -6.250  -0.025  0.00  0.00    -0.234 N 
ATOM     24  H   UNL     1       0.767  -6.780   0.066  0.00  0.00    +0.173 HD
BRANCH  21  25
ATOM     25  C   UNL     1       2.856  -8.364  -0.119  0.00  0.00    +0.133 C 
BRANCH  25  35
ATOM     26  C   UNL     1       6.793  -9.030   3.083  0.00  0.00    +0.001 A 
ATOM     27  C   UNL     1       5.465  -8.636   3.231  0.00  0.00    +0.001 A 
ATOM     28  C   UNL     1       4.635  -8.550   2.155  0.00  0.00    +0.009 A 
ATOM     29  C   UNL     1       5.123  -8.859   0.874  0.00  0.00    -0.014 A 
ATOM     30  C   UNL     1       6.473  -9.264   0.724  0.00  0.00    -0.018 A 
ATOM     31  C   UNL     1       7.300  -9.341   1.858  0.00  0.00    +0.008 A 
ATOM     32  C   UNL     1       6.960  -9.578  -0.556  0.00  0.00    +0.008 A 
ATOM     33  C   UNL     1       6.130  -9.492  -1.632  0.00  0.00    +0.001 A 
ATOM     34  C   UNL     1       4.801  -9.098  -1.484  0.00  0.00    +0.005 A 
ATOM     35  C   UNL     1       4.295  -8.788  -0.259  0.00  0.00    -0.031 A 
ENDBRANCH  25  35
ENDBRANCH  21  25
ENDBRANCH   1  23
TORSDOF 6
