REMARK  Name = ZINC39657034
REMARK  8 active torsions:
REMARK  status: ('A' for Active; 'I' for Inactive)
REMARK    1  A    between atoms: C_1  and  C_2
REMARK    2  A    between atoms: C_2  and  C_4
REMARK    3  A    between atoms: C_2  and  N_11
REMARK    4  A    between atoms: C_12  and  C_14
REMARK    5  A    between atoms: C_25  and  C_27
REMARK    6  A    between atoms: C_27  and  C_28
REMARK    7  A    between atoms: C_28  and  S_29
REMARK    8  A    between atoms: S_29  and  C_30
REMARK                            x       y       z     vdW  Elec       q    Type
REMARK                         _______ _______ _______ _____ _____    ______ ____
ROOT
ATOM      1  C   UNL     1      -3.465  -1.164  -1.134  0.00  0.00    +0.100 C 
ATOM      2  C   UNL     1      -4.361  -0.271  -0.248  0.00  0.00    +0.121 C 
ATOM      3  N   UNL     1      -4.986   0.686  -1.192  0.00  0.00    -0.300 N 
ATOM      4  C   UNL     1      -5.291  -0.128  -2.393  0.00  0.00    +0.115 C 
ATOM      5  C   UNL     1      -4.080  -1.071  -2.540  0.00  0.00    -0.004 C 
ATOM      6  C   UNL     1      -4.538  -2.449  -3.009  0.00  0.00    -0.010 C 
ATOM      7  C   UNL     1      -5.093  -2.341  -4.432  0.00  0.00    -0.082 C 
ATOM      8  N   UNL     1      -4.053  -1.817  -5.326  0.00  0.00    +0.379 N 
ATOM      9  C   UNL     1      -3.685  -0.455  -4.923  0.00  0.00    -0.082 C 
ATOM     10  C   UNL     1      -3.071  -0.483  -3.521  0.00  0.00    -0.010 C 
ATOM     11  C   UNL     1      -5.223   1.999  -1.002  0.00  0.00    +0.216 C 
ATOM     12  O   UNL     1      -5.747   2.654  -1.878  0.00  0.00    -0.276 OA
ATOM     13  H   UNL     1      -3.240  -2.412  -5.278  0.00  0.00    -0.086 HD
ATOM     14  H   UNL     1      -4.401  -1.804  -6.273  0.00  0.00    -0.086 HD
ENDROOT
BRANCH   1  16
ATOM     15  N   UNL     1      -1.021  -1.491  -1.338  0.00  0.00    -0.308 N 
ATOM     16  C   UNL     1      -2.051  -0.643  -1.145  0.00  0.00    +0.219 C 
ATOM     17  O   UNL     1      -1.840   0.540  -0.979  0.00  0.00    -0.275 OA
ATOM     18  H   UNL     1      -1.190  -2.437  -1.470  0.00  0.00    +0.149 HD
BRANCH  15  20
ATOM     19  C   UNL     1       0.879  -0.905   0.086  0.00  0.00    +0.033 C 
ATOM     20  C   UNL     1       0.353  -0.984  -1.348  0.00  0.00    +0.100 C 
BRANCH  20  21
ATOM     21  C   UNL     1       1.226  -1.913  -2.152  0.00  0.00    -0.027 A 
ATOM     22  C   UNL     1       1.051  -3.281  -2.056  0.00  0.00    +0.006 A 
ATOM     23  C   UNL     1       1.850  -4.133  -2.793  0.00  0.00    +0.015 A 
ATOM     24  C   UNL     1       2.825  -3.618  -3.629  0.00  0.00    +0.018 A 
ATOM     25  C   UNL     1       2.999  -2.249  -3.725  0.00  0.00    +0.015 A 
ATOM     26  C   UNL     1       2.196  -1.397  -2.991  0.00  0.00    +0.006 A 
ATOM     27 BR   UNL     1       3.920  -4.784  -4.638  0.00  0.00    -0.050 Br
ENDBRANCH  20  21
ENDBRANCH  15  20
ENDBRANCH   1  16
BRANCH  11  28
ATOM     28  C   UNL     1      -4.838   2.653   0.300  0.00  0.00    +0.106 C 
BRANCH  28  29
ATOM     29  C   UNL     1      -5.214   4.136   0.257  0.00  0.00    +0.078 C 
BRANCH  29  30
ATOM     30  S   UNL     1      -4.749   4.923   1.823  0.00  0.00    -0.164 S 
ATOM     31  C   UNL     1      -5.255   6.652   1.612  0.00  0.00    +0.084 C 
ENDBRANCH  29  30
ENDBRANCH  28  29
ENDBRANCH  11  28
TORSDOF 6
