REMARK  Name = ZINC18246667
REMARK  14 active torsions:
REMARK  status: ('A' for Active; 'I' for Inactive)
REMARK    1  A    between atoms: C_1  and  C_2
REMARK    2  A    between atoms: C_10  and  C_11
REMARK    3  A    between atoms: C_11  and  O_13
REMARK    4  A    between atoms: O_13  and  C_14
REMARK    5  A    between atoms: C_17  and  C_22
REMARK    6  A    between atoms: C_19  and  O_20
REMARK    7  A    between atoms: O_20  and  C_21
REMARK    8  A    between atoms: C_24  and  C_35
REMARK    9  A    between atoms: C_25  and  C_34
REMARK   10  A    between atoms: C_27  and  C_33
REMARK   11  A    between atoms: C_29  and  O_31
REMARK   12  A    between atoms: O_31  and  C_32
REMARK   13  A    between atoms: C_35  and  O_37
REMARK   14  A    between atoms: O_37  and  C_38
REMARK                            x       y       z     vdW  Elec       q    Type
REMARK                         _______ _______ _______ _____ _____    ______ ____
ROOT
ATOM      1  C   UNL     1       0.218  -1.471   5.392  0.00  0.00    +0.173 A 
ATOM      2  C   UNL     1       0.189  -0.090   5.278  0.00  0.00    +0.050 A 
ATOM      3  C   UNL     1       0.117   0.696   6.413  0.00  0.00    +0.008 A 
ATOM      4  C   UNL     1       0.074   0.107   7.663  0.00  0.00    -0.031 A 
ATOM      5  C   UNL     1       0.103  -1.270   7.785  0.00  0.00    +0.054 A 
ATOM      6  C   UNL     1       0.169  -2.063   6.651  0.00  0.00    +0.163 A 
ENDROOT
BRANCH   4   7
ATOM      7  C   UNL     1      -0.004   0.969   8.897  0.00  0.00    +0.096 C 
ATOM      8  C   UNL     1      -1.309   1.744   8.852  0.00  0.00    +0.069 C 
ATOM      9  C   UNL     1      -1.228   3.127   8.884  0.00  0.00    +0.049 C 
ATOM     10  N   UNL     1      -0.073   3.760   8.950  0.00  0.00    -0.256 NA
ATOM     11  C   UNL     1       1.112   3.183   8.994  0.00  0.00    +0.049 C 
ATOM     12  C   UNL     1       1.258   1.808   8.971  0.00  0.00    +0.069 C 
ATOM     13  C   UNL     1       2.517   1.219   9.015  0.00  0.00    +0.338 C 
ATOM     14  O   UNL     1       3.608   1.982   9.079  0.00  0.00    -0.245 OA
ATOM     15  C   UNL     1       2.343   4.049   9.067  0.00  0.00    +0.066 C 
ATOM     16  C   UNL     1      -2.501   3.934   8.841  0.00  0.00    +0.066 C 
BRANCH  13  17
ATOM     17  O   UNL     1       2.634  -0.124   8.993  0.00  0.00    -0.465 OA
ATOM     18  C   UNL     1       3.957  -0.661   9.041  0.00  0.00    +0.280 C 
ENDBRANCH  13  17
BRANCH   8  19
ATOM     19  C   UNL     1      -2.535   1.093   8.782  0.00  0.00    +0.338 C 
ATOM     20  O   UNL     1      -3.667   1.791   8.870  0.00  0.00    -0.245 OA
BRANCH  19  21
ATOM     21  O   UNL     1      -2.579  -0.246   8.624  0.00  0.00    -0.465 OA
ATOM     22  C   UNL     1      -3.873  -0.849   8.559  0.00  0.00    +0.280 C 
ENDBRANCH  19  21
ENDBRANCH   8  19
ENDBRANCH   4   7
BRANCH   6  23
ATOM     23  O   UNL     1       0.192  -3.418   6.768  0.00  0.00    -0.491 OA
ATOM     24  C   UNL     1       0.139  -3.956   8.090  0.00  0.00    +0.277 C 
ENDBRANCH   6  23
BRANCH   1  25
ATOM     25  O   UNL     1       0.289  -2.246   4.277  0.00  0.00    -0.416 OA
BRANCH  25  26
ATOM     26  C   UNL     1      -0.826  -2.895   3.885  0.00  0.00    +0.381 C 
ATOM     27  O   UNL     1      -1.827  -2.853   4.573  0.00  0.00    -0.241 OA
BRANCH  26  37
ATOM     28  C   UNL     1      -3.257  -4.473   2.758  0.00  0.00    +0.048 C 
ATOM     29  C   UNL     1      -1.892  -4.342   2.134  0.00  0.00    +0.010 A 
ATOM     30  C   UNL     1      -1.444  -4.926   0.871  0.00  0.00    +0.024 A 
ATOM     31  C   UNL     1      -2.049  -5.727  -0.101  0.00  0.00    +0.012 A 
ATOM     32  C   UNL     1      -1.335  -6.116  -1.199  0.00  0.00    +0.001 A 
ATOM     33  C   UNL     1      -0.013  -5.721  -1.355  0.00  0.00    +0.004 A 
ATOM     34  C   UNL     1       0.603  -4.932  -0.407  0.00  0.00    +0.047 A 
ATOM     35  C   UNL     1      -0.104  -4.524   0.718  0.00  0.00    +0.136 A 
ATOM     36  O   UNL     1       0.219  -3.770   1.787  0.00  0.00    -0.448 OA
ATOM     37  C   UNL     1      -0.831  -3.652   2.627  0.00  0.00    +0.216 A 
ENDBRANCH  26  37
ENDBRANCH  25  26
ENDBRANCH   1  25
TORSDOF 8
