REMARK  Name = ZINC17133469
REMARK  15 active torsions:
REMARK  status: ('A' for Active; 'I' for Inactive)
REMARK    1  A    between atoms: C_1  and  C_2
REMARK    2  A    between atoms: C_3  and  C_31
REMARK    3  A    between atoms: C_5  and  N_24
REMARK    4  A    between atoms: C_6  and  C_7
REMARK    5  A    between atoms: C_7  and  O_9
REMARK    6  A    between atoms: O_9  and  C_10
REMARK    7  A    between atoms: C_10  and  C_11
REMARK    8  A    between atoms: C_11  and  C_13
REMARK    9  A    between atoms: C_14  and  N_23
REMARK   10  A    between atoms: N_15  and  C_22
REMARK   11  A    between atoms: N_18  and  C_21
REMARK   12  A    between atoms: C_25  and  C_27
REMARK   13  A    between atoms: C_27  and  C_28
REMARK   14  A    between atoms: C_27  and  C_29
REMARK   15  A    between atoms: C_27  and  C_30
REMARK                            x       y       z     vdW  Elec       q    Type
REMARK                         _______ _______ _______ _____ _____    ______ ____
ROOT
ATOM      1  C   UNL     1       1.442   3.475   0.010  0.00  0.00    +0.342 C 
ATOM      2  O   UNL     1       1.510   4.077   1.065  0.00  0.00    -0.245 OA
ENDROOT
BRANCH   1   8
ATOM      3  C   UNL     1      -1.216   2.090   0.076  0.00  0.00    +0.045 C 
ATOM      4  C   UNL     1       0.084   1.330   0.038  0.00  0.00    -0.025 A 
ATOM      5  C   UNL     1       0.110  -0.015   0.030  0.00  0.00    -0.008 A 
ATOM      6  S   UNL     1       1.849  -0.392  -0.025  0.00  0.00    -0.078 S 
ATOM      7  C   UNL     1       2.494   1.215  -0.035  0.00  0.00    +0.086 A 
ATOM      8  C   UNL     1       1.356   2.014   0.004  0.00  0.00    +0.091 A 
ATOM      9  C   UNL     1      -1.054  -0.972   0.059  0.00  0.00    +0.052 C 
BRANCH   7  10
ATOM     10  N   UNL     1       3.822   1.610  -0.072  0.00  0.00    -0.279 N 
ATOM     11  C   UNL     1       4.800   0.683  -0.107  0.00  0.00    +0.223 C 
ATOM     12  O   UNL     1       4.518  -0.496  -0.105  0.00  0.00    -0.275 OA
ATOM     13  H   UNL     1       4.047   2.554  -0.074  0.00  0.00    +0.155 HD
BRANCH  11  14
ATOM     14  C   UNL     1       6.244   1.113  -0.148  0.00  0.00    +0.039 C 
ATOM     15  C   UNL     1       7.143  -0.124  -0.181  0.00  0.00    +0.020 C 
ATOM     16  C   UNL     1       6.490   1.956  -1.400  0.00  0.00    +0.020 C 
ATOM     17  C   UNL     1       6.564   1.943   1.097  0.00  0.00    +0.020 C 
ENDBRANCH  11  14
ENDBRANCH   7  10
ENDBRANCH   1   8
BRANCH   1  18
ATOM     18  O   UNL     1       1.447   4.155  -1.155  0.00  0.00    -0.453 OA
BRANCH  18  19
ATOM     19  C   UNL     1       1.535   5.602  -1.074  0.00  0.00    +0.312 C 
BRANCH  19  20
ATOM     20  C   UNL     1       1.528   6.185  -2.464  0.00  0.00    +0.209 C 
ATOM     21  O   UNL     1       1.455   5.452  -3.429  0.00  0.00    -0.288 OA
BRANCH  20  22
ATOM     22  C   UNL     1       1.605   7.583  -2.643  0.00  0.00    +0.123 A 
ATOM     23  C   UNL     1       1.722   8.144  -3.927  0.00  0.00    +0.116 A 
ATOM     24  N   UNL     1       1.788   9.502  -4.050  0.00  0.00    -0.284 N 
ATOM     25  C   UNL     1       1.754  10.303  -2.974  0.00  0.00    +0.333 A 
ATOM     26  O   UNL     1       1.820  11.506  -3.136  0.00  0.00    -0.246 OA
ATOM     27  N   UNL     1       1.648   9.825  -1.723  0.00  0.00    -0.263 N 
ATOM     28  C   UNL     1       1.571   8.497  -1.495  0.00  0.00    +0.269 A 
ATOM     29  O   UNL     1       1.474   8.067  -0.360  0.00  0.00    -0.267 OA
ATOM     30  C   UNL     1       1.616  10.756  -0.593  0.00  0.00    +0.157 C 
ATOM     31  C   UNL     1       1.905  10.097  -5.384  0.00  0.00    +0.155 C 
BRANCH  23  32
ATOM     32  N   UNL     1       1.765   7.346  -5.028  0.00  0.00    -0.344 N 
ATOM     33  H   UNL     1       1.633   6.389  -4.940  0.00  0.00    +0.144 HD
ATOM     34  H   UNL     1       1.927   7.735  -5.902  0.00  0.00    +0.144 HD
ENDBRANCH  23  32
ENDBRANCH  20  22
ENDBRANCH  19  20
ENDBRANCH  18  19
ENDBRANCH   1  18
TORSDOF 8
