REMARK  Name = ZINC52798264
REMARK  7 active torsions:
REMARK  status: ('A' for Active; 'I' for Inactive)
REMARK    1  A    between atoms: C_1  and  O_2
REMARK    2  A    between atoms: O_2  and  C_3
REMARK    3  A    between atoms: C_3  and  C_5
REMARK    4  A    between atoms: C_9  and  S_11
REMARK    5  A    between atoms: S_11  and  N_14
REMARK    6  A    between atoms: N_14  and  C_15
REMARK    7  A    between atoms: C_18  and  C_21
REMARK                            x       y       z     vdW  Elec       q    Type
REMARK                         _______ _______ _______ _____ _____    ______ ____
ROOT
ATOM      1  S   UNL     1       2.122  -4.862  -3.635  0.00  0.00    +0.093 S 
ATOM      2  O   UNL     1       1.221  -5.854  -4.107  0.00  0.00    -0.148 OA
ATOM      3  O   UNL     1       2.619  -3.825  -4.470  0.00  0.00    -0.148 OA
ENDROOT
BRANCH   1   8
ATOM      4  C   UNL     1       0.658  -2.075  -1.122  0.00  0.00    +0.061 A 
ATOM      5  C   UNL     1       0.089  -2.852  -0.111  0.00  0.00    +0.016 A 
ATOM      6  C   UNL     1       0.146  -4.228  -0.187  0.00  0.00    +0.023 A 
ATOM      7  C   UNL     1       0.767  -4.839  -1.263  0.00  0.00    +0.068 A 
ATOM      8  C   UNL     1       1.334  -4.074  -2.269  0.00  0.00    +0.129 A 
ATOM      9  C   UNL     1       1.278  -2.698  -2.208  0.00  0.00    +0.045 A 
ATOM     10 CL   UNL     1       0.836  -6.572  -1.352  0.00  0.00    -0.082 Cl
BRANCH   4  11
ATOM     11  C   UNL     1       0.601  -0.602  -1.046  0.00  0.00    +0.339 C 
ATOM     12  O   UNL     1       1.093   0.071  -1.930  0.00  0.00    -0.245 OA
BRANCH  11  14
ATOM     13  C   UNL     1      -0.017   1.425   0.010  0.00  0.00    +0.280 C 
ATOM     14  O   UNL     1       0.002  -0.004   0.002  0.00  0.00    -0.464 OA
ENDBRANCH  11  14
ENDBRANCH   4  11
ENDBRANCH   1   8
BRANCH   1  15
ATOM     15  N   UNL     1       3.442  -5.666  -3.041  0.00  0.00    -0.098 NA
BRANCH  15  16
ATOM     16  C   UNL     1       4.266  -6.389  -3.905  0.00  0.00    +0.074 A 
ATOM     17  C   UNL     1       3.980  -6.428  -5.265  0.00  0.00    +0.027 A 
ATOM     18  C   UNL     1       4.792  -7.141  -6.121  0.00  0.00    +0.012 A 
ATOM     19  C   UNL     1       5.902  -7.824  -5.621  0.00  0.00    -0.000 A 
ATOM     20  C   UNL     1       6.186  -7.783  -4.255  0.00  0.00    +0.012 A 
ATOM     21  C   UNL     1       5.374  -7.064  -3.405  0.00  0.00    +0.027 A 
BRANCH  19  22
ATOM     22  C   UNL     1       6.774  -8.590  -6.537  0.00  0.00    +0.066 A 
ATOM     23  C   UNL     1       7.888  -9.302  -6.189  0.00  0.00    +0.049 A 
ATOM     24  C   UNL     1       8.413  -9.870  -7.350  0.00  0.00    +0.135 A 
ATOM     25  N   UNL     1       7.658  -9.524  -8.362  0.00  0.00    -0.182 NA
ATOM     26  H   UNL     1       5.905  -8.329  -8.417  0.00  0.00    +0.189 HD
ATOM     27  N   UNL     1       6.614  -8.722  -7.884  0.00  0.00    -0.277 N 
ENDBRANCH  19  22
ENDBRANCH  15  16
ENDBRANCH   1  15
TORSDOF 6
