REMARK  Name = ZINC10431285
REMARK  6 active torsions:
REMARK  status: ('A' for Active; 'I' for Inactive)
REMARK    1  A    between atoms: C_1  and  C_2
REMARK    2  A    between atoms: C_3  and  C_16
REMARK    3  A    between atoms: C_16  and  C_17
REMARK    4  A    between atoms: C_17  and  C_18
REMARK    5  A    between atoms: N_20  and  C_21
REMARK    6  A    between atoms: C_24  and  N_28
REMARK                            x       y       z     vdW  Elec       q    Type
REMARK                         _______ _______ _______ _____ _____    ______ ____
ROOT
ATOM      1  C   UNL     1       3.599   2.180  -0.020  0.00  0.00    +0.051 C 
ENDROOT
BRANCH   1   4
ATOM      2  C   UNL     1       1.060   3.545  -0.000  0.00  0.00    +0.066 C 
ATOM      3  C   UNL     1       1.109   2.038  -0.002  0.00  0.00    +0.050 A 
ATOM      4  C   UNL     1       2.313   1.396  -0.011  0.00  0.00    +0.038 A 
ATOM      5  C   UNL     1       2.333  -0.010  -0.012  0.00  0.00    +0.256 A 
ATOM      6  O   UNL     1       3.391  -0.617  -0.020  0.00  0.00    -0.267 OA
ATOM      7  N   UNL     1       1.158  -0.676  -0.004  0.00  0.00    -0.295 N 
ATOM      8  H   UNL     1       1.148  -1.646  -0.004  0.00  0.00    +0.172 HD
ATOM      9  C   UNL     1      -0.012   0.019   0.005  0.00  0.00    +0.199 A 
ATOM     10  N   UNL     1      -0.022   1.337   0.006  0.00  0.00    -0.221 NA
ATOM     11  N   UNL     1      -1.199  -0.663   0.013  0.00  0.00    -0.297 N 
ATOM     12  C   UNL     1      -1.237  -1.668  -1.059  0.00  0.00    +0.136 C 
ATOM     13  C   UNL     1      -2.553  -2.446  -0.976  0.00  0.00    +0.179 C 
ATOM     14  O   UNL     1      -3.648  -1.529  -1.054  0.00  0.00    -0.377 OA
ATOM     15  C   UNL     1      -3.643  -0.537  -0.024  0.00  0.00    +0.179 C 
ATOM     16  C   UNL     1      -2.338   0.260  -0.097  0.00  0.00    +0.136 C 
ENDBRANCH   1   4
BRANCH   1  17
ATOM     17  C   UNL     1       4.110   2.337   1.414  0.00  0.00    +0.101 C 
BRANCH  17  18
ATOM     18  C   UNL     1       5.397   3.122   1.405  0.00  0.00    +0.218 C 
ATOM     19  O   UNL     1       5.860   3.516   0.356  0.00  0.00    -0.275 OA
ATOM     20  N   UNL     1       6.034   3.385   2.564  0.00  0.00    -0.285 N 
ATOM     21  H   UNL     1       5.630   3.129   3.408  0.00  0.00    +0.155 HD
BRANCH  20  22
ATOM     22  C   UNL     1       7.278   4.029   2.549  0.00  0.00    +0.036 A 
ATOM     23  C   UNL     1       8.241   3.700   3.493  0.00  0.00    +0.045 A 
ATOM     24  C   UNL     1       9.470   4.332   3.476  0.00  0.00    +0.065 A 
ATOM     25  C   UNL     1       9.738   5.304   2.521  0.00  0.00    +0.062 A 
ATOM     26  C   UNL     1       8.772   5.637   1.579  0.00  0.00    +0.065 A 
ATOM     27  C   UNL     1       7.545   5.001   1.594  0.00  0.00    +0.045 A 
ATOM     28 CL   UNL     1       9.105   6.852   0.385  0.00  0.00    -0.082 Cl
ATOM     29 CL   UNL     1      10.677   3.915   4.652  0.00  0.00    -0.082 Cl
BRANCH  25  30
ATOM     30  N   UNL     1      10.981   5.948   2.506  0.00  0.00    -0.356 N 
ATOM     31  H   UNL     1      11.168   6.627   1.839  0.00  0.00    +0.142 HD
ATOM     32  H   UNL     1      11.656   5.716   3.163  0.00  0.00    +0.142 HD
ENDBRANCH  25  30
ENDBRANCH  20  22
ENDBRANCH  17  18
ENDBRANCH   1  17
TORSDOF 5
