REMARK  Name = ZINC01382676
REMARK  6 active torsions:
REMARK  status: ('A' for Active; 'I' for Inactive)
REMARK    1  A    between atoms: C_6  and  C_7
REMARK    2  A    between atoms: C_7  and  C_9
REMARK    3  A    between atoms: C_7  and  N_17
REMARK    4  A    between atoms: N_11  and  C_12
REMARK    5  A    between atoms: N_17  and  C_18
REMARK    6  A    between atoms: C_28  and  C_30
REMARK                            x       y       z     vdW  Elec       q    Type
REMARK                         _______ _______ _______ _____ _____    ______ ____
ROOT
ATOM      1  N   UNL     1      -0.775  -1.816   1.544  0.00  0.00    -0.251 N 
ATOM      2  C   UNL     1      -1.992  -2.120   2.036  0.00  0.00    +0.252 C 
ATOM      3  O   UNL     1      -2.306  -3.282   2.207  0.00  0.00    -0.270 OA
ENDROOT
BRANCH   1   4
ATOM      4  C   UNL     1       0.163  -2.831   1.320  0.00  0.00    +0.041 A 
ATOM      5  C   UNL     1       1.190  -3.041   2.231  0.00  0.00    +0.027 A 
ATOM      6  C   UNL     1       2.117  -4.041   2.009  0.00  0.00    +0.051 A 
ATOM      7  C   UNL     1       2.024  -4.839   0.879  0.00  0.00    +0.162 A 
ATOM      8  C   UNL     1       0.996  -4.633  -0.033  0.00  0.00    +0.164 A 
ATOM      9  C   UNL     1       0.064  -3.632   0.191  0.00  0.00    +0.073 A 
ATOM     10  O   UNL     1       0.884  -5.412  -1.144  0.00  0.00    -0.485 OA
ATOM     11  C   UNL     1       2.042  -6.162  -1.524  0.00  0.00    +0.270 C 
ATOM     12  C   UNL     1       2.609  -6.839  -0.269  0.00  0.00    +0.270 C 
ATOM     13  O   UNL     1       2.949  -5.818   0.676  0.00  0.00    -0.485 OA
ENDBRANCH   1   4
BRANCH   2  14
ATOM     14  C   UNL     1      -2.944  -1.042   2.368  0.00  0.00    +0.041 A 
ATOM     15  C   UNL     1      -3.196  -0.022   1.447  0.00  0.00    +0.017 A 
ATOM     16  C   UNL     1      -4.085   0.983   1.760  0.00  0.00    +0.050 A 
ATOM     17  C   UNL     1      -4.733   0.987   2.989  0.00  0.00    +0.162 A 
ATOM     18  C   UNL     1      -4.488  -0.028   3.910  0.00  0.00    +0.163 A 
ATOM     19  C   UNL     1      -3.601  -1.042   3.601  0.00  0.00    +0.062 A 
ATOM     20  O   UNL     1      -5.122  -0.042   5.116  0.00  0.00    -0.485 OA
ATOM     21  C   UNL     1      -5.727   1.185   5.539  0.00  0.00    +0.270 C 
ATOM     22  C   UNL     1      -6.516   1.764   4.357  0.00  0.00    +0.270 C 
ATOM     23  O   UNL     1      -5.603   1.992   3.277  0.00  0.00    -0.485 OA
ENDBRANCH   2  14
BRANCH   1  24
ATOM     24  C   UNL     1      -0.433  -0.423   1.243  0.00  0.00    +0.197 C 
BRANCH  24  30
ATOM     25  C   UNL     1       0.587   0.615   3.280  0.00  0.00    +0.009 A 
ATOM     26  C   UNL     1       1.684   0.992   4.030  0.00  0.00    +0.038 A 
ATOM     27  C   UNL     1       2.962   0.742   3.560  0.00  0.00    +0.123 A 
ATOM     28  C   UNL     1       3.139   0.114   2.339  0.00  0.00    +0.038 A 
ATOM     29  C   UNL     1       2.040  -0.263   1.591  0.00  0.00    +0.009 A 
ATOM     30  C   UNL     1       0.764  -0.012   2.061  0.00  0.00    -0.018 A 
ATOM     31  F   UNL     1       4.036   1.111   4.293  0.00  0.00    -0.205 F 
ENDBRANCH  24  30
BRANCH  24  32
ATOM     32  C   UNL     1      -0.111  -0.291  -0.223  0.00  0.00    +0.239 C 
ATOM     33  O   UNL     1      -0.161  -1.263  -0.945  0.00  0.00    -0.273 OA
ATOM     34  N   UNL     1       0.234   0.909  -0.731  0.00  0.00    -0.311 N 
ATOM     35  H   UNL     1       0.275   1.687  -0.153  0.00  0.00    +0.149 HD
BRANCH  34  36
ATOM     36  C   UNL     1       0.548   1.038  -2.156  0.00  0.00    +0.073 C 
ATOM     37  C   UNL     1       2.044   0.750  -2.396  0.00  0.00    +0.022 C 
ATOM     38  C   UNL     1       2.450   1.751  -3.506  0.00  0.00    +0.002 C 
ATOM     39  C   UNL     1       1.652   3.023  -3.129  0.00  0.00    +0.002 C 
ATOM     40  C   UNL     1       0.298   2.483  -2.622  0.00  0.00    +0.022 C 
ENDBRANCH  34  36
ENDBRANCH  24  32
ENDBRANCH   1  24
TORSDOF 6
