REMARK  Name = ZINC63374784
REMARK  9 active torsions:
REMARK  status: ('A' for Active; 'I' for Inactive)
REMARK    1  A    between atoms: C_1  and  C_2
REMARK    2  A    between atoms: C_2  and  C_3
REMARK    3  A    between atoms: C_2  and  C_4
REMARK    4  A    between atoms: C_4  and  N_5
REMARK    5  A    between atoms: C_6  and  C_8
REMARK    6  A    between atoms: C_13  and  N_14
REMARK    7  A    between atoms: C_30  and  C_35
REMARK    8  A    between atoms: C_39  and  O_41
REMARK    9  A    between atoms: O_41  and  C_42
REMARK                            x       y       z     vdW  Elec       q    Type
REMARK                         _______ _______ _______ _____ _____    ______ ____
ROOT
ATOM      1  N   UNL     1      -4.981  -4.202  -0.167  0.00  0.00    -0.192 N 
ATOM      2  C   UNL     1      -5.690  -3.746  -1.221  0.00  0.00    +0.248 C 
ATOM      3  O   UNL     1      -5.385  -3.812  -2.392  0.00  0.00    -0.273 OA
ATOM      4  C   UNL     1      -6.946  -3.136  -0.636  0.00  0.00    +0.169 C 
ATOM      5  C   UNL     1      -7.034  -1.650  -1.024  0.00  0.00    +0.065 C 
ATOM      6  C   UNL     1      -7.890  -0.983   0.026  0.00  0.00    -0.034 C 
ATOM      7  C   UNL     1      -8.164   0.300   0.235  0.00  0.00    -0.001 A 
ATOM      8  C   UNL     1      -7.812   1.511  -0.524  0.00  0.00    +0.010 A 
ATOM      9  C   UNL     1      -8.251   2.690  -0.009  0.00  0.00    +0.001 A 
ATOM     10  C   UNL     1      -8.995   2.783   1.172  0.00  0.00    +0.002 A 
ATOM     11  C   UNL     1      -9.369   1.722   1.930  0.00  0.00    +0.026 A 
ATOM     12  C   UNL     1      -8.971   0.427   1.486  0.00  0.00    +0.043 A 
ATOM     13  N   UNL     1      -9.201  -0.745   1.998  0.00  0.00    -0.375 N 
ATOM     14  C   UNL     1      -8.621  -1.759   1.115  0.00  0.00    +0.131 C 
ATOM     15  C   UNL     1      -7.571  -2.607   1.846  0.00  0.00    +0.135 C 
ATOM     16  N   UNL     1      -6.724  -3.237   0.821  0.00  0.00    -0.264 N 
ATOM     17  C   UNL     1      -5.595  -3.938   0.994  0.00  0.00    +0.317 C 
ATOM     18  O   UNL     1      -5.175  -4.289   2.079  0.00  0.00    -0.252 OA
ATOM     19  H   UNL     1      -9.677  -0.919   2.826  0.00  0.00    +0.160 HD
ENDROOT
BRANCH   1  25
ATOM     20  C   UNL     1      -2.558  -4.152  -0.259  0.00  0.00    +0.059 A 
ATOM     21  C   UNL     1      -1.343  -4.834  -0.361  0.00  0.00    +0.015 A 
ATOM     22  C   UNL     1      -1.334  -6.207  -0.481  0.00  0.00    +0.001 A 
ATOM     23  C   UNL     1      -2.525  -6.915  -0.502  0.00  0.00    +0.002 A 
ATOM     24  C   UNL     1      -3.732  -6.253  -0.401  0.00  0.00    +0.025 A 
ATOM     25  C   UNL     1      -3.760  -4.872  -0.274  0.00  0.00    +0.058 A 
BRANCH  20  27
ATOM     26  N   UNL     1      -1.416  -1.993  -0.116  0.00  0.00    -0.311 N 
ATOM     27  C   UNL     1      -2.575  -2.682  -0.130  0.00  0.00    +0.246 C 
ATOM     28  O   UNL     1      -3.634  -2.092  -0.036  0.00  0.00    -0.270 OA
ATOM     29  H   UNL     1      -0.572  -2.463  -0.190  0.00  0.00    +0.149 HD
BRANCH  26  30
ATOM     30  C   UNL     1      -1.433  -0.534   0.013  0.00  0.00    +0.107 C 
BRANCH  30  32
ATOM     31  C   UNL     1      -0.019   1.526   0.010  0.00  0.00    +0.009 C 
ATOM     32  C   UNL     1       0.002  -0.004   0.002  0.00  0.00    -0.000 C 
ATOM     33  C   UNL     1       0.742  -0.511   1.242  0.00  0.00    +0.009 C 
ENDBRANCH  30  32
ENDBRANCH  26  30
ENDBRANCH  20  27
ENDBRANCH   1  25
BRANCH  15  34
ATOM     34  C   UNL     1      -6.747  -1.732   2.754  0.00  0.00    -0.021 A 
ATOM     35  C   UNL     1      -5.717  -0.971   2.232  0.00  0.00    +0.006 A 
ATOM     36  C   UNL     1      -4.958  -0.167   3.063  0.00  0.00    +0.004 A 
ATOM     37  C   UNL     1      -5.227  -0.124   4.417  0.00  0.00    +0.045 A 
ATOM     38  C   UNL     1      -6.259  -0.887   4.944  0.00  0.00    +0.120 A 
ATOM     39  C   UNL     1      -7.023  -1.688   4.107  0.00  0.00    +0.051 A 
BRANCH  38  40
ATOM     40  O   UNL     1      -6.525  -0.846   6.276  0.00  0.00    -0.495 OA
ATOM     41  C   UNL     1      -5.702   0.006   7.076  0.00  0.00    +0.277 C 
ENDBRANCH  38  40
ENDBRANCH  15  34
TORSDOF 6
