REMARK  Name = ZINC01058207
REMARK  3 active torsions:
REMARK  status: ('A' for Active; 'I' for Inactive)
REMARK    1  A    between atoms: C_5  and  C_6
REMARK    2  A    between atoms: N_7  and  N_8
REMARK    3  A    between atoms: C_9  and  C_11
REMARK                            x       y       z     vdW  Elec       q    Type
REMARK                         _______ _______ _______ _____ _____    ______ ____
ROOT
ATOM      1  N   UNL     1       1.225  -0.688  -0.013  0.00  0.00    -0.201 N 
ATOM      2  C   UNL     1       1.243  -2.036  -0.021  0.00  0.00    +0.288 C 
ATOM      3  O   UNL     1       0.198  -2.658  -0.014  0.00  0.00    -0.267 OA
ATOM      4  H   UNL     1       2.058  -0.192  -0.019  0.00  0.00    +0.178 HD
ENDROOT
BRANCH   2   5
ATOM      5  C   UNL     1       2.535  -2.758  -0.037  0.00  0.00    +0.211 A 
ATOM      6  C   UNL     1       2.780  -4.219  -0.047  0.00  0.00    +0.193 A 
ATOM      7  N   UNL     1       4.091  -4.288  -0.060  0.00  0.00    -0.033 NA
ATOM      8  O   UNL     1       4.553  -3.171  -0.059  0.00  0.00    -0.240 OA
ATOM      9  N   UNL     1       3.755  -2.265  -0.052  0.00  0.00    -0.042 NA
ATOM     10  N   UNL     1       1.856  -5.254  -0.044  0.00  0.00    -0.339 N 
ATOM     11  H   UNL     1       0.906  -5.057  -0.034  0.00  0.00    +0.144 HD
ATOM     12  H   UNL     1       2.159  -6.176  -0.052  0.00  0.00    +0.144 HD
ENDBRANCH   2   5
BRANCH   1  14
ATOM     13  C   UNL     1      -0.016   1.297   0.009  0.00  0.00    +0.145 C 
ATOM     14  N   UNL     1       0.002  -0.004   0.002  0.00  0.00    -0.187 NA
BRANCH  13  19
ATOM     15  C   UNL     1      -1.532   3.377   0.033  0.00  0.00    +0.032 A 
ATOM     16  C   UNL     1      -2.837   3.813   0.037  0.00  0.00    +0.025 A 
ATOM     17  C   UNL     1      -3.844   2.900   0.037  0.00  0.00    +0.061 A 
ATOM     18  S   UNL     1      -2.954   1.353   0.024  0.00  0.00    -0.095 S 
ATOM     19  C   UNL     1      -1.295   2.013   0.019  0.00  0.00    +0.033 A 
ATOM     20 BR   UNL     1      -3.225   5.664   0.049  0.00  0.00    -0.050 Br
ENDBRANCH  13  19
ENDBRANCH   1  14
TORSDOF 3
