REMARK  Name = ZINC63375552
REMARK  7 active torsions:
REMARK  status: ('A' for Active; 'I' for Inactive)
REMARK    1  A    between atoms: C_1  and  O_2
REMARK    2  A    between atoms: O_2  and  C_3
REMARK    3  A    between atoms: C_7  and  C_9
REMARK    4  A    between atoms: N_27  and  C_30
REMARK    5  A    between atoms: C_33  and  C_36
REMARK    6  A    between atoms: N_38  and  C_39
REMARK    7  A    between atoms: C_39  and  C_40
REMARK                            x       y       z     vdW  Elec       q    Type
REMARK                         _______ _______ _______ _____ _____    ______ ____
ROOT
ATOM      1  C   UNL     1      -2.545  -4.194  -0.003  0.00  0.00    +0.135 C 
ATOM      2  C   UNL     1      -3.000  -4.693  -1.383  0.00  0.00    +0.131 C 
ATOM      3  C   UNL     1      -4.486  -4.381  -1.502  0.00  0.00    -0.034 C 
ATOM      4  C   UNL     1      -4.624  -3.634  -2.592  0.00  0.00    -0.001 A 
ATOM      5  C   UNL     1      -5.817  -3.081  -3.254  0.00  0.00    +0.010 A 
ATOM      6  C   UNL     1      -5.593  -2.338  -4.370  0.00  0.00    +0.001 A 
ATOM      7  C   UNL     1      -4.317  -2.093  -4.888  0.00  0.00    +0.002 A 
ATOM      8  C   UNL     1      -3.166  -2.566  -4.347  0.00  0.00    +0.026 A 
ATOM      9  C   UNL     1      -3.273  -3.364  -3.171  0.00  0.00    +0.043 A 
ATOM     10  N   UNL     1      -2.333  -3.961  -2.462  0.00  0.00    -0.375 N 
ATOM     11  C   UNL     1      -5.510  -4.823  -0.482  0.00  0.00    +0.065 C 
ATOM     12  C   UNL     1      -4.997  -4.345   0.888  0.00  0.00    +0.169 C 
ATOM     13  N   UNL     1      -3.551  -4.644   0.968  0.00  0.00    -0.264 N 
ATOM     14  C   UNL     1      -3.370  -5.402   2.057  0.00  0.00    +0.317 C 
ATOM     15  O   UNL     1      -2.280  -5.730   2.481  0.00  0.00    -0.252 OA
ATOM     16  N   UNL     1      -4.531  -5.758   2.624  0.00  0.00    -0.193 N 
ATOM     17  C   UNL     1      -5.607  -5.186   1.988  0.00  0.00    +0.248 C 
ATOM     18  O   UNL     1      -6.786  -5.320   2.239  0.00  0.00    -0.273 OA
ATOM     19  H   UNL     1      -1.375  -3.925  -2.615  0.00  0.00    +0.160 HD
ENDROOT
BRANCH   1  24
ATOM     20  C   UNL     1      -3.539  -0.551  -0.136  0.00  0.00    +0.120 A 
ATOM     21  C   UNL     1      -2.308   0.074   0.004  0.00  0.00    +0.045 A 
ATOM     22  C   UNL     1      -1.162  -0.683   0.142  0.00  0.00    +0.004 A 
ATOM     23  C   UNL     1      -1.239  -2.064   0.140  0.00  0.00    +0.006 A 
ATOM     24  C   UNL     1      -2.464  -2.689  -0.000  0.00  0.00    -0.021 A 
ATOM     25  C   UNL     1      -3.615  -1.936  -0.132  0.00  0.00    +0.051 A 
BRANCH  20  27
ATOM     26  C   UNL     1      -4.515   1.613  -0.266  0.00  0.00    +0.277 C 
ATOM     27  O   UNL     1      -4.669   0.192  -0.271  0.00  0.00    -0.495 OA
ENDBRANCH  20  27
ENDBRANCH   1  24
BRANCH  16  28
ATOM     28  C   UNL     1      -4.637  -6.601   3.734  0.00  0.00    +0.045 A 
ATOM     29  C   UNL     1      -5.890  -7.017   4.172  0.00  0.00    +0.025 A 
ATOM     30  C   UNL     1      -5.998  -7.847   5.265  0.00  0.00    +0.015 A 
ATOM     31  C   UNL     1      -4.848  -8.272   5.934  0.00  0.00    +0.037 A 
ATOM     32  C   UNL     1      -3.591  -7.852   5.491  0.00  0.00    +0.015 A 
ATOM     33  C   UNL     1      -3.490  -7.027   4.394  0.00  0.00    +0.025 A 
BRANCH  31  34
ATOM     34  C   UNL     1      -4.960  -9.162   7.107  0.00  0.00    +0.244 C 
ATOM     35  O   UNL     1      -6.054  -9.526   7.491  0.00  0.00    -0.270 OA
ATOM     36  N   UNL     1      -3.849  -9.571   7.751  0.00  0.00    -0.308 N 
ATOM     37  H   UNL     1      -2.975  -9.281   7.444  0.00  0.00    +0.149 HD
BRANCH  36  38
ATOM     38  C   UNL     1      -3.960 -10.454   8.915  0.00  0.00    +0.131 C 
BRANCH  38  39
ATOM     39  C   UNL     1      -2.583 -10.760   9.447  0.00  0.00    -0.016 C 
ATOM     40  C   UNL     1      -2.298 -10.521  10.703  0.00  0.00    +0.005 C 
ENDBRANCH  38  39
ENDBRANCH  36  38
ENDBRANCH  31  34
ENDBRANCH  16  28
TORSDOF 6
