REMARK  Name = ZINC10283758
REMARK  12 active torsions:
REMARK  status: ('A' for Active; 'I' for Inactive)
REMARK    1  A    between atoms: C_1  and  C_2
REMARK    2  A    between atoms: C_2  and  N_62
REMARK    3  A    between atoms: C_3  and  C_4
REMARK    4  A    between atoms: C_3  and  N_62
REMARK    5  A    between atoms: C_5  and  C_6
REMARK    6  A    between atoms: C_5  and  N_62
REMARK    7  A    between atoms: C_11  and  C_12
REMARK    8  A    between atoms: C_12  and  N_13
REMARK    9  A    between atoms: C_14  and  C_16
REMARK   10  A    between atoms: C_16  and  S_17
REMARK   11  A    between atoms: S_17  and  C_18
REMARK   12  A    between atoms: C_18  and  C_19
REMARK                            x       y       z     vdW  Elec       q    Type
REMARK                         _______ _______ _______ _____ _____    ______ ____
ROOT
ATOM      1  N   UNL     1      -3.078   4.317 -10.548  0.00  0.00    -0.311 N 
ATOM      2  C   UNL     1      -3.236   3.930  -9.267  0.00  0.00    +0.223 C 
ATOM      3  O   UNL     1      -4.326   4.009  -8.740  0.00  0.00    -0.275 OA
ATOM      4  H   UNL     1      -2.207   4.254 -10.970  0.00  0.00    +0.149 HD
ENDROOT
BRANCH   1   5
ATOM      5  C   UNL     1      -4.222   4.834 -11.304  0.00  0.00    +0.139 C 
BRANCH   5  11
ATOM      6  C   UNL     1      -3.639   4.205 -13.655  0.00  0.00    -0.059 A 
ATOM      7  C   UNL     1      -3.235   4.535 -14.936  0.00  0.00    +0.002 A 
ATOM      8  C   UNL     1      -2.973   5.853 -15.260  0.00  0.00    +0.000 A 
ATOM      9  C   UNL     1      -3.114   6.841 -14.303  0.00  0.00    +0.000 A 
ATOM     10  C   UNL     1      -3.523   6.512 -13.025  0.00  0.00    +0.005 A 
ATOM     11  C   UNL     1      -3.781   5.193 -12.699  0.00  0.00    -0.029 A 
BRANCH   6  12
ATOM     12  C   UNL     1      -3.926   2.768 -13.302  0.00  0.00    -0.043 C 
BRANCH  12  13
ATOM     13  N   UNL     1      -5.389   2.557 -13.315  0.00  0.00    +0.382 N 
ATOM     14  H   UNL     1      -5.834   3.275 -12.730  0.00  0.00    -0.081 HD
BRANCH  13  16
ATOM     15  C   UNL     1      -5.284   1.601 -15.592  0.00  0.00    -0.017 C 
ATOM     16  C   UNL     1      -5.905   2.674 -14.695  0.00  0.00    -0.082 C 
ENDBRANCH  13  16
BRANCH  13  17
ATOM     17  C   UNL     1      -5.712   1.223 -12.766  0.00  0.00    -0.082 C 
ATOM     18  C   UNL     1      -7.208   1.169 -12.452  0.00  0.00    -0.017 C 
ENDBRANCH  13  17
ENDBRANCH  12  13
ENDBRANCH   6  12
ENDBRANCH   5  11
ENDBRANCH   1   5
BRANCH   2  19
ATOM     19  C   UNL     1      -2.060   3.399  -8.489  0.00  0.00    +0.165 C 
BRANCH  19  20
ATOM     20  S   UNL     1      -2.591   2.966  -6.810  0.00  0.00    -0.144 S 
BRANCH  20  21
ATOM     21  C   UNL     1      -1.079   2.352  -6.016  0.00  0.00    +0.143 C 
BRANCH  21  22
ATOM     22  C   UNL     1      -1.385   1.952  -4.596  0.00  0.00    +0.121 A 
ATOM     23  N   UNL     1      -0.389   1.461  -3.813  0.00  0.00    -0.310 N 
ATOM     24  H   UNL     1       0.504   1.374  -4.180  0.00  0.00    +0.170 HD
ATOM     25  C   UNL     1      -0.618   1.092  -2.539  0.00  0.00    +0.260 A 
ATOM     26  O   UNL     1       0.285   0.652  -1.848  0.00  0.00    -0.267 OA
ATOM     27  C   UNL     1      -1.943   1.225  -2.010  0.00  0.00    +0.075 A 
ATOM     28  C   UNL     1      -2.419   0.887  -0.660  0.00  0.00    -0.023 A 
ATOM     29  C   UNL     1      -3.720   1.105  -0.403  0.00  0.00    -0.004 A 
ATOM     30  S   UNL     1      -4.384   1.762  -1.916  0.00  0.00    -0.073 S 
ATOM     31  C   UNL     1      -2.903   1.741  -2.890  0.00  0.00    +0.116 A 
ATOM     32  N   UNL     1      -2.602   2.085  -4.140  0.00  0.00    -0.226 NA
ATOM     33  C   UNL     1      -4.092   0.728   1.006  0.00  0.00    +0.043 C 
ATOM     34  C   UNL     1      -2.740   0.640   1.754  0.00  0.00    +0.010 C 
ATOM     35  C   UNL     1      -1.769   0.314   0.603  0.00  0.00    +0.037 C 
ENDBRANCH  21  22
ENDBRANCH  20  21
ENDBRANCH  19  20
ENDBRANCH   2  19
TORSDOF 10
