REMARK  Name = ZINC66776102
REMARK  7 active torsions:
REMARK  status: ('A' for Active; 'I' for Inactive)
REMARK    1  A    between atoms: C_1  and  C_2
REMARK    2  A    between atoms: C_4  and  C_26
REMARK    3  A    between atoms: C_5  and  S_9
REMARK    4  A    between atoms: C_6  and  C_8
REMARK    5  A    between atoms: S_9  and  N_12
REMARK    6  A    between atoms: C_16  and  C_18
REMARK    7  A    between atoms: C_18  and  N_20
REMARK                            x       y       z     vdW  Elec       q    Type
REMARK                         _______ _______ _______ _____ _____    ______ ____
ROOT
ATOM      1  N   UNL     1       0.497  -4.928  -0.777  0.00  0.00    -0.165 NA
ATOM      2  C   UNL     1       1.285  -5.169   0.441  0.00  0.00    +0.110 C 
ATOM      3  C   UNL     1       2.655  -4.488   0.242  0.00  0.00    +0.019 C 
ATOM      4  C   UNL     1       2.358  -3.421  -0.845  0.00  0.00    +0.031 C 
ATOM      5  C   UNL     1       1.320  -4.161  -1.728  0.00  0.00    +0.167 C 
ENDROOT
BRANCH   1   6
ATOM      6  S   UNL     1      -1.056  -5.440  -1.038  0.00  0.00    +0.062 S 
ATOM      7  O   UNL     1      -1.534  -4.726  -2.170  0.00  0.00    -0.153 OA
ATOM      8  O   UNL     1      -1.714  -5.402   0.221  0.00  0.00    -0.153 OA
BRANCH   6  13
ATOM      9  C   UNL     1      -0.767 -11.245  -2.660  0.00  0.00    +0.044 C 
ATOM     10  C   UNL     1      -0.840  -9.795  -2.255  0.00  0.00    -0.050 A 
ATOM     11  C   UNL     1      -0.842  -8.807  -3.221  0.00  0.00    +0.008 A 
ATOM     12  C   UNL     1      -0.908  -7.477  -2.850  0.00  0.00    -0.024 A 
ATOM     13  C   UNL     1      -0.973  -7.136  -1.512  0.00  0.00    +0.111 A 
ATOM     14  C   UNL     1      -0.971  -8.124  -0.545  0.00  0.00    -0.024 A 
ATOM     15  C   UNL     1      -0.909  -9.454  -0.917  0.00  0.00    +0.008 A 
ATOM     16  C   UNL     1      -1.041  -7.752   0.913  0.00  0.00    +0.046 C 
ATOM     17  C   UNL     1      -0.910  -6.399  -3.904  0.00  0.00    +0.046 C 
ENDBRANCH   6  13
ENDBRANCH   1   6
BRANCH   5  18
ATOM     18  C   UNL     1       0.469  -3.169  -2.478  0.00  0.00    +0.257 C 
ATOM     19  O   UNL     1      -0.367  -2.515  -1.885  0.00  0.00    -0.272 OA
BRANCH  18  20
ATOM     20  N   UNL     1       0.631  -3.009  -3.789  0.00  0.00    -0.158 NA
ATOM     21  C   UNL     1      -0.046  -2.065  -4.432  0.00  0.00    +0.146 C 
ATOM     22  N   UNL     1      -0.061  -1.865  -5.770  0.00  0.00    -0.325 N 
ATOM     23  C   UNL     1      -0.851  -0.790  -6.333  0.00  0.00    +0.114 C 
ATOM     24  C   UNL     1      -1.591  -0.005  -5.229  0.00  0.00    +0.095 C 
ATOM     25  S   UNL     1      -1.041  -0.912  -3.732  0.00  0.00    -0.092 S 
ATOM     26  H   UNL     1       0.457  -2.442  -6.352  0.00  0.00    +0.148 HD
ENDBRANCH  18  20
ENDBRANCH   5  18
TORSDOF 4
