REMARK  Name = ZINC16495864
REMARK  12 active torsions:
REMARK  status: ('A' for Active; 'I' for Inactive)
REMARK    1  A    between atoms: C_1  and  C_2
REMARK    2  A    between atoms: C_2  and  C_3
REMARK    3  A    between atoms: C_3  and  C_4
REMARK    4  A    between atoms: C_4  and  C_5
REMARK    5  A    between atoms: C_5  and  C_6
REMARK    6  A    between atoms: C_6  and  C_7
REMARK    7  A    between atoms: C_10  and  C_13
REMARK    8  A    between atoms: C_21  and  C_25
REMARK    9  A    between atoms: N_27  and  C_28
REMARK   10  A    between atoms: C_28  and  C_30
REMARK   11  A    between atoms: C_28  and  C_31
REMARK   12  A    between atoms: C_31  and  C_32
REMARK                            x       y       z     vdW  Elec       q    Type
REMARK                         _______ _______ _______ _____ _____    ______ ____
ROOT
ATOM      1  C   UNL     1      -3.329   6.945   1.037  0.00  0.00    +0.247 C 
ATOM      2  O   UNL     1      -2.649   7.895   0.701  0.00  0.00    -0.270 OA
ATOM      3  N   UNL     1      -2.741   5.772   1.347  0.00  0.00    -0.298 N 
ATOM      4  C   UNL     1      -1.295   5.590   1.163  0.00  0.00    +0.107 C 
ATOM      5  C   UNL     1      -0.686   5.121   2.490  0.00  0.00    +0.017 C 
ATOM      6  C   UNL     1      -1.436   3.894   2.986  0.00  0.00    -0.016 C 
ATOM      7  C   UNL     1      -2.913   4.192   3.198  0.00  0.00    +0.017 C 
ATOM      8  C   UNL     1      -3.535   4.655   1.875  0.00  0.00    +0.107 C 
ATOM      9  C   UNL     1      -0.700   1.536   2.682  0.00  0.00    +0.028 C 
ATOM     10  C   UNL     1       0.255   1.889   3.861  0.00  0.00    +0.061 C 
ATOM     11  S   UNL     1      -0.691   3.315   4.565  0.00  0.00    -0.174 S 
ATOM     12  N   UNL     1      -1.260   2.755   2.032  0.00  0.00    +0.397 N 
ATOM     13  H   UNL     1      -0.621   3.050   1.284  0.00  0.00    -0.083 HD
ATOM     14  H   UNL     1      -2.174   2.521   1.628  0.00  0.00    -0.083 HD
ENDROOT
BRANCH   1  18
ATOM     15  C   UNL     1      -7.555   7.320   1.232  0.00  0.00    -0.047 A 
ATOM     16  C   UNL     1      -6.752   8.386   1.597  0.00  0.00    +0.004 A 
ATOM     17  C   UNL     1      -5.378   8.271   1.536  0.00  0.00    +0.013 A 
ATOM     18  C   UNL     1      -4.800   7.075   1.105  0.00  0.00    +0.037 A 
ATOM     19  C   UNL     1      -5.616   6.006   0.734  0.00  0.00    +0.013 A 
ATOM     20  C   UNL     1      -6.988   6.133   0.804  0.00  0.00    +0.004 A 
BRANCH  15  21
ATOM     21  C   UNL     1      -9.055   7.454   1.301  0.00  0.00    +0.035 C 
BRANCH  21  22
ATOM     22  C   UNL     1      -9.582   7.979  -0.035  0.00  0.00    +0.005 C 
BRANCH  22  23
ATOM     23  C   UNL     1     -11.105   8.114   0.035  0.00  0.00    +0.000 C 
BRANCH  23  24
ATOM     24  C   UNL     1     -11.632   8.640  -1.302  0.00  0.00    -0.000 C 
BRANCH  24  26
ATOM     25  C   UNL     1     -13.682   9.301  -2.568  0.00  0.00    +0.004 C 
ATOM     26  C   UNL     1     -13.155   8.775  -1.232  0.00  0.00    -0.003 C 
ENDBRANCH  24  26
ENDBRANCH  23  24
ENDBRANCH  22  23
ENDBRANCH  21  22
ENDBRANCH  15  21
ENDBRANCH   1  18
BRANCH   9  27
ATOM     27  C   UNL     1       0.063   0.762   1.639  0.00  0.00    +0.200 C 
ATOM     28  O   UNL     1       0.182   1.210   0.518  0.00  0.00    -0.278 OA
ATOM     29  N   UNL     1       0.614  -0.428   1.952  0.00  0.00    -0.314 N 
ATOM     30  H   UNL     1       0.518  -0.786   2.848  0.00  0.00    +0.149 HD
BRANCH  29  31
ATOM     31  C   UNL     1       1.356  -1.181   0.938  0.00  0.00    +0.070 C 
ATOM     32  C   UNL     1       2.804  -0.688   0.895  0.00  0.00    +0.028 C 
BRANCH  31  33
ATOM     33  C   UNL     1       1.335  -2.669   1.290  0.00  0.00    +0.018 C 
ATOM     34  C   UNL     1      -0.102  -3.191   1.211  0.00  0.00    +0.005 C 
ENDBRANCH  31  33
ENDBRANCH  29  31
ENDBRANCH   9  27
TORSDOF 9
