REMARK  Name = ZINC39467591
REMARK  5 active torsions:
REMARK  status: ('A' for Active; 'I' for Inactive)
REMARK    1  A    between atoms: C_4  and  O_7
REMARK    2  A    between atoms: O_7  and  S_8
REMARK    3  A    between atoms: S_8  and  C_11
REMARK    4  A    between atoms: P_20  and  C_30
REMARK    5  A    between atoms: C_35  and  O_36
REMARK                            x       y       z     vdW  Elec       q    Type
REMARK                         _______ _______ _______ _____ _____    ______ ____
ROOT
ATOM      1  C   UNL     1       3.192  -2.273   2.002  0.00  0.00    +0.142 C 
ATOM      2  C   UNL     1       3.740  -3.477   2.150  0.00  0.00    +0.009 C 
ATOM      3  C   UNL     1       2.911  -4.606   2.701  0.00  0.00    +0.018 C 
ATOM      4  C   UNL     1       3.487  -5.951   2.277  0.00  0.00    -0.003 C 
ATOM      5  C   UNL     1       3.401  -6.123   0.755  0.00  0.00    -0.020 C 
ATOM      6  C   UNL     1       3.975  -7.507   0.425  0.00  0.00    +0.157 C 
ATOM      7  O   UNL     1       3.964  -7.706  -1.000  0.00  0.00    -0.316 OA
ATOM      8  P   UNL     1       2.572  -7.414  -1.791  0.00  0.00    +0.291 P 
ATOM      9  O   UNL     1       1.653  -8.566  -1.655  0.00  0.00    -0.269 OA
ATOM     10  N   UNL     1       1.931  -6.080  -1.061  0.00  0.00    -0.288 NA
ATOM     11  N   UNL     1       2.010  -6.002   0.314  0.00  0.00    +0.398 N 
ATOM     12  C   UNL     1       1.471  -4.681   0.673  0.00  0.00    -0.046 C 
ATOM     13  C   UNL     1       1.478  -4.492   2.174  0.00  0.00    +0.006 C 
ATOM     14  C   UNL     1       0.961  -3.104   2.473  0.00  0.00    -0.003 C 
ATOM     15  C   UNL     1       1.788  -2.062   2.397  0.00  0.00    +0.065 C 
ATOM     16 CL   UNL     1       1.215  -0.463   2.755  0.00  0.00    -0.082 Cl
ATOM     17  H   UNL     1       1.512  -5.377  -1.582  0.00  0.00    +0.111 HD
ATOM     18  H   UNL     1       1.456  -6.734   0.731  0.00  0.00    -0.055 HD
ENDROOT
BRANCH   8  19
ATOM     19  C   UNL     1       2.904  -7.079  -3.543  0.00  0.00    +0.091 A 
ATOM     20  C   UNL     1       3.142  -5.785  -3.967  0.00  0.00    +0.018 A 
ATOM     21  C   UNL     1       3.394  -5.529  -5.301  0.00  0.00    +0.001 A 
ATOM     22  C   UNL     1       3.409  -6.566  -6.216  0.00  0.00    +0.004 A 
ATOM     23  C   UNL     1       3.172  -7.861  -5.798  0.00  0.00    +0.046 A 
ATOM     24  C   UNL     1       2.924  -8.121  -4.458  0.00  0.00    +0.131 A 
BRANCH  24  25
ATOM     25  O   UNL     1       2.696  -9.395  -4.043  0.00  0.00    -0.506 OA
ATOM     26  H   UNL     1       1.765  -9.656  -4.065  0.00  0.00    +0.292 HD
ENDBRANCH  24  25
ENDBRANCH   8  19
BRANCH   1  27
ATOM     27  S   UNL     1       4.140  -0.941   1.346  0.00  0.00    +0.152 S 
ATOM     28  O   UNL     1       5.458  -1.436   1.154  0.00  0.00    -0.131 OA
ATOM     29  O   UNL     1       3.863   0.192   2.158  0.00  0.00    -0.131 OA
BRANCH  27  30
ATOM     30  O   UNL     1       3.586  -0.632  -0.037  0.00  0.00    -0.342 OA
BRANCH  30  34
ATOM     31  C   UNL     1      -0.017   1.378   0.010  0.00  0.00    +0.000 A 
ATOM     32  C   UNL     1       1.170   2.088   0.002  0.00  0.00    +0.004 A 
ATOM     33  C   UNL     1       2.377   1.417  -0.013  0.00  0.00    +0.048 A 
ATOM     34  C   UNL     1       2.399   0.030  -0.021  0.00  0.00    +0.157 A 
ATOM     35  C   UNL     1       1.207  -0.680  -0.013  0.00  0.00    +0.048 A 
ATOM     36  C   UNL     1       0.002  -0.004   0.002  0.00  0.00    +0.004 A 
ENDBRANCH  30  34
ENDBRANCH  27  30
ENDBRANCH   1  27
TORSDOF 5
