REMARK  Name = ZINC32808500
REMARK  8 active torsions:
REMARK  status: ('A' for Active; 'I' for Inactive)
REMARK    1  A    between atoms: C_1  and  C_2
REMARK    2  A    between atoms: C_3  and  C_28
REMARK    3  A    between atoms: C_7  and  N_12
REMARK    4  A    between atoms: C_9  and  C_11
REMARK    5  A    between atoms: N_15  and  S_18
REMARK    6  A    between atoms: S_18  and  C_21
REMARK    7  A    between atoms: C_22  and  C_27
REMARK    8  A    between atoms: C_25  and  C_26
REMARK                            x       y       z     vdW  Elec       q    Type
REMARK                         _______ _______ _______ _____ _____    ______ ____
ROOT
ATOM      1  N   UNL     1       2.703   5.700   1.332  0.00  0.00    -0.312 N 
ATOM      2  C   UNL     1       1.755   5.221   2.347  0.00  0.00    +0.123 C 
ATOM      3  C   UNL     1       2.285   3.921   2.963  0.00  0.00    +0.128 C 
ATOM      4  N   UNL     1       2.566   2.970   1.877  0.00  0.00    -0.173 NA
ATOM      5  C   UNL     1       3.404   3.423   0.755  0.00  0.00    +0.128 C 
ATOM      6  C   UNL     1       2.825   4.744   0.223  0.00  0.00    +0.123 C 
ENDROOT
BRANCH   1  13
ATOM      7  C   UNL     1       5.160   6.884   2.232  0.00  0.00    +0.045 C 
ATOM      8  C   UNL     1       4.534   8.122   1.644  0.00  0.00    -0.028 A 
ATOM      9  C   UNL     1       5.184   9.295   1.683  0.00  0.00    -0.008 A 
ATOM     10  S   UNL     1       4.057  10.422   0.883  0.00  0.00    -0.074 S 
ATOM     11  C   UNL     1       2.744   9.287   0.518  0.00  0.00    +0.114 A 
ATOM     12  C   UNL     1       3.219   8.060   1.030  0.00  0.00    +0.051 A 
ATOM     13  C   UNL     1       2.342   6.952   0.868  0.00  0.00    +0.133 A 
ATOM     14  N   UNL     1       1.179   7.133   0.264  0.00  0.00    -0.217 NA
ATOM     15  C   UNL     1       0.796   8.315  -0.186  0.00  0.00    +0.129 A 
ATOM     16  N   UNL     1       1.566   9.379  -0.066  0.00  0.00    -0.225 NA
ATOM     17  C   UNL     1      -0.546   8.448  -0.859  0.00  0.00    +0.088 C 
ATOM     18  C   UNL     1       6.542   9.589   2.265  0.00  0.00    +0.052 C 
ENDBRANCH   1  13
BRANCH   4  19
ATOM     19  S   UNL     1       1.962   1.429   1.918  0.00  0.00    +0.066 S 
ATOM     20  O   UNL     1       1.716   1.127   3.285  0.00  0.00    -0.153 OA
ATOM     21  O   UNL     1       2.814   0.636   1.104  0.00  0.00    -0.153 OA
BRANCH  19  22
ATOM     22  C   UNL     1       0.391   1.464   1.120  0.00  0.00    +0.170 A 
ATOM     23  C   UNL     1       0.107   1.262  -0.250  0.00  0.00    +0.107 A 
ATOM     24  N   UNL     1      -1.182   1.386  -0.380  0.00  0.00    -0.081 NA
ATOM     25  O   UNL     1      -1.716   1.619   0.680  0.00  0.00    -0.358 OA
ATOM     26  C   UNL     1      -0.823   1.691   1.676  0.00  0.00    +0.161 A 
ATOM     27  C   UNL     1      -1.111   1.970   3.129  0.00  0.00    +0.091 C 
ATOM     28  C   UNL     1       1.100   0.967  -1.345  0.00  0.00    +0.071 C 
ENDBRANCH  19  22
ENDBRANCH   4  19
TORSDOF 3
