REMARK  Name = ZINC11842627
REMARK  12 active torsions:
REMARK  status: ('A' for Active; 'I' for Inactive)
REMARK    1  A    between atoms: C_1  and  C_2
REMARK    2  A    between atoms: C_2  and  O_3
REMARK    3  A    between atoms: O_3  and  C_4
REMARK    4  A    between atoms: C_7  and  C_12
REMARK    5  A    between atoms: C_9  and  C_10
REMARK    6  A    between atoms: C_10  and  O_11
REMARK    7  A    between atoms: C_12  and  N_72
REMARK    8  A    between atoms: C_13  and  C_14
REMARK    9  A    between atoms: C_13  and  N_72
REMARK   10  A    between atoms: C_19  and  N_74
REMARK   11  A    between atoms: C_24  and  C_25
REMARK   12  A    between atoms: C_24  and  N_72
REMARK                            x       y       z     vdW  Elec       q    Type
REMARK                         _______ _______ _______ _____ _____    ______ ____
ROOT
ATOM      1  N   UNL     1      -0.676   3.491   1.058  0.00  0.00    +0.384 N 
ATOM      2  H   UNL     1       0.199   4.001   0.888  0.00  0.00    -0.081 HD
ENDROOT
BRANCH   1   3
ATOM      3  C   UNL     1      -1.129   3.762   2.439  0.00  0.00    -0.043 C 
BRANCH   3   7
ATOM      4  C   UNL     1       2.268   3.700   5.032  0.00  0.00    +0.126 A 
ATOM      5  C   UNL     1       1.954   4.851   4.324  0.00  0.00    +0.046 A 
ATOM      6  C   UNL     1       0.856   4.869   3.486  0.00  0.00    +0.005 A 
ATOM      7  C   UNL     1       0.069   3.740   3.353  0.00  0.00    -0.063 A 
ATOM      8  C   UNL     1       0.376   2.593   4.061  0.00  0.00    +0.011 A 
ATOM      9  C   UNL     1       1.477   2.568   4.896  0.00  0.00    +0.020 A 
BRANCH   4  10
ATOM     10  O   UNL     1       3.347   3.680   5.857  0.00  0.00    -0.492 OA
BRANCH  10  12
ATOM     11  C   UNL     1       5.281   4.669   6.916  0.00  0.00    +0.048 C 
ATOM     12  C   UNL     1       4.116   4.882   5.948  0.00  0.00    +0.225 C 
ENDBRANCH  10  12
ENDBRANCH   4  10
BRANCH   9  13
ATOM     13  C   UNL     1       1.814   1.316   5.663  0.00  0.00    +0.194 C 
BRANCH  13  14
ATOM     14  O   UNL     1       0.859   0.298   5.357  0.00  0.00    -0.390 OA
ATOM     15  H   UNL     1       1.014  -0.538   5.816  0.00  0.00    +0.210 HD
ENDBRANCH  13  14
ENDBRANCH   9  13
ENDBRANCH   3   7
ENDBRANCH   1   3
BRANCH   1  16
ATOM     16  C   UNL     1      -0.430   2.044   0.882  0.00  0.00    -0.075 C 
BRANCH  16  17
ATOM     17  C   UNL     1       0.246   1.819  -0.472  0.00  0.00    -0.031 C 
ATOM     18  C   UNL     1       1.624   2.487  -0.473  0.00  0.00    -0.017 C 
ATOM     19  C   UNL     1       2.321   2.208  -1.806  0.00  0.00    -0.078 C 
ATOM     20  C   UNL     1       1.147   0.101  -2.043  0.00  0.00    -0.078 C 
ATOM     21  C   UNL     1       0.415   0.317  -0.717  0.00  0.00    -0.017 C 
ATOM     22  N   UNL     1       2.475   0.746  -1.970  0.00  0.00    +0.382 N 
ATOM     23  H   UNL     1       2.983   0.372  -1.160  0.00  0.00    -0.081 HD
BRANCH  22  24
ATOM     24  C   UNL     1       3.245   0.455  -3.197  0.00  0.00    -0.069 C 
ATOM     25  C   UNL     1       3.527  -1.060  -3.276  0.00  0.00    -0.015 C 
ATOM     26  C   UNL     1       4.964  -1.149  -3.847  0.00  0.00    -0.002 C 
ATOM     27  C   UNL     1       5.681   0.038  -3.158  0.00  0.00    -0.002 C 
ATOM     28  C   UNL     1       4.615   1.153  -3.121  0.00  0.00    -0.015 C 
ENDBRANCH  22  24
ENDBRANCH  16  17
ENDBRANCH   1  16
BRANCH   1  29
ATOM     29  C   UNL     1      -1.695   3.951   0.092  0.00  0.00    -0.046 C 
BRANCH  29  30
ATOM     30  C   UNL     1      -1.657   5.480   0.029  0.00  0.00    +0.102 C 
ATOM     31  C   UNL     1      -2.699   6.002  -0.985  0.00  0.00    +0.032 C 
ATOM     32  C   UNL     1      -2.001   7.208  -1.652  0.00  0.00    +0.030 C 
ATOM     33  C   UNL     1      -0.621   7.272  -0.962  0.00  0.00    +0.160 C 
ATOM     34  O   UNL     1      -0.384   5.930  -0.481  0.00  0.00    -0.378 OA
ENDBRANCH  29  30
ENDBRANCH   1  29
TORSDOF 11
