REMARK  Name = ZINC38903583
REMARK  10 active torsions:
REMARK  status: ('A' for Active; 'I' for Inactive)
REMARK    1  A    between atoms: C_1  and  C_2
REMARK    2  A    between atoms: C_2  and  C_3
REMARK    3  A    between atoms: C_2  and  C_4
REMARK    4  A    between atoms: C_2  and  C_5
REMARK    5  A    between atoms: C_8  and  C_11
REMARK    6  A    between atoms: C_13  and  C_16
REMARK    7  A    between atoms: C_16  and  N_17
REMARK    8  A    between atoms: C_21  and  C_24
REMARK    9  A    between atoms: N_26  and  C_27
REMARK   10  A    between atoms: C_30  and  N_33
REMARK                            x       y       z     vdW  Elec       q    Type
REMARK                         _______ _______ _______ _____ _____    ______ ____
ROOT
ATOM      1  N   UNL     1       6.444  -3.225  -6.449  0.00  0.00    +0.386 N 
ATOM      2  C   UNL     1       6.746  -3.041  -5.024  0.00  0.00    -0.078 C 
ATOM      3  C   UNL     1       7.568  -4.226  -4.515  0.00  0.00    -0.018 C 
ATOM      4  C   UNL     1       8.875  -4.313  -5.309  0.00  0.00    +0.009 C 
ATOM      5  C   UNL     1       8.548  -4.431  -6.801  0.00  0.00    +0.059 C 
ATOM      6  C   UNL     1       7.689  -3.237  -7.225  0.00  0.00    -0.065 C 
ATOM      7  H   UNL     1       5.960  -4.102  -6.577  0.00  0.00    -0.081 HD
ENDROOT
BRANCH   5   8
ATOM      8  C   UNL     1       9.827  -4.441  -7.597  0.00  0.00    +0.218 C 
ATOM      9  O   UNL     1      10.031  -3.579  -8.427  0.00  0.00    -0.275 OA
ATOM     10  N   UNL     1      10.744  -5.406  -7.388  0.00  0.00    -0.285 N 
ATOM     11  H   UNL     1      10.610  -6.057  -6.682  0.00  0.00    +0.155 HD
BRANCH  10  12
ATOM     12  C   UNL     1      11.889  -5.470  -8.192  0.00  0.00    +0.034 A 
ATOM     13  C   UNL     1      12.428  -6.702  -8.537  0.00  0.00    +0.025 A 
ATOM     14  C   UNL     1      13.557  -6.765  -9.328  0.00  0.00    +0.025 A 
ATOM     15  C   UNL     1      14.154  -5.595  -9.780  0.00  0.00    +0.036 A 
ATOM     16  C   UNL     1      13.615  -4.363  -9.435  0.00  0.00    +0.025 A 
ATOM     17  C   UNL     1      12.483  -4.300  -8.648  0.00  0.00    +0.025 A 
BRANCH  15  18
ATOM     18  N   UNL     1      15.300  -5.659 -10.583  0.00  0.00    -0.271 N 
ATOM     19  C   UNL     1      16.078  -4.490 -11.011  0.00  0.00    +0.114 C 
ATOM     20  C   UNL     1      17.439  -5.049 -11.479  0.00  0.00    +0.029 C 
ATOM     21  C   UNL     1      17.065  -6.495 -11.879  0.00  0.00    +0.098 C 
ATOM     22  C   UNL     1      15.832  -6.799 -11.056  0.00  0.00    +0.220 C 
ATOM     23  O   UNL     1      15.387  -7.909 -10.855  0.00  0.00    -0.275 OA
ENDBRANCH  15  18
ENDBRANCH  10  12
ENDBRANCH   5   8
BRANCH   1  24
ATOM     24  C   UNL     1       5.589  -2.124  -6.913  0.00  0.00    +0.022 C 
BRANCH  24  27
ATOM     25  C   UNL     1       2.699  -1.861  -4.734  0.00  0.00    +0.202 A 
ATOM     26  N   UNL     1       3.972  -1.596  -5.078  0.00  0.00    -0.193 NA
ATOM     27  C   UNL     1       4.261  -2.185  -6.204  0.00  0.00    +0.211 A 
ATOM     28  O   UNL     1       3.179  -2.853  -6.624  0.00  0.00    -0.340 OA
ATOM     29  N   UNL     1       2.170  -2.635  -5.649  0.00  0.00    -0.056 NA
BRANCH  25  33
ATOM     30  C   UNL     1       0.728  -0.443  -1.243  0.00  0.00    -0.042 A 
ATOM     31  C   UNL     1       0.051  -1.256  -2.134  0.00  0.00    +0.005 A 
ATOM     32  C   UNL     1       0.686  -1.719  -3.268  0.00  0.00    +0.012 A 
ATOM     33  C   UNL     1       2.011  -1.366  -3.515  0.00  0.00    +0.022 A 
ATOM     34  C   UNL     1       2.688  -0.547  -2.614  0.00  0.00    +0.012 A 
ATOM     35  C   UNL     1       2.042  -0.085  -1.486  0.00  0.00    +0.005 A 
BRANCH  30  37
ATOM     36  C   UNL     1       0.000   1.590  -0.022  0.00  0.00    +0.015 C 
ATOM     37  C   UNL     1       0.029   0.060  -0.006  0.00  0.00    -0.013 C 
ATOM     38  C   UNL     1       0.781  -0.422   1.236  0.00  0.00    +0.015 C 
ATOM     39  C   UNL     1      -1.403  -0.477   0.025  0.00  0.00    +0.015 C 
ENDBRANCH  30  37
ENDBRANCH  25  33
ENDBRANCH  24  27
ENDBRANCH   1  24
TORSDOF 7
