REMARK  Name = ZINC09126332
REMARK  11 active torsions:
REMARK  status: ('A' for Active; 'I' for Inactive)
REMARK    1  A    between atoms: C_1  and  C_2
REMARK    2  A    between atoms: C_5  and  C_16
REMARK    3  A    between atoms: C_7  and  N_8
REMARK    4  A    between atoms: C_9  and  C_11
REMARK    5  A    between atoms: C_16  and  O_18
REMARK    6  A    between atoms: O_18  and  C_19
REMARK    7  A    between atoms: C_19  and  C_21
REMARK    8  A    between atoms: C_19  and  C_22
REMARK    9  A    between atoms: N_24  and  C_25
REMARK   10  A    between atoms: C_25  and  C_27
REMARK   11  A    between atoms: C_25  and  C_28
REMARK                            x       y       z     vdW  Elec       q    Type
REMARK                         _______ _______ _______ _____ _____    ______ ____
ROOT
ATOM      1  C   UNL     1       0.095  -4.262  -0.028  0.00  0.00    +0.340 C 
ATOM      2  O   UNL     1       0.090  -4.865  -1.083  0.00  0.00    -0.245 OA
ENDROOT
BRANCH   1   7
ATOM      3  C   UNL     1      -0.014   1.495   0.015  0.00  0.00    +0.045 C 
ATOM      4  C   UNL     1       0.014  -0.012   0.002  0.00  0.00    -0.029 A 
ATOM      5  C   UNL     1       0.045  -0.711   1.194  0.00  0.00    +0.006 A 
ATOM      6  C   UNL     1       0.071  -2.090   1.190  0.00  0.00    +0.015 A 
ATOM      7  C   UNL     1       0.066  -2.785  -0.021  0.00  0.00    +0.061 A 
ATOM      8  C   UNL     1       0.035  -2.080  -1.224  0.00  0.00    +0.038 A 
ATOM      9  C   UNL     1       0.004  -0.694  -1.209  0.00  0.00    +0.037 A 
BRANCH   9  10
ATOM     10  N   UNL     1      -0.033   0.018  -2.413  0.00  0.00    -0.279 N 
ATOM     11  C   UNL     1      -0.530  -0.561  -3.523  0.00  0.00    +0.284 C 
ATOM     12  O   UNL     1      -1.038  -1.665  -3.458  0.00  0.00    -0.266 OA
ATOM     13  H   UNL     1       0.299   0.929  -2.448  0.00  0.00    +0.155 HD
BRANCH  11  14
ATOM     14  C   UNL     1      -0.458   0.138  -4.810  0.00  0.00    +0.189 A 
ATOM     15  C   UNL     1      -0.921  -0.332  -6.006  0.00  0.00    +0.054 A 
ATOM     16  C   UNL     1      -0.646   0.658  -6.962  0.00  0.00    +0.042 A 
ATOM     17  C   UNL     1      -0.035   1.677  -6.316  0.00  0.00    +0.196 A 
ATOM     18  O   UNL     1       0.071   1.362  -5.018  0.00  0.00    -0.458 OA
ENDBRANCH  11  14
ENDBRANCH   9  10
ENDBRANCH   1   7
BRANCH   1  19
ATOM     19  O   UNL     1       0.125  -4.941   1.135  0.00  0.00    -0.449 OA
BRANCH  19  20
ATOM     20  C   UNL     1       0.151  -6.391   1.052  0.00  0.00    +0.259 C 
ATOM     21  C   UNL     1      -1.281  -6.927   1.044  0.00  0.00    +0.062 C 
BRANCH  20  22
ATOM     22  C   UNL     1       0.890  -6.949   2.241  0.00  0.00    +0.254 C 
ATOM     23  O   UNL     1       1.270  -6.206   3.121  0.00  0.00    -0.272 OA
ATOM     24  N   UNL     1       1.129  -8.272   2.325  0.00  0.00    -0.306 N 
ATOM     25  H   UNL     1       0.825  -8.866   1.621  0.00  0.00    +0.149 HD
BRANCH  24  26
ATOM     26  C   UNL     1       1.847  -8.815   3.481  0.00  0.00    +0.100 C 
ATOM     27  C   UNL     1       3.355  -8.707   3.241  0.00  0.00    +0.033 C 
BRANCH  26  28
ATOM     28  C   UNL     1       1.471 -10.261   3.673  0.00  0.00    -0.027 A 
ATOM     29  C   UNL     1       1.315 -11.086   2.574  0.00  0.00    +0.008 A 
ATOM     30  C   UNL     1       0.975 -12.414   2.749  0.00  0.00    +0.038 A 
ATOM     31  C   UNL     1       0.780 -12.916   4.025  0.00  0.00    +0.123 A 
ATOM     32  C   UNL     1       0.932 -12.088   5.124  0.00  0.00    +0.038 A 
ATOM     33  C   UNL     1       1.277 -10.761   4.947  0.00  0.00    +0.008 A 
ATOM     34  F   UNL     1       0.443 -14.213   4.196  0.00  0.00    -0.205 F 
ENDBRANCH  26  28
ENDBRANCH  24  26
ENDBRANCH  20  22
ENDBRANCH  19  20
ENDBRANCH   1  19
TORSDOF 8
