REMARK  Name = ZINC01753419
REMARK  7 active torsions:
REMARK  status: ('A' for Active; 'I' for Inactive)
REMARK    1  A    between atoms: C_1  and  C_2
REMARK    2  A    between atoms: C_5  and  N_21
REMARK    3  A    between atoms: C_7  and  N_8
REMARK    4  A    between atoms: N_11  and  C_12
REMARK    5  A    between atoms: N_11  and  C_15
REMARK    6  A    between atoms: C_12  and  C_13
REMARK    7  A    between atoms: C_13  and  O_14
REMARK                            x       y       z     vdW  Elec       q    Type
REMARK                         _______ _______ _______ _____ _____    ______ ____
ROOT
ATOM      1  N   UNL     1      -0.033   0.011  -2.413  0.00  0.00    -0.269 N 
ATOM      2  C   UNL     1       0.061  -0.653  -3.582  0.00  0.00    +0.307 C 
ATOM      3  O   UNL     1       0.078  -1.869  -3.590  0.00  0.00    -0.252 OA
ATOM      4  N   UNL     1       0.136   0.030  -4.741  0.00  0.00    -0.280 N 
ATOM      5  H   UNL     1      -0.129   0.977  -2.410  0.00  0.00    +0.156 HD
ENDROOT
BRANCH   1  12
ATOM      6  C   UNL     1      -1.254   1.194  -0.131  0.00  0.00    +0.045 C 
ATOM      7  C   UNL     1      -0.576  -0.151  -0.065  0.00  0.00    -0.029 A 
ATOM      8  C   UNL     1      -0.540  -0.850   1.126  0.00  0.00    +0.007 A 
ATOM      9  C   UNL     1       0.081  -2.083   1.187  0.00  0.00    +0.033 A 
ATOM     10  C   UNL     1       0.668  -2.622   0.056  0.00  0.00    +0.128 A 
ATOM     11  C   UNL     1       0.635  -1.929  -1.138  0.00  0.00    +0.056 A 
ATOM     12  C   UNL     1       0.007  -0.691  -1.203  0.00  0.00    +0.040 A 
BRANCH  10  13
ATOM     13  N   UNL     1       1.332  -3.943   0.126  0.00  0.00    +0.056 N 
ATOM     14  O   UNL     1       1.361  -4.555   1.178  0.00  0.00    -0.126 OA
ATOM     15  O   UNL     1       1.849  -4.418  -0.870  0.00  0.00    -0.126 OA
ENDBRANCH  10  13
ENDBRANCH   1  12
BRANCH   4  16
ATOM     16  C   UNL     1       0.239  -0.692  -6.012  0.00  0.00    +0.078 C 
ATOM     17  C   UNL     1      -0.989  -1.588  -6.189  0.00  0.00    +0.022 C 
ATOM     18  C   UNL     1      -0.882  -2.342  -7.516  0.00  0.00    +0.002 C 
ATOM     19  C   UNL     1       0.382  -3.204  -7.512  0.00  0.00    +0.000 C 
ATOM     20  C   UNL     1       1.610  -2.309  -7.335  0.00  0.00    +0.002 C 
ATOM     21  C   UNL     1       1.503  -1.554  -6.008  0.00  0.00    +0.022 C 
ENDBRANCH   4  16
BRANCH   4  22
ATOM     22  C   UNL     1       0.116   1.495  -4.731  0.00  0.00    +0.137 C 
BRANCH  22  23
ATOM     23  C   UNL     1       1.547   2.024  -4.622  0.00  0.00    +0.175 C 
BRANCH  23  24
ATOM     24  O   UNL     1       2.278   1.665  -5.796  0.00  0.00    -0.393 OA
ATOM     25  H   UNL     1       3.196   1.968  -5.797  0.00  0.00    +0.209 HD
ENDBRANCH  23  24
ENDBRANCH  22  23
ENDBRANCH   4  22
TORSDOF 6
