REMARK  Name = ZINC33172770
REMARK  10 active torsions:
REMARK  status: ('A' for Active; 'I' for Inactive)
REMARK    1  A    between atoms: C_1  and  C_2
REMARK    2  A    between atoms: C_4  and  C_31
REMARK    3  A    between atoms: C_6  and  N_8
REMARK    4  A    between atoms: C_9  and  C_11
REMARK    5  A    between atoms: C_11  and  S_12
REMARK    6  A    between atoms: S_12  and  C_13
REMARK    7  A    between atoms: C_18  and  O_26
REMARK    8  A    between atoms: C_19  and  O_24
REMARK    9  A    between atoms: O_24  and  C_25
REMARK   10  A    between atoms: O_26  and  C_27
REMARK                            x       y       z     vdW  Elec       q    Type
REMARK                         _______ _______ _______ _____ _____    ______ ____
ROOT
ATOM      1  C   UNL     1      -4.054   1.821  -0.330  0.00  0.00    +0.124 A 
ATOM      2  C   UNL     1      -5.355   1.323  -0.480  0.00  0.00    +0.098 A 
ATOM      3  C   UNL     1      -6.418   2.234  -0.422  0.00  0.00    +0.101 A 
ATOM      4  C   UNL     1      -7.649   1.451  -0.607  0.00  0.00    +0.029 A 
ATOM      5  C   UNL     1      -9.003   1.789  -0.646  0.00  0.00    +0.061 A 
ATOM      6  C   UNL     1      -9.950   0.805  -0.841  0.00  0.00    +0.162 A 
ATOM      7  C   UNL     1      -9.556  -0.525  -0.998  0.00  0.00    +0.163 A 
ATOM      8  C   UNL     1      -8.218  -0.868  -0.961  0.00  0.00    +0.075 A 
ATOM      9  C   UNL     1      -7.252   0.114  -0.765  0.00  0.00    +0.053 A 
ATOM     10  N   UNL     1      -5.872   0.058  -0.686  0.00  0.00    -0.351 N 
ATOM     11  H   UNL     1      -5.195  -0.807  -0.762  0.00  0.00    +0.166 HD
ATOM     12  N   UNL     1      -6.158   3.527  -0.228  0.00  0.00    -0.233 NA
ATOM     13  C   UNL     1      -4.919   3.948  -0.092  0.00  0.00    +0.223 A 
ATOM     14  N   UNL     1      -3.887   3.125  -0.135  0.00  0.00    -0.227 NA
ENDROOT
BRANCH   7  15
ATOM     15  O   UNL     1     -10.495  -1.489  -1.190  0.00  0.00    -0.491 OA
ATOM     16  C   UNL     1     -10.026  -2.830  -1.344  0.00  0.00    +0.277 C 
ENDBRANCH   7  15
BRANCH   6  17
ATOM     17  O   UNL     1     -11.270   1.131  -0.879  0.00  0.00    -0.491 OA
ATOM     18  C   UNL     1     -11.603   2.511  -0.712  0.00  0.00    +0.277 C 
ENDBRANCH   6  17
BRANCH   1  19
ATOM     19  S   UNL     1      -2.665   0.737  -0.391  0.00  0.00    -0.094 S 
BRANCH  19  20
ATOM     20  C   UNL     1      -1.326   1.929  -0.144  0.00  0.00    +0.172 C 
BRANCH  20  22
ATOM     21  N   UNL     1       1.143   1.898   0.001  0.00  0.00    -0.285 N 
ATOM     22  C   UNL     1      -0.003   1.208  -0.160  0.00  0.00    +0.227 C 
ATOM     23  O   UNL     1       0.031   0.006  -0.322  0.00  0.00    -0.275 OA
ATOM     24  H   UNL     1       1.120   2.997   0.061  0.00  0.00    +0.155 HD
BRANCH  21  30
ATOM     25  C   UNL     1       5.978   1.746  -0.877  0.00  0.00    +0.044 C 
ATOM     26  C   UNL     1       4.723   1.121  -0.326  0.00  0.00    -0.048 A 
ATOM     27  C   UNL     1       4.775  -0.125   0.271  0.00  0.00    +0.006 A 
ATOM     28  C   UNL     1       3.625  -0.701   0.778  0.00  0.00    -0.048 A 
ATOM     29  C   UNL     1       2.420  -0.033   0.690  0.00  0.00    +0.026 A 
ATOM     30  C   UNL     1       2.363   1.219   0.092  0.00  0.00    +0.034 A 
ATOM     31  C   UNL     1       3.519   1.792  -0.422  0.00  0.00    +0.026 A 
ATOM     32  C   UNL     1       3.687  -2.060   1.428  0.00  0.00    +0.044 C 
ENDBRANCH  21  30
ENDBRANCH  20  22
ENDBRANCH  19  20
ENDBRANCH   1  19
TORSDOF 6
