REMARK  Name = ZINC11266060
REMARK  8 active torsions:
REMARK  status: ('A' for Active; 'I' for Inactive)
REMARK    1  A    between atoms: C_1  and  C_2
REMARK    2  A    between atoms: N_10  and  N_14
REMARK    3  A    between atoms: C_15  and  C_17
REMARK    4  A    between atoms: C_17  and  N_18
REMARK    5  A    between atoms: C_21  and  C_25
REMARK    6  A    between atoms: C_21  and  C_26
REMARK    7  A    between atoms: C_26  and  C_27
REMARK    8  A    between atoms: C_27  and  C_28
REMARK                            x       y       z     vdW  Elec       q    Type
REMARK                         _______ _______ _______ _____ _____    ______ ____
ROOT
ATOM      1  N   UNL     1      -0.017   1.397   0.010  0.00  0.00    -0.222 N 
ATOM      2  C   UNL     1      -1.193   2.055   0.019  0.00  0.00    +0.248 C 
ATOM      3  O   UNL     1      -2.235   1.434   0.020  0.00  0.00    -0.273 OA
ATOM      4  H   UNL     1       0.816   1.893   0.004  0.00  0.00    +0.174 HD
ENDROOT
BRANCH   1  14
ATOM      5  C   UNL     1       0.243  -6.516   0.503  0.00  0.00    +0.007 C 
ATOM      6  C   UNL     1       0.362  -5.079   1.014  0.00  0.00    -0.014 C 
ATOM      7  C   UNL     1      -0.987  -4.372   0.868  0.00  0.00    +0.006 C 
ATOM      8  C   UNL     1      -0.869  -2.938   1.389  0.00  0.00    +0.035 C 
ATOM      9  C   UNL     1       0.202  -2.195   0.598  0.00  0.00    +0.114 C 
ATOM     10  C   UNL     1       1.548  -2.900   0.717  0.00  0.00    +0.035 C 
ATOM     11  C   UNL     1       1.422  -4.335   0.198  0.00  0.00    +0.006 C 
ATOM     12  C   UNL     1       0.317  -0.764   1.071  0.00  0.00    +0.263 C 
ATOM     13  O   UNL     1       0.624  -0.380   2.180  0.00  0.00    -0.271 OA
ATOM     14  N   UNL     1       0.002  -0.004   0.002  0.00  0.00    -0.137 N 
ATOM     15  C   UNL     1      -0.284  -0.754  -1.069  0.00  0.00    +0.326 C 
ATOM     16  O   UNL     1      -0.592  -0.297  -2.152  0.00  0.00    -0.251 OA
ATOM     17  N   UNL     1      -0.192  -2.073  -0.812  0.00  0.00    -0.284 N 
ATOM     18  H   UNL     1      -0.354  -2.799  -1.434  0.00  0.00    +0.151 HD
ENDBRANCH   1  14
BRANCH   2  19
ATOM     19  C   UNL     1      -1.214   3.562   0.027  0.00  0.00    +0.215 C 
BRANCH  19  20
ATOM     20  N   UNL     1      -2.601   4.031   0.036  0.00  0.00    -0.215 N 
ATOM     21  C   UNL     1      -3.313   4.268   1.156  0.00  0.00    +0.247 C 
ATOM     22  O   UNL     1      -2.941   4.136   2.302  0.00  0.00    -0.273 OA
ATOM     23  C   UNL     1      -4.677   4.732   0.684  0.00  0.00    +0.110 C 
ATOM     24  N   UNL     1      -4.564   4.700  -0.784  0.00  0.00    -0.285 N 
ATOM     25  C   UNL     1      -3.317   4.283  -1.066  0.00  0.00    +0.310 C 
ATOM     26  O   UNL     1      -2.888   4.148  -2.195  0.00  0.00    -0.252 OA
ATOM     27  C   UNL     1      -5.768   3.771   1.161  0.00  0.00    +0.041 C 
ATOM     28  H   UNL     1      -5.254   4.937  -1.424  0.00  0.00    +0.151 HD
BRANCH  23  29
ATOM     29  C   UNL     1      -4.961   6.153   1.175  0.00  0.00    +0.039 C 
BRANCH  29  30
ATOM     30  C   UNL     1      -6.341   6.595   0.685  0.00  0.00    +0.037 C 
BRANCH  30  31
ATOM     31  C   UNL     1      -6.622   7.995   1.168  0.00  0.00    -0.047 A 
ATOM     32  C   UNL     1      -7.250   8.193   2.383  0.00  0.00    +0.003 A 
ATOM     33  C   UNL     1      -7.503   9.477   2.829  0.00  0.00    +0.000 A 
ATOM     34  C   UNL     1      -7.136  10.562   2.054  0.00  0.00    +0.000 A 
ATOM     35  C   UNL     1      -6.512  10.363   0.837  0.00  0.00    +0.000 A 
ATOM     36  C   UNL     1      -6.255   9.079   0.394  0.00  0.00    +0.003 A 
ENDBRANCH  30  31
ENDBRANCH  29  30
ENDBRANCH  23  29
ENDBRANCH  19  20
ENDBRANCH   2  19
TORSDOF 6
