REMARK  Name = ZINC03515333
REMARK  6 active torsions:
REMARK  status: ('A' for Active; 'I' for Inactive)
REMARK    1  A    between atoms: C_1  and  C_2
REMARK    2  A    between atoms: C_6  and  N_9
REMARK    3  A    between atoms: C_10  and  C_12
REMARK    4  A    between atoms: C_12  and  O_13
REMARK    5  A    between atoms: O_13  and  C_14
REMARK    6  A    between atoms: C_17  and  N_20
REMARK                            x       y       z     vdW  Elec       q    Type
REMARK                         _______ _______ _______ _____ _____    ______ ____
ROOT
ATOM      1  N   UNL     1       3.270   6.433   0.006  0.00  0.00    -0.280 N 
ATOM      2  C   UNL     1       3.091   5.807   1.187  0.00  0.00    +0.255 C 
ATOM      3  O   UNL     1       2.849   6.452   2.184  0.00  0.00    -0.272 OA
ATOM      4  H   UNL     1       3.536   5.926  -0.776  0.00  0.00    +0.155 HD
ENDROOT
BRANCH   1  10
ATOM      5  C   UNL     1       5.090  10.998   0.235  0.00  0.00    +0.045 C 
ATOM      6  C   UNL     1       3.937  10.052   0.016  0.00  0.00    -0.030 A 
ATOM      7  C   UNL     1       2.682  10.550  -0.280  0.00  0.00    +0.006 A 
ATOM      8  C   UNL     1       1.621   9.687  -0.482  0.00  0.00    +0.022 A 
ATOM      9  C   UNL     1       1.814   8.320  -0.392  0.00  0.00    +0.064 A 
ATOM     10  C   UNL     1       3.072   7.816  -0.089  0.00  0.00    +0.071 A 
ATOM     11  C   UNL     1       4.136   8.688   0.112  0.00  0.00    +0.066 A 
ATOM     12 CL   UNL     1       5.713   8.063   0.484  0.00  0.00    -0.081 Cl
ATOM     13 CL   UNL     1       0.483   7.236  -0.652  0.00  0.00    -0.082 Cl
ENDBRANCH   1  10
BRANCH   2  14
ATOM     14  C   UNL     1       3.193   4.306   1.266  0.00  0.00    +0.324 C 
BRANCH  14  15
ATOM     15  O   UNL     1       2.966   3.884   2.612  0.00  0.00    -0.483 OA
BRANCH  15  16
ATOM     16  C   UNL     1       3.023   2.548   2.858  0.00  0.00    +0.121 A 
ATOM     17  C   UNL     1       2.813   2.068   4.142  0.00  0.00    +0.048 A 
ATOM     18  C   UNL     1       2.872   0.711   4.389  0.00  0.00    +0.036 A 
ATOM     19  C   UNL     1       3.140  -0.170   3.358  0.00  0.00    +0.126 A 
ATOM     20  C   UNL     1       3.350   0.306   2.077  0.00  0.00    +0.036 A 
ATOM     21  C   UNL     1       3.293   1.663   1.825  0.00  0.00    +0.048 A 
BRANCH  19  22
ATOM     22  N   UNL     1       3.202  -1.625   3.625  0.00  0.00    +0.056 N 
ATOM     23  O   UNL     1       3.017  -2.045   4.754  0.00  0.00    -0.126 OA
ATOM     24  O   UNL     1       3.438  -2.401   2.717  0.00  0.00    -0.126 OA
ENDBRANCH  19  22
ENDBRANCH  15  16
ENDBRANCH  14  15
ENDBRANCH   2  14
TORSDOF 5
