REMARK  Name = ZINC39462780
REMARK  6 active torsions:
REMARK  status: ('A' for Active; 'I' for Inactive)
REMARK    1  A    between atoms: C_4  and  N_37
REMARK    2  A    between atoms: C_5  and  C_7
REMARK    3  A    between atoms: C_12  and  O_17
REMARK    4  A    between atoms: O_17  and  C_18
REMARK    5  A    between atoms: C_23  and  C_28
REMARK    6  A    between atoms: C_33  and  N_34
REMARK                            x       y       z     vdW  Elec       q    Type
REMARK                         _______ _______ _______ _____ _____    ______ ____
ROOT
ATOM      1  O   UNL     1       3.131 -11.108  -0.241  0.00  0.00    -0.456 OA
ENDROOT
BRANCH   1   2
ATOM      2  C   UNL     1       4.269 -10.372  -0.258  0.00  0.00    +0.131 A 
ATOM      3  C   UNL     1       4.195  -8.946   0.039  0.00  0.00    +0.048 A 
ATOM      4  C   UNL     1       5.298  -8.172   0.035  0.00  0.00    +0.031 A 
ATOM      5  C   UNL     1       6.602  -8.780  -0.276  0.00  0.00    +0.061 A 
ATOM      6  N   UNL     1       7.802  -8.282  -0.349  0.00  0.00    -0.360 N 
ATOM      7  C   UNL     1       8.715  -9.376  -0.701  0.00  0.00    +0.208 C 
ATOM      8  N   UNL     1       7.887 -10.582  -0.824  0.00  0.00    -0.360 N 
ATOM      9  C   UNL     1       6.652 -10.236  -0.576  0.00  0.00    +0.064 A 
ATOM     10  C   UNL     1       5.443 -10.982  -0.546  0.00  0.00    +0.073 A 
ATOM     11  H   UNL     1       8.049  -7.356  -0.199  0.00  0.00    +0.162 HD
ATOM     12  H   UNL     1       8.200 -11.472  -1.048  0.00  0.00    +0.162 HD
BRANCH   7  13
ATOM     13  C   UNL     1       9.743  -9.561   0.384  0.00  0.00    +0.025 A 
ATOM     14  C   UNL     1       9.482  -9.116   1.667  0.00  0.00    +0.010 A 
ATOM     15  C   UNL     1      10.425  -9.286   2.663  0.00  0.00    +0.001 A 
ATOM     16  C   UNL     1      11.630  -9.902   2.377  0.00  0.00    +0.002 A 
ATOM     17  C   UNL     1      11.890 -10.347   1.095  0.00  0.00    +0.033 A 
ATOM     18  C   UNL     1      10.945 -10.181   0.099  0.00  0.00    +0.133 A 
BRANCH  18  19
ATOM     19  N   UNL     1      11.222 -10.663  -1.272  0.00  0.00    +0.057 N 
ATOM     20  O   UNL     1      12.219 -11.310  -1.496  0.00  0.00    -0.126 OA
ATOM     21  O   UNL     1      10.452 -10.409  -2.169  0.00  0.00    -0.126 OA
ENDBRANCH  18  19
ENDBRANCH   7  13
ENDBRANCH   1   2
BRANCH   1  27
ATOM     22  C   UNL     1       0.946 -10.174  -5.568  0.00  0.00    +0.141 A 
ATOM     23  N   UNL     1       2.086  -9.862  -4.875  0.00  0.00    -0.338 N 
ATOM     24  H   UNL     1       2.841  -9.352  -5.207  0.00  0.00    +0.167 HD
ATOM     25  C   UNL     1       1.958 -10.410  -3.613  0.00  0.00    +0.070 A 
ATOM     26  C   UNL     1       2.769 -10.431  -2.487  0.00  0.00    +0.074 A 
ATOM     27  C   UNL     1       2.339 -11.085  -1.346  0.00  0.00    +0.131 A 
ATOM     28  C   UNL     1       1.101 -11.722  -1.324  0.00  0.00    +0.048 A 
ATOM     29  C   UNL     1       0.293 -11.710  -2.424  0.00  0.00    +0.033 A 
ATOM     30  C   UNL     1       0.708 -11.053  -3.588  0.00  0.00    +0.090 A 
ATOM     31  N   UNL     1       0.139 -10.868  -4.805  0.00  0.00    -0.228 NA
BRANCH  22  36
ATOM     32  C   UNL     1       1.052 -10.052  -9.321  0.00  0.00    +0.001 A 
ATOM     33  C   UNL     1       0.144  -9.041  -9.583  0.00  0.00    +0.002 A 
ATOM     34  C   UNL     1      -0.504  -8.398  -8.543  0.00  0.00    +0.033 A 
ATOM     35  C   UNL     1      -0.247  -8.761  -7.237  0.00  0.00    +0.137 A 
ATOM     36  C   UNL     1       0.666  -9.780  -6.966  0.00  0.00    +0.047 A 
ATOM     37  C   UNL     1       1.316 -10.425  -8.019  0.00  0.00    +0.014 A 
BRANCH  35  38
ATOM     38  N   UNL     1      -0.941  -8.071  -6.126  0.00  0.00    +0.057 N 
ATOM     39  O   UNL     1      -1.154  -6.883  -6.192  0.00  0.00    -0.126 OA
ATOM     40  O   UNL     1      -1.293  -8.696  -5.152  0.00  0.00    -0.126 OA
ENDBRANCH  35  38
ENDBRANCH  22  36
ENDBRANCH   1  27
TORSDOF 6
