REMARK  Name = ZINC08758494
REMARK  7 active torsions:
REMARK  status: ('A' for Active; 'I' for Inactive)
REMARK    1  A    between atoms: C_3  and  N_11
REMARK    2  A    between atoms: C_4  and  N_8
REMARK    3  A    between atoms: C_12  and  C_14
REMARK    4  A    between atoms: C_14  and  O_15
REMARK    5  A    between atoms: O_15  and  C_16
REMARK    6  A    between atoms: C_16  and  C_18
REMARK    7  A    between atoms: C_23  and  N_24
REMARK                            x       y       z     vdW  Elec       q    Type
REMARK                         _______ _______ _______ _____ _____    ______ ____
ROOT
ATOM      1  N   UNL     1       4.378   8.396   0.258  0.00  0.00    -0.281 N 
ATOM      2  C   UNL     1       3.346   7.530   0.248  0.00  0.00    +0.255 C 
ATOM      3  O   UNL     1       2.209   7.940   0.357  0.00  0.00    -0.272 OA
ATOM      4  H   UNL     1       5.282   8.076   0.108  0.00  0.00    +0.155 HD
ENDROOT
BRANCH   1   7
ATOM      5  C   UNL     1       2.770  11.703   0.218  0.00  0.00    +0.022 A 
ATOM      6  C   UNL     1       2.996  10.359  -0.007  0.00  0.00    +0.027 A 
ATOM      7  C   UNL     1       4.147   9.758   0.484  0.00  0.00    +0.064 A 
ATOM      8  C   UNL     1       5.066  10.509   1.205  0.00  0.00    +0.149 A 
ATOM      9  C   UNL     1       4.838  11.854   1.423  0.00  0.00    +0.054 A 
ATOM     10  C   UNL     1       3.690  12.450   0.933  0.00  0.00    +0.043 A 
ATOM     11 CL   UNL     1       3.403  14.139   1.214  0.00  0.00    -0.083 Cl
BRANCH   8  12
ATOM     12  N   UNL     1       6.292   9.871   1.735  0.00  0.00    +0.058 N 
ATOM     13  O   UNL     1       7.054  10.507   2.441  0.00  0.00    -0.126 OA
ATOM     14  O   UNL     1       6.539   8.709   1.465  0.00  0.00    -0.126 OA
ENDBRANCH   8  12
ENDBRANCH   1   7
BRANCH   2  15
ATOM     15  C   UNL     1       3.603   6.053   0.101  0.00  0.00    +0.328 C 
BRANCH  15  16
ATOM     16  O   UNL     1       2.340   5.337   0.119  0.00  0.00    -0.452 OA
BRANCH  16  17
ATOM     17  C   UNL     1       2.395   3.996  -0.003  0.00  0.00    +0.341 C 
ATOM     18  O   UNL     1       3.469   3.440  -0.121  0.00  0.00    -0.245 OA
BRANCH  17  19
ATOM     19  C   UNL     1       1.153   3.204   0.008  0.00  0.00    +0.081 A 
ATOM     20  C   UNL     1      -0.090   3.845   0.022  0.00  0.00    +0.032 A 
ATOM     21  C   UNL     1      -1.248   3.099   0.032  0.00  0.00    +0.019 A 
ATOM     22  C   UNL     1      -1.188   1.713   0.022  0.00  0.00    +0.017 A 
ATOM     23  C   UNL     1       0.030   1.066   0.013  0.00  0.00    +0.024 A 
ATOM     24  C   UNL     1       1.209   1.802   0.003  0.00  0.00    +0.039 A 
ATOM     25 BR   UNL     1      -2.927   3.968   0.052  0.00  0.00    -0.050 Br
BRANCH  24  26
ATOM     26  N   UNL     1       2.437   1.153  -0.012  0.00  0.00    -0.357 N 
ATOM     27  H   UNL     1       2.505   0.253  -0.369  0.00  0.00    +0.142 HD
ATOM     28  H   UNL     1       3.225   1.599   0.334  0.00  0.00    +0.142 HD
ENDBRANCH  24  26
ENDBRANCH  17  19
ENDBRANCH  16  17
ENDBRANCH  15  16
ENDBRANCH   2  15
TORSDOF 7
