REMARK  Name = ZINC13077005
REMARK  7 active torsions:
REMARK  status: ('A' for Active; 'I' for Inactive)
REMARK    1  A    between atoms: C_1  and  C_2
REMARK    2  A    between atoms: C_2  and  C_3
REMARK    3  A    between atoms: C_3  and  N_4
REMARK    4  A    between atoms: C_5  and  C_7
REMARK    5  A    between atoms: N_10  and  S_18
REMARK    6  A    between atoms: S_18  and  C_21
REMARK    7  A    between atoms: C_25  and  C_27
REMARK                            x       y       z     vdW  Elec       q    Type
REMARK                         _______ _______ _______ _____ _____    ______ ____
ROOT
ATOM      1  C   UNL     1       6.193  -0.802  -3.201  0.00  0.00    +0.277 C 
ATOM      2  C   UNL     1       5.159  -0.043  -2.357  0.00  0.00    +0.186 C 
ATOM      3  N   UNL     1       4.361  -1.042  -1.627  0.00  0.00    -0.195 N 
ATOM      4  C   UNL     1       3.967  -2.197  -2.322  0.00  0.00    +0.093 A 
ATOM      5  C   UNL     1       2.988  -3.025  -1.792  0.00  0.00    +0.028 A 
ATOM      6  C   UNL     1       2.601  -4.160  -2.480  0.00  0.00    +0.002 A 
ATOM      7  C   UNL     1       3.185  -4.466  -3.695  0.00  0.00    +0.004 A 
ATOM      8  C   UNL     1       4.157  -3.641  -4.230  0.00  0.00    +0.047 A 
ATOM      9  C   UNL     1       4.550  -2.499  -3.548  0.00  0.00    +0.144 A 
ATOM     10  O   UNL     1       5.504  -1.692  -4.082  0.00  0.00    -0.476 OA
ENDROOT
BRANCH   1  12
ATOM     11  N   UNL     1       7.809   1.062  -3.382  0.00  0.00    -0.312 N 
ATOM     12  C   UNL     1       7.006   0.179  -4.007  0.00  0.00    +0.255 C 
ATOM     13  O   UNL     1       6.936   0.173  -5.218  0.00  0.00    -0.272 OA
ATOM     14  H   UNL     1       7.865   1.067  -2.414  0.00  0.00    +0.149 HD
BRANCH  11  15
ATOM     15  C   UNL     1       8.599   2.015  -4.166  0.00  0.00    +0.104 C 
BRANCH  15  17
ATOM     16  C   UNL     1      10.243   3.892  -4.039  0.00  0.00    +0.005 C 
ATOM     17  C   UNL     1       9.418   2.897  -3.221  0.00  0.00    +0.015 C 
ENDBRANCH  15  17
ENDBRANCH  11  15
ENDBRANCH   1  12
BRANCH   3  18
ATOM     18  S   UNL     1       3.947  -0.814  -0.040  0.00  0.00    +0.075 S 
ATOM     19  O   UNL     1       4.909   0.078   0.506  0.00  0.00    -0.150 OA
ATOM     20  O   UNL     1       3.707  -2.104   0.506  0.00  0.00    -0.150 OA
BRANCH  18  21
ATOM     21  C   UNL     1       2.404   0.036  -0.021  0.00  0.00    +0.110 A 
ATOM     22  C   UNL     1       2.378   1.420  -0.013  0.00  0.00    +0.030 A 
ATOM     23  C   UNL     1       1.172   2.096   0.002  0.00  0.00    +0.023 A 
ATOM     24  C   UNL     1      -0.017   1.393   0.010  0.00  0.00    +0.055 A 
ATOM     25  C   UNL     1       0.002  -0.004   0.002  0.00  0.00    +0.083 A 
ATOM     26  C   UNL     1       1.225  -0.679  -0.013  0.00  0.00    +0.045 A 
ATOM     27 CL   UNL     1      -1.530   2.243   0.021  0.00  0.00    -0.083 Cl
BRANCH  25  28
ATOM     28  C   UNL     1      -1.264  -0.763   0.011  0.00  0.00    +0.388 C 
ATOM     29  O   UNL     1      -2.326  -0.173   0.024  0.00  0.00    -0.241 OA
ATOM     30  O   UNL     1      -1.242  -2.110   0.003  0.00  0.00    -0.241 OA
ENDBRANCH  25  28
ENDBRANCH  18  21
ENDBRANCH   3  18
TORSDOF 6
