REMARK  Name = ZINC60081726
REMARK  7 active torsions:
REMARK  status: ('A' for Active; 'I' for Inactive)
REMARK    1  A    between atoms: C_3  and  C_16
REMARK    2  A    between atoms: C_5  and  N_7
REMARK    3  A    between atoms: C_8  and  C_10
REMARK    4  A    between atoms: C_16  and  N_17
REMARK    5  A    between atoms: N_17  and  C_18
REMARK    6  A    between atoms: C_21  and  N_28
REMARK    7  A    between atoms: C_23  and  C_24
REMARK                            x       y       z     vdW  Elec       q    Type
REMARK                         _______ _______ _______ _____ _____    ______ ____
ROOT
ATOM      1  C   UNL     1       3.657   2.200  -0.029  0.00  0.00    +0.137 C 
ENDROOT
BRANCH   1   4
ATOM      2  C   UNL     1      -0.028   1.373  -0.012  0.00  0.00    +0.002 A 
ATOM      3  C   UNL     1       1.157   2.086  -0.017  0.00  0.00    +0.005 A 
ATOM      4  C   UNL     1       2.368   1.419  -0.023  0.00  0.00    -0.029 A 
ATOM      5  C   UNL     1       2.398   0.038  -0.025  0.00  0.00    +0.028 A 
ATOM      6  C   UNL     1       1.210  -0.681  -0.020  0.00  0.00    +0.034 A 
ATOM      7  C   UNL     1      -0.005  -0.008  -0.013  0.00  0.00    +0.023 A 
BRANCH   6   8
ATOM      8  N   UNL     1       1.237  -2.080  -0.021  0.00  0.00    -0.283 N 
ATOM      9  C   UNL     1       0.299  -2.773   0.653  0.00  0.00    +0.246 C 
ATOM     10  O   UNL     1      -0.617  -2.187   1.192  0.00  0.00    -0.273 OA
ATOM     11  H   UNL     1       1.932  -2.551  -0.508  0.00  0.00    +0.155 HD
BRANCH   9  12
ATOM     12  C   UNL     1       0.387  -4.275   0.738  0.00  0.00    +0.204 C 
ATOM     13  C   UNL     1       1.629  -4.694   1.565  0.00  0.00    +0.043 C 
ATOM     14  C   UNL     1       1.190  -6.099   2.063  0.00  0.00    +0.031 C 
ATOM     15  C   UNL     1      -0.330  -5.917   2.257  0.00  0.00    +0.161 C 
ATOM     16  O   UNL     1      -0.740  -4.800   1.457  0.00  0.00    -0.367 OA
ENDBRANCH   9  12
ENDBRANCH   6   8
ENDBRANCH   1   4
BRANCH   1  17
ATOM     17  N   UNL     1       4.082   2.452   1.350  0.00  0.00    -0.339 N 
ATOM     18  H   UNL     1       3.546   2.125   2.090  0.00  0.00    +0.146 HD
BRANCH  17  19
ATOM     19  C   UNL     1       5.257   3.164   1.600  0.00  0.00    +0.039 A 
ATOM     20  C   UNL     1       6.022   3.638   0.541  0.00  0.00    +0.026 A 
ATOM     21  C   UNL     1       7.184   4.341   0.792  0.00  0.00    +0.034 A 
ATOM     22  C   UNL     1       7.586   4.574   2.095  0.00  0.00    +0.127 A 
ATOM     23  C   UNL     1       6.827   4.103   3.150  0.00  0.00    +0.047 A 
ATOM     24  C   UNL     1       5.661   3.404   2.907  0.00  0.00    +0.078 A 
BRANCH  24  25
ATOM     25  C   UNL     1       4.832   2.897   4.058  0.00  0.00    +0.419 C 
ATOM     26  F   UNL     1       5.438   3.260   5.265  0.00  0.00    -0.166 F 
ATOM     27  F   UNL     1       3.551   3.456   3.992  0.00  0.00    -0.166 F 
ATOM     28  F   UNL     1       4.736   1.503   3.985  0.00  0.00    -0.166 F 
ENDBRANCH  24  25
BRANCH  22  29
ATOM     29  N   UNL     1       8.832   5.329   2.359  0.00  0.00    +0.056 N 
ATOM     30  O   UNL     1       9.496   5.740   1.437  0.00  0.00    -0.126 OA
ATOM     31  O   UNL     1       9.184   5.533   3.498  0.00  0.00    -0.126 OA
ENDBRANCH  22  29
ENDBRANCH  17  19
ENDBRANCH   1  17
TORSDOF 7
