REMARK  Name = ZINC17180302
REMARK  10 active torsions:
REMARK  status: ('A' for Active; 'I' for Inactive)
REMARK    1  A    between atoms: C_1  and  C_2
REMARK    2  A    between atoms: C_13  and  O_15
REMARK    3  A    between atoms: N_21  and  O_22
REMARK    4  A    between atoms: O_22  and  C_23
REMARK    5  A    between atoms: C_23  and  C_24
REMARK    6  A    between atoms: N_26  and  C_27
REMARK    7  A    between atoms: C_27  and  C_28
REMARK    8  A    between atoms: C_28  and  C_29
REMARK    9  A    between atoms: C_32  and  O_35
REMARK   10  A    between atoms: C_38  and  C_39
REMARK                            x       y       z     vdW  Elec       q    Type
REMARK                         _______ _______ _______ _____ _____    ______ ____
ROOT
ATOM      1  C   UNL     1      -0.444   2.729   3.971  0.00  0.00    +0.014 C 
ATOM      2  C   UNL     1      -1.150   3.464   2.830  0.00  0.00    -0.003 C 
ATOM      3  C   UNL     1      -2.635   3.183   2.854  0.00  0.00    +0.010 C 
ATOM      4  C   UNL     1      -2.921   1.721   2.528  0.00  0.00    +0.005 C 
ATOM      5  C   UNL     1      -2.177   1.140   1.333  0.00  0.00    +0.002 C 
ATOM      6  C   UNL     1      -0.723   1.573   1.267  0.00  0.00    -0.003 C 
ATOM      7  C   UNL     1      -0.601   3.062   1.440  0.00  0.00    +0.001 C 
ATOM      8  C   UNL     1       0.809   3.652   1.454  0.00  0.00    +0.007 C 
ATOM      9  C   UNL     1       0.666   4.966   2.264  0.00  0.00    +0.032 C 
ATOM     10  C   UNL     1      -0.758   4.951   2.880  0.00  0.00    +0.121 C 
ATOM     11  C   UNL     1      -0.013   1.087   0.008  0.00  0.00    +0.008 C 
ATOM     12  C   UNL     1      -0.753   1.591  -1.231  0.00  0.00    +0.031 C 
ATOM     13  C   UNL     1      -2.156   1.014  -1.171  0.00  0.00    -0.062 C 
ATOM     14  C   UNL     1      -2.571   0.301  -2.208  0.00  0.00    +0.026 C 
ATOM     15  C   UNL     1      -3.914  -0.301  -2.223  0.00  0.00    +0.080 C 
ATOM     16  N   UNL     1      -4.234  -1.221  -3.081  0.00  0.00    -0.089 NA
ATOM     17  C   UNL     1      -4.908   0.201  -1.195  0.00  0.00    +0.059 C 
ATOM     18  C   UNL     1      -4.184   0.339   0.140  0.00  0.00    +0.017 C 
ATOM     19  C   UNL     1      -2.983   1.282   0.050  0.00  0.00    -0.007 C 
ATOM     20  C   UNL     1      -3.545   2.697  -0.087  0.00  0.00    +0.016 C 
ENDROOT
BRANCH  10  21
ATOM     21  O   UNL     1      -1.658   5.737   2.098  0.00  0.00    -0.391 OA
ATOM     22  H   UNL     1      -1.456   6.682   2.096  0.00  0.00    +0.210 HD
ENDBRANCH  10  21
BRANCH  16  23
ATOM     23  O   UNL     1      -3.282  -1.665  -4.031  0.00  0.00    -0.384 OA
BRANCH  23  24
ATOM     24  C   UNL     1      -3.769  -2.678  -4.912  0.00  0.00    +0.358 C 
BRANCH  24  25
ATOM     25  C   UNL     1      -2.679  -3.073  -5.875  0.00  0.00    +0.253 C 
ATOM     26  O   UNL     1      -1.592  -2.539  -5.812  0.00  0.00    -0.272 OA
ATOM     27  N   UNL     1      -2.913  -4.020  -6.805  0.00  0.00    -0.312 N 
ATOM     28  H   UNL     1      -3.782  -4.447  -6.855  0.00  0.00    +0.149 HD
BRANCH  27  29
ATOM     29  C   UNL     1      -1.853  -4.404  -7.741  0.00  0.00    +0.109 C 
BRANCH  29  30
ATOM     30  C   UNL     1      -2.374  -5.490  -8.685  0.00  0.00    +0.054 C 
BRANCH  30  31
ATOM     31  C   UNL     1      -1.284  -5.885  -9.647  0.00  0.00    -0.046 A 
ATOM     32  C   UNL     1      -1.159  -5.226 -10.856  0.00  0.00    +0.007 A 
ATOM     33  C   UNL     1      -0.157  -5.582 -11.738  0.00  0.00    +0.045 A 
ATOM     34  C   UNL     1       0.717  -6.610 -11.414  0.00  0.00    +0.117 A 
ATOM     35  C   UNL     1       0.585  -7.274 -10.203  0.00  0.00    +0.045 A 
ATOM     36  C   UNL     1      -0.415  -6.910  -9.322  0.00  0.00    +0.007 A 
BRANCH  34  37
ATOM     37  O   UNL     1       1.700  -6.966 -12.282  0.00  0.00    -0.507 OA
ATOM     38  H   UNL     1       1.440  -7.652 -12.912  0.00  0.00    +0.292 HD
ENDBRANCH  34  37
ENDBRANCH  30  31
ENDBRANCH  29  30
ENDBRANCH  27  29
ENDBRANCH  24  25
ENDBRANCH  23  24
ENDBRANCH  16  23
TORSDOF 8
