REMARK  Name = ZINC38914858
REMARK  12 active torsions:
REMARK  status: ('A' for Active; 'I' for Inactive)
REMARK    1  A    between atoms: C_1  and  C_2
REMARK    2  A    between atoms: C_2  and  O_3
REMARK    3  A    between atoms: O_3  and  C_4
REMARK    4  A    between atoms: C_4  and  C_6
REMARK    5  A    between atoms: C_7  and  C_38
REMARK    6  A    between atoms: N_11  and  C_12
REMARK    7  A    between atoms: C_12  and  C_14
REMARK    8  A    between atoms: C_14  and  S_15
REMARK    9  A    between atoms: S_15  and  C_16
REMARK   10  A    between atoms: C_23  and  C_27
REMARK   11  A    between atoms: C_24  and  C_26
REMARK   12  A    between atoms: N_30  and  C_31
REMARK                            x       y       z     vdW  Elec       q    Type
REMARK                         _______ _______ _______ _____ _____    ______ ____
ROOT
ATOM      1  C   UNL     1     -11.426  -0.471   0.086  0.00  0.00    +0.210 C 
ATOM      2  N   UNL     1     -11.798  -1.193   1.290  0.00  0.00    -0.277 NA
ATOM      3  C   UNL     1     -13.139  -1.710   1.346  0.00  0.00    +0.135 C 
ATOM      4  C   UNL     1     -13.594  -2.487   0.103  0.00  0.00    +0.129 C 
ATOM      5  C   UNL     1     -15.048  -2.227  -0.173  0.00  0.00    -0.049 C 
ATOM      6  C   UNL     1     -15.630  -1.163   0.349  0.00  0.00    -0.016 C 
ATOM      7  S   UNL     1     -14.370  -0.342   1.345  0.00  0.00    -0.110 S 
ATOM      8  C   UNL     1     -17.062  -0.730   0.168  0.00  0.00    +0.051 C 
ATOM      9  C   UNL     1     -15.837  -3.174  -1.040  0.00  0.00    +0.041 C 
ATOM     10  C   UNL     1     -12.805  -2.115  -1.115  0.00  0.00    +0.231 C 
ATOM     11  O   UNL     1     -13.080  -2.664  -2.160  0.00  0.00    -0.274 OA
ATOM     12  N   UNL     1     -11.818  -1.196  -1.113  0.00  0.00    -0.246 N 
ATOM     13  H   UNL     1     -11.124  -1.912   1.503  0.00  0.00    +0.126 HD
ENDROOT
BRANCH  12  14
ATOM     14  C   UNL     1     -11.127  -0.951  -2.305  0.00  0.00    +0.039 A 
ATOM     15  C   UNL     1     -10.377  -1.960  -2.894  0.00  0.00    +0.023 A 
ATOM     16  C   UNL     1      -9.696  -1.715  -4.071  0.00  0.00    +0.002 A 
ATOM     17  C   UNL     1      -9.759  -0.466  -4.661  0.00  0.00    +0.000 A 
ATOM     18  C   UNL     1     -10.505   0.541  -4.077  0.00  0.00    +0.002 A 
ATOM     19  C   UNL     1     -11.194   0.301  -2.904  0.00  0.00    +0.023 A 
ENDBRANCH  12  14
BRANCH   1  20
ATOM     20  S   UNL     1      -9.628  -0.231   0.071  0.00  0.00    -0.113 S 
BRANCH  20  21
ATOM     21  C   UNL     1      -8.960  -1.918   0.067  0.00  0.00    +0.170 C 
BRANCH  21  22
ATOM     22  C   UNL     1      -7.454  -1.861   0.055  0.00  0.00    +0.248 C 
ATOM     23  O   UNL     1      -6.886  -0.786   0.050  0.00  0.00    -0.273 OA
BRANCH  22  29
ATOM     24  C   UNL     1      -2.842  -2.404   0.019  0.00  0.00    +0.118 A 
ATOM     25  C   UNL     1      -3.212  -3.713   0.022  0.00  0.00    +0.036 A 
ATOM     26  N   UNL     1      -4.532  -3.974   0.033  0.00  0.00    -0.339 N 
ATOM     27  H   UNL     1      -4.850  -4.890   0.035  0.00  0.00    +0.167 HD
ATOM     28  C   UNL     1      -5.416  -2.936   0.039  0.00  0.00    +0.164 A 
ATOM     29  N   UNL     1      -6.748  -2.986   0.050  0.00  0.00    -0.156 NA
ATOM     30  S   UNL     1      -4.423  -1.579   0.039  0.00  0.00    -0.046 S 
ATOM     31  C   UNL     1      -2.191  -4.821   0.015  0.00  0.00    +0.065 C 
BRANCH  24  32
ATOM     32  C   UNL     1      -1.497  -1.824   0.010  0.00  0.00    +0.348 C 
ATOM     33  O   UNL     1      -0.521  -2.550  -0.003  0.00  0.00    -0.244 OA
BRANCH  32  34
ATOM     34  O   UNL     1      -1.340  -0.484   0.014  0.00  0.00    -0.461 OA
BRANCH  34  36
ATOM     35  C   UNL     1      -0.022   1.542   0.011  0.00  0.00    +0.048 C 
ATOM     36  C   UNL     1       0.000   0.012   0.004  0.00  0.00    +0.229 C 
ENDBRANCH  34  36
ENDBRANCH  32  34
ENDBRANCH  24  32
ENDBRANCH  22  29
ENDBRANCH  21  22
ENDBRANCH  20  21
ENDBRANCH   1  20
TORSDOF 8
