REMARK  Name = ZINC12817980
REMARK  7 active torsions:
REMARK  status: ('A' for Active; 'I' for Inactive)
REMARK    1  A    between atoms: C_1  and  C_2
REMARK    2  A    between atoms: C_2  and  C_4
REMARK    3  A    between atoms: C_2  and  N_54
REMARK    4  A    between atoms: N_6  and  C_7
REMARK    5  A    between atoms: C_16  and  C_19
REMARK    6  A    between atoms: N_21  and  C_22
REMARK    7  A    between atoms: C_22  and  C_23
REMARK                            x       y       z     vdW  Elec       q    Type
REMARK                         _______ _______ _______ _____ _____    ______ ____
ROOT
ATOM      1  C   UNL     1      -1.517   5.895   1.543  0.00  0.00    -0.077 C 
ATOM      2  C   UNL     1      -1.157   7.383   1.541  0.00  0.00    -0.006 C 
ATOM      3  C   UNL     1      -2.442   8.214   1.542  0.00  0.00    +0.071 C 
ATOM      4  C   UNL     1      -3.286   7.836   0.322  0.00  0.00    -0.006 C 
ATOM      5  C   UNL     1      -3.585   6.335   0.359  0.00  0.00    -0.077 C 
ATOM      6  N   UNL     1      -2.308   5.591   0.332  0.00  0.00    +0.387 N 
ATOM      7  H   UNL     1      -1.773   5.879  -0.496  0.00  0.00    -0.081 HD
ENDROOT
BRANCH   3   8
ATOM      8  C   UNL     1      -2.095   9.679   1.479  0.00  0.00    +0.216 C 
ATOM      9  O   UNL     1      -2.483  10.355   0.550  0.00  0.00    -0.276 OA
ATOM     10  N   UNL     1      -1.352  10.238   2.455  0.00  0.00    -0.311 N 
ATOM     11  H   UNL     1      -1.041   9.697   3.198  0.00  0.00    +0.149 HD
BRANCH  10  12
ATOM     12  C   UNL     1      -1.014  11.662   2.394  0.00  0.00    +0.139 C 
BRANCH  12  13
ATOM     13  C   UNL     1      -0.183  12.033   3.596  0.00  0.00    -0.030 A 
ATOM     14  C   UNL     1      -0.799  12.471   4.753  0.00  0.00    +0.005 A 
ATOM     15  C   UNL     1      -0.038  12.806   5.857  0.00  0.00    +0.000 A 
ATOM     16  C   UNL     1       1.340  12.714   5.800  0.00  0.00    +0.000 A 
ATOM     17  C   UNL     1       1.956  12.281   4.641  0.00  0.00    +0.000 A 
ATOM     18  C   UNL     1       1.194  11.941   3.539  0.00  0.00    +0.005 A 
ENDBRANCH  12  13
ENDBRANCH  10  12
ENDBRANCH   3   8
BRANCH   6  20
ATOM     19  C   UNL     1      -3.306   3.657   1.504  0.00  0.00    -0.004 C 
ATOM     20  C   UNL     1      -2.571   4.140   0.252  0.00  0.00    +0.016 C 
BRANCH  20  21
ATOM     21  C   UNL     1      -1.257   3.412   0.128  0.00  0.00    +0.203 C 
ATOM     22  O   UNL     1      -0.217   4.035   0.127  0.00  0.00    -0.277 OA
ATOM     23  N   UNL     1      -1.238   2.069   0.019  0.00  0.00    -0.287 N 
ATOM     24  H   UNL     1      -2.071   1.576  -0.048  0.00  0.00    +0.155 HD
BRANCH  23  25
ATOM     25  C   UNL     1      -0.017   1.385   0.002  0.00  0.00    +0.033 A 
ATOM     26  C   UNL     1       1.090   1.954  -0.614  0.00  0.00    +0.026 A 
ATOM     27  C   UNL     1       2.293   1.275  -0.635  0.00  0.00    +0.040 A 
ATOM     28  C   UNL     1       2.396   0.028  -0.042  0.00  0.00    +0.124 A 
ATOM     29  C   UNL     1       1.293  -0.541   0.574  0.00  0.00    +0.040 A 
ATOM     30  C   UNL     1       0.089   0.135   0.597  0.00  0.00    +0.026 A 
ATOM     31  F   UNL     1       3.573  -0.634  -0.062  0.00  0.00    -0.205 F 
ENDBRANCH  23  25
ENDBRANCH  20  21
ENDBRANCH   6  20
TORSDOF 6
