REMARK  Name = ZINC03619922
REMARK  9 active torsions:
REMARK  status: ('A' for Active; 'I' for Inactive)
REMARK    1  A    between atoms: C_1  and  N_2
REMARK    2  A    between atoms: N_2  and  C_3
REMARK    3  A    between atoms: N_2  and  C_4
REMARK    4  A    between atoms: C_4  and  C_5
REMARK    5  A    between atoms: C_5  and  C_6
REMARK    6  A    between atoms: C_6  and  N_7
REMARK    7  A    between atoms: C_8  and  C_10
REMARK    8  A    between atoms: C_10  and  O_29
REMARK    9  A    between atoms: N_20  and  C_21
REMARK                            x       y       z     vdW  Elec       q    Type
REMARK                         _______ _______ _______ _____ _____    ______ ____
ROOT
ATOM      1  C   UNL     1      -3.625  -5.913  -0.359  0.00  0.00    +0.247 C 
ATOM      2  C   UNL     1      -3.148  -6.512   0.944  0.00  0.00    +0.034 A 
ATOM      3  C   UNL     1      -3.530  -5.984   2.156  0.00  0.00    +0.025 A 
ATOM      4  C   UNL     1      -3.073  -6.560   3.330  0.00  0.00    +0.018 A 
ATOM      5  C   UNL     1      -2.236  -7.660   3.282  0.00  0.00    +0.017 A 
ATOM      6  C   UNL     1      -1.851  -8.192   2.066  0.00  0.00    +0.025 A 
ATOM      7  C   UNL     1      -2.307  -7.618   0.886  0.00  0.00    +0.043 A 
ATOM      8  N   UNL     1      -1.930  -8.141  -0.351  0.00  0.00    -0.269 N 
ATOM      9  C   UNL     1      -2.342  -7.624  -1.516  0.00  0.00    +0.314 C 
ATOM     10  O   UNL     1      -1.962  -8.144  -2.547  0.00  0.00    -0.252 OA
ATOM     11  N   UNL     1      -3.155  -6.556  -1.599  0.00  0.00    -0.214 N 
ATOM     12 BR   UNL     1      -3.593  -5.840   5.000  0.00  0.00    -0.050 Br
ATOM     13  H   UNL     1      -1.343  -8.912  -0.369  0.00  0.00    +0.156 HD
ENDROOT
BRANCH  11  14
ATOM     14  C   UNL     1      -3.552  -6.061  -2.847  0.00  0.00    +0.041 A 
ATOM     15  C   UNL     1      -2.729  -5.184  -3.540  0.00  0.00    +0.025 A 
ATOM     16  C   UNL     1      -3.122  -4.698  -4.772  0.00  0.00    +0.022 A 
ATOM     17  C   UNL     1      -4.335  -5.084  -5.314  0.00  0.00    +0.041 A 
ATOM     18  C   UNL     1      -5.157  -5.958  -4.625  0.00  0.00    +0.022 A 
ATOM     19  C   UNL     1      -4.766  -6.452  -3.396  0.00  0.00    +0.025 A 
ATOM     20 CL   UNL     1      -4.826  -4.470  -6.862  0.00  0.00    -0.084 Cl
ENDBRANCH  11  14
BRANCH   1  22
ATOM     21  N   UNL     1      -1.895  -4.158  -0.572  0.00  0.00    -0.311 N 
ATOM     22  C   UNL     1      -3.194  -4.470  -0.392  0.00  0.00    +0.269 C 
ATOM     23  O   UNL     1      -4.016  -3.588  -0.257  0.00  0.00    -0.270 OA
ATOM     24  H   UNL     1      -1.238  -4.862  -0.680  0.00  0.00    +0.149 HD
BRANCH  21  25
ATOM     25  C   UNL     1      -1.477  -2.754  -0.603  0.00  0.00    +0.102 C 
BRANCH  25  26
ATOM     26  C   UNL     1       0.036  -2.678  -0.819  0.00  0.00    +0.000 C 
BRANCH  26  27
ATOM     27  C   UNL     1       0.473  -1.212  -0.852  0.00  0.00    -0.078 C 
BRANCH  27  29
ATOM     28  C   UNL     1       2.329   0.266  -1.210  0.00  0.00    -0.097 C 
ATOM     29  N   UNL     1       1.926  -1.139  -1.058  0.00  0.00    +0.376 N 
ATOM     30  C   UNL     1       2.615  -1.724   0.100  0.00  0.00    -0.097 C 
ATOM     31  H   UNL     1       2.174  -1.652  -1.891  0.00  0.00    -0.083 HD
ENDBRANCH  27  29
ENDBRANCH  26  27
ENDBRANCH  25  26
ENDBRANCH  21  25
ENDBRANCH   1  22
BRANCH   1  32
ATOM     32  O   UNL     1      -5.053  -5.943  -0.361  0.00  0.00    -0.360 OA
ATOM     33  H   UNL     1      -5.457  -5.492   0.394  0.00  0.00    +0.213 HD
ENDBRANCH   1  32
TORSDOF 7
