REMARK  Name = ZINC39761339
REMARK  10 active torsions:
REMARK  status: ('A' for Active; 'I' for Inactive)
REMARK    1  A    between atoms: C_1  and  C_2
REMARK    2  A    between atoms: C_2  and  C_3
REMARK    3  A    between atoms: C_4  and  C_35
REMARK    4  A    between atoms: C_9  and  C_11
REMARK    5  A    between atoms: C_11  and  S_12
REMARK    6  A    between atoms: S_12  and  C_13
REMARK    7  A    between atoms: C_16  and  C_24
REMARK    8  A    between atoms: N_17  and  C_18
REMARK    9  A    between atoms: C_24  and  C_25
REMARK   10  A    between atoms: N_27  and  C_28
REMARK                            x       y       z     vdW  Elec       q    Type
REMARK                         _______ _______ _______ _____ _____    ______ ____
ROOT
ATOM      1  C   UNL     1       7.583  -3.120  -6.255  0.00  0.00    +0.197 A 
ATOM      2  N   UNL     1       8.290  -2.988  -5.157  0.00  0.00    -0.122 NA
ATOM      3  N   UNL     1       9.522  -3.269  -5.393  0.00  0.00    -0.133 NA
ATOM      4  C   UNL     1       9.676  -3.595  -6.645  0.00  0.00    +0.147 A 
ATOM      5  N   UNL     1       8.445  -3.518  -7.240  0.00  0.00    -0.274 N 
ENDROOT
BRANCH   5   6
ATOM      6  C   UNL     1       8.134  -3.788  -8.581  0.00  0.00    +0.050 A 
ATOM      7  C   UNL     1       8.269  -5.076  -9.081  0.00  0.00    +0.026 A 
ATOM      8  C   UNL     1       7.962  -5.339 -10.401  0.00  0.00    +0.002 A 
ATOM      9  C   UNL     1       7.519  -4.320 -11.225  0.00  0.00    +0.000 A 
ATOM     10  C   UNL     1       7.383  -3.036 -10.730  0.00  0.00    +0.002 A 
ATOM     11  C   UNL     1       7.684  -2.769  -9.409  0.00  0.00    +0.026 A 
ENDBRANCH   5   6
BRANCH   1  12
ATOM     12  S   UNL     1       5.851  -2.844  -6.427  0.00  0.00    -0.076 S 
BRANCH  12  13
ATOM     13  C   UNL     1       5.321  -2.342  -4.766  0.00  0.00    +0.173 C 
BRANCH  13  20
ATOM     14  C   UNL     1      -0.208  -0.853  -2.817  0.00  0.00    +0.053 A 
ATOM     15  C   UNL     1      -0.707  -1.065  -4.061  0.00  0.00    +0.011 A 
ATOM     16  S   UNL     1       0.773  -1.549  -4.934  0.00  0.00    -0.057 S 
ATOM     17  C   UNL     1       1.852  -1.433  -3.647  0.00  0.00    +0.165 A 
ATOM     18  N   UNL     1       1.087  -1.044  -2.650  0.00  0.00    -0.229 NA
ATOM     19  N   UNL     1       3.219  -1.682  -3.641  0.00  0.00    -0.264 N 
ATOM     20  C   UNL     1       3.838  -2.071  -4.773  0.00  0.00    +0.229 C 
ATOM     21  O   UNL     1       3.202  -2.204  -5.797  0.00  0.00    -0.275 OA
ATOM     22  C   UNL     1      -2.120  -0.929  -4.565  0.00  0.00    +0.053 C 
ATOM     23  H   UNL     1       3.728  -1.576  -2.822  0.00  0.00    +0.157 HD
BRANCH  14  25
ATOM     24  C   UNL     1      -1.144   1.116  -1.635  0.00  0.00    +0.010 C 
ATOM     25  C   UNL     1      -1.093  -0.413  -1.679  0.00  0.00    +0.053 C 
ENDBRANCH  14  25
ENDBRANCH  13  20
ENDBRANCH  12  13
ENDBRANCH   1  12
BRANCH   4  26
ATOM     26  C   UNL     1      10.968  -3.990  -7.312  0.00  0.00    +0.172 C 
BRANCH  26  27
ATOM     27  C   UNL     1      11.150  -5.483  -7.212  0.00  0.00    +0.225 C 
ATOM     28  O   UNL     1      10.313  -6.159  -6.653  0.00  0.00    -0.275 OA
ATOM     29  N   UNL     1      12.243  -6.066  -7.743  0.00  0.00    -0.285 N 
ATOM     30  H   UNL     1      12.874  -5.537  -8.255  0.00  0.00    +0.155 HD
BRANCH  29  31
ATOM     31  C   UNL     1      12.468  -7.435  -7.554  0.00  0.00    +0.034 A 
ATOM     32  C   UNL     1      13.095  -8.180  -8.544  0.00  0.00    +0.026 A 
ATOM     33  C   UNL     1      13.315  -9.530  -8.357  0.00  0.00    +0.040 A 
ATOM     34  C   UNL     1      12.912 -10.141  -7.181  0.00  0.00    +0.124 A 
ATOM     35  C   UNL     1      12.286  -9.401  -6.192  0.00  0.00    +0.040 A 
ATOM     36  C   UNL     1      12.069  -8.049  -6.374  0.00  0.00    +0.026 A 
ATOM     37  F   UNL     1      13.127 -11.463  -7.000  0.00  0.00    -0.205 F 
ENDBRANCH  29  31
ENDBRANCH  26  27
ENDBRANCH   4  26
TORSDOF 8
