REMARK  Name = ZINC07649872
REMARK  7 active torsions:
REMARK  status: ('A' for Active; 'I' for Inactive)
REMARK    1  A    between atoms: C_1  and  C_2
REMARK    2  A    between atoms: C_2  and  C_4
REMARK    3  A    between atoms: C_2  and  O_22
REMARK    4  A    between atoms: N_6  and  N_7
REMARK    5  A    between atoms: C_8  and  C_10
REMARK    6  A    between atoms: C_11  and  C_12
REMARK    7  A    between atoms: O_22  and  C_23
REMARK                            x       y       z     vdW  Elec       q    Type
REMARK                         _______ _______ _______ _____ _____    ______ ____
ROOT
ATOM      1  C   UNL     1       6.935   3.997   0.876  0.00  0.00    +0.270 C 
ATOM      2  O   UNL     1       6.647   5.088   1.321  0.00  0.00    -0.270 OA
ATOM      3  N   UNL     1       8.159   3.480   1.098  0.00  0.00    -0.231 N 
ATOM      4  H   UNL     1       8.389   2.607   0.742  0.00  0.00    +0.173 HD
ENDROOT
BRANCH   3   5
ATOM      5  N   UNL     1       9.101   4.203   1.842  0.00  0.00    -0.231 N 
ATOM      6  C   UNL     1      10.326   3.686   2.064  0.00  0.00    +0.253 C 
ATOM      7  O   UNL     1      10.614   2.591   1.617  0.00  0.00    -0.269 OA
ATOM      8  H   UNL     1       8.871   5.076   2.197  0.00  0.00    +0.173 HD
BRANCH   6   9
ATOM      9  C   UNL     1      11.308   4.441   2.840  0.00  0.00    +0.069 C 
ATOM     10  C   UNL     1      12.536   3.923   3.062  0.00  0.00    +0.013 C 
BRANCH  10  11
ATOM     11  C   UNL     1      13.522   4.681   3.842  0.00  0.00    -0.017 A 
ATOM     12  C   UNL     1      13.210   5.937   4.354  0.00  0.00    +0.008 A 
ATOM     13  C   UNL     1      14.143   6.648   5.095  0.00  0.00    +0.001 A 
ATOM     14  C   UNL     1      15.391   6.159   5.339  0.00  0.00    +0.008 A 
ATOM     15  C   UNL     1      15.777   4.900   4.848  0.00  0.00    -0.017 A 
ATOM     16  C   UNL     1      14.856   4.135   4.092  0.00  0.00    -0.011 A 
ATOM     17  C   UNL     1      15.237   2.881   3.602  0.00  0.00    +0.009 A 
ATOM     18  C   UNL     1      16.490   2.409   3.858  0.00  0.00    +0.001 A 
ATOM     19  C   UNL     1      17.398   3.159   4.601  0.00  0.00    +0.001 A 
ATOM     20  C   UNL     1      17.061   4.383   5.093  0.00  0.00    +0.008 A 
ENDBRANCH  10  11
ENDBRANCH   6   9
ENDBRANCH   3   5
BRANCH   1  22
ATOM     21  C   UNL     1       6.473   2.958  -1.327  0.00  0.00    +0.062 C 
ATOM     22  C   UNL     1       5.922   3.219   0.076  0.00  0.00    +0.257 C 
BRANCH  22  23
ATOM     23  O   UNL     1       4.711   3.971  -0.020  0.00  0.00    -0.480 OA
BRANCH  23  24
ATOM     24  C   UNL     1       3.565   3.271  -0.232  0.00  0.00    +0.122 A 
ATOM     25  C   UNL     1       3.630   1.892  -0.457  0.00  0.00    +0.046 A 
ATOM     26  C   UNL     1       2.502   1.165  -0.672  0.00  0.00    +0.012 A 
ATOM     27  C   UNL     1       1.249   1.804  -0.669  0.00  0.00    -0.018 A 
ATOM     28  C   UNL     1       0.063   1.083  -0.888  0.00  0.00    +0.008 A 
ATOM     29  C   UNL     1      -1.132   1.735  -0.883  0.00  0.00    +0.001 A 
ATOM     30  C   UNL     1      -1.200   3.108  -0.654  0.00  0.00    +0.001 A 
ATOM     31  C   UNL     1      -0.072   3.839  -0.439  0.00  0.00    +0.008 A 
ATOM     32  C   UNL     1       1.181   3.202  -0.442  0.00  0.00    -0.014 A 
ATOM     33  C   UNL     1       2.366   3.924  -0.223  0.00  0.00    +0.054 A 
ENDBRANCH  23  24
ENDBRANCH  22  23
ENDBRANCH   1  22
TORSDOF 6
