REMARK  Name = ZINC00694476
REMARK  7 active torsions:
REMARK  status: ('A' for Active; 'I' for Inactive)
REMARK    1  A    between atoms: C_1  and  C_2
REMARK    2  A    between atoms: C_2  and  O_3
REMARK    3  A    between atoms: O_3  and  C_4
REMARK    4  A    between atoms: C_4  and  C_6
REMARK    5  A    between atoms: C_10  and  N_11
REMARK    6  A    between atoms: C_12  and  C_14
REMARK    7  A    between atoms: C_20  and  C_22
REMARK                            x       y       z     vdW  Elec       q    Type
REMARK                         _______ _______ _______ _____ _____    ______ ____
ROOT
ATOM      1  C   UNL     1      -5.315   1.125  -3.138  0.00  0.00    +0.091 A 
ATOM      2  C   UNL     1      -6.619   0.492  -2.910  0.00  0.00    -0.021 A 
ATOM      3  C   UNL     1      -6.692  -0.207  -1.763  0.00  0.00    -0.004 A 
ATOM      4  S   UNL     1      -5.074  -0.110  -1.042  0.00  0.00    -0.077 S 
ATOM      5  C   UNL     1      -4.311   0.911  -2.212  0.00  0.00    +0.086 A 
ATOM      6  C   UNL     1      -7.879  -0.917  -1.175  0.00  0.00    +0.043 C 
ATOM      7  C   UNL     1      -8.761   0.154  -0.507  0.00  0.00    +0.005 C 
ATOM      8  C   UNL     1      -9.066   1.239  -1.546  0.00  0.00    +0.000 C 
ATOM      9  C   UNL     1      -9.833   0.538  -2.648  0.00  0.00    +0.000 C 
ATOM     10  C   UNL     1      -8.949  -0.174  -3.656  0.00  0.00    +0.005 C 
ATOM     11  C   UNL     1      -7.694   0.622  -3.989  0.00  0.00    +0.037 C 
ENDROOT
BRANCH   5  12
ATOM     12  N   UNL     1      -3.010   1.391  -2.222  0.00  0.00    -0.279 N 
ATOM     13  C   UNL     1      -2.167   1.071  -1.221  0.00  0.00    +0.221 C 
ATOM     14  O   UNL     1      -2.545   0.364  -0.311  0.00  0.00    -0.275 OA
ATOM     15  H   UNL     1      -2.708   1.957  -2.949  0.00  0.00    +0.155 HD
BRANCH  13  16
ATOM     16  C   UNL     1      -0.753   1.593  -1.232  0.00  0.00    +0.089 C 
ATOM     17  C   UNL     1      -0.037   1.099  -2.490  0.00  0.00    +0.013 C 
ATOM     18  C   UNL     1       1.399   1.629  -2.501  0.00  0.00    +0.001 C 
ATOM     19  C   UNL     1       2.139   1.122  -1.262  0.00  0.00    +0.001 C 
ATOM     20  C   UNL     1       1.423   1.615  -0.003  0.00  0.00    +0.015 C 
ATOM     21  C   UNL     1      -0.013   1.086   0.008  0.00  0.00    +0.114 C 
BRANCH  21  22
ATOM     22  C   UNL     1      -0.718   1.572   1.248  0.00  0.00    +0.360 C 
ATOM     23  O   UNL     1      -1.711   2.254   1.150  0.00  0.00    -0.246 OA
ATOM     24  O   UNL     1      -0.243   1.247   2.461  0.00  0.00    -0.246 OA
ENDBRANCH  21  22
ENDBRANCH  13  16
ENDBRANCH   5  12
BRANCH   1  25
ATOM     25  C   UNL     1      -5.083   1.964  -4.316  0.00  0.00    +0.342 C 
ATOM     26  O   UNL     1      -4.670   1.465  -5.346  0.00  0.00    -0.245 OA
BRANCH  25  27
ATOM     27  O   UNL     1      -5.328   3.289  -4.260  0.00  0.00    -0.461 OA
BRANCH  27  29
ATOM     28  C   UNL     1      -5.408   5.529  -5.211  0.00  0.00    +0.048 C 
ATOM     29  C   UNL     1      -5.075   4.058  -5.465  0.00  0.00    +0.229 C 
ENDBRANCH  27  29
ENDBRANCH  25  27
ENDBRANCH   1  25
TORSDOF 6
