REMARK  Name = ZINC25377741
REMARK  5 active torsions:
REMARK  status: ('A' for Active; 'I' for Inactive)
REMARK    1  A    between atoms: C_4  and  S_7
REMARK    2  A    between atoms: S_7  and  N_10
REMARK    3  A    between atoms: N_10  and  C_11
REMARK    4  A    between atoms: C_14  and  C_17
REMARK    5  A    between atoms: N_19  and  C_20
REMARK                            x       y       z     vdW  Elec       q    Type
REMARK                         _______ _______ _______ _____ _____    ______ ____
ROOT
ATOM      1  C   UNL     1       4.460  -0.103  -2.478  0.00  0.00    +0.048 A 
ATOM      2  C   UNL     1       3.711   1.068  -2.395  0.00  0.00    +0.025 A 
ATOM      3  C   UNL     1       3.942   2.098  -3.278  0.00  0.00    +0.015 A 
ATOM      4  C   UNL     1       4.923   1.964  -4.264  0.00  0.00    +0.037 A 
ATOM      5  C   UNL     1       5.670   0.785  -4.348  0.00  0.00    +0.015 A 
ATOM      6  C   UNL     1       5.437  -0.240  -3.459  0.00  0.00    +0.025 A 
ENDROOT
BRANCH   4   7
ATOM      7  C   UNL     1       5.170   3.064  -5.216  0.00  0.00    +0.248 C 
ATOM      8  O   UNL     1       6.024   2.945  -6.074  0.00  0.00    -0.270 OA
ATOM      9  N   UNL     1       4.449   4.199  -5.134  0.00  0.00    -0.281 N 
ATOM     10  H   UNL     1       3.626   4.278  -4.409  0.00  0.00    +0.155 HD
BRANCH   9  11
ATOM     11  C   UNL     1       4.748   5.279  -5.972  0.00  0.00    +0.035 A 
ATOM     12  C   UNL     1       4.608   6.581  -5.507  0.00  0.00    +0.025 A 
ATOM     13  C   UNL     1       4.908   7.645  -6.334  0.00  0.00    +0.023 A 
ATOM     14  C   UNL     1       5.339   7.417  -7.629  0.00  0.00    +0.059 A 
ATOM     15  C   UNL     1       5.475   6.121  -8.098  0.00  0.00    +0.061 A 
ATOM     16  C   UNL     1       5.181   5.052  -7.272  0.00  0.00    +0.044 A 
ATOM     17 CL   UNL     1       6.015   5.838  -9.723  0.00  0.00    -0.082 Cl
ATOM     18 CL   UNL     1       5.710   8.757  -8.668  0.00  0.00    -0.082 Cl
ENDBRANCH   9  11
ENDBRANCH   4   7
BRANCH   1  19
ATOM     19  N   UNL     1       4.226  -1.140  -1.581  0.00  0.00    -0.216 N 
ATOM     20  H   UNL     1       3.325  -1.763  -1.683  0.00  0.00    +0.174 HD
BRANCH  19  21
ATOM     21  S   UNL     1       5.305  -1.438  -0.361  0.00  0.00    +0.072 S 
ATOM     22  O   UNL     1       6.590  -1.508  -0.963  0.00  0.00    -0.150 OA
ATOM     23  O   UNL     1       4.765  -2.504   0.408  0.00  0.00    -0.150 OA
BRANCH  21  27
ATOM     24  C   UNL     1       5.331   2.209   2.321  0.00  0.00    +0.000 A 
ATOM     25  C   UNL     1       6.274   2.082   1.318  0.00  0.00    +0.002 A 
ATOM     26  C   UNL     1       6.266   0.968   0.499  0.00  0.00    +0.029 A 
ATOM     27  C   UNL     1       5.315  -0.019   0.683  0.00  0.00    +0.108 A 
ATOM     28  C   UNL     1       4.373   0.108   1.687  0.00  0.00    +0.029 A 
ATOM     29  C   UNL     1       4.381   1.222   2.505  0.00  0.00    +0.002 A 
ENDBRANCH  21  27
ENDBRANCH  19  21
ENDBRANCH   1  19
TORSDOF 5
