REMARK  Name = ZINC15675656
REMARK  4 active torsions:
REMARK  status: ('A' for Active; 'I' for Inactive)
REMARK    1  A    between atoms: C_6  and  C_11
REMARK    2  A    between atoms: C_13  and  C_16
REMARK    3  A    between atoms: N_26  and  C_27
REMARK    4  A    between atoms: C_27  and  C_28
REMARK                            x       y       z     vdW  Elec       q    Type
REMARK                         _______ _______ _______ _____ _____    ______ ____
ROOT
ATOM      1  C   UNL     1       6.982  -5.742  -0.102  0.00  0.00    +0.152 C 
ATOM      2  C   UNL     1       7.532  -6.084   1.290  0.00  0.00    +0.083 C 
ATOM      3  C   UNL     1       8.328  -7.361   1.172  0.00  0.00    +0.040 A 
ATOM      4  C   UNL     1       8.748  -7.861  -0.013  0.00  0.00    +0.051 A 
ATOM      5  N   UNL     1       9.425  -9.008   0.256  0.00  0.00    -0.349 N 
ATOM      6  H   UNL     1       9.845  -9.596  -0.391  0.00  0.00    +0.166 HD
ATOM      7  C   UNL     1       9.401  -9.177   1.599  0.00  0.00    +0.171 A 
ATOM      8  N   UNL     1       8.741  -8.183   2.137  0.00  0.00    -0.349 N 
ATOM      9  C   UNL     1       8.477  -7.205  -1.341  0.00  0.00    +0.140 C 
ATOM     10  N   UNL     1       8.066  -5.812  -1.092  0.00  0.00    -0.281 NA
ATOM     11  H   UNL     1       8.579  -8.063   3.086  0.00  0.00    +0.166 HD
ENDROOT
BRANCH   1  14
ATOM     12  C   UNL     1       4.983  -2.713  -0.059  0.00  0.00    +0.202 A 
ATOM     13  N   UNL     1       5.140  -4.049  -0.072  0.00  0.00    -0.190 NA
ATOM     14  C   UNL     1       6.407  -4.349  -0.085  0.00  0.00    +0.245 A 
ATOM     15  O   UNL     1       7.113  -3.211  -0.079  0.00  0.00    -0.336 OA
ATOM     16  N   UNL     1       6.167  -2.152  -0.068  0.00  0.00    -0.056 NA
BRANCH  12  22
ATOM     17  C   UNL     1      -0.016   1.357   0.009  0.00  0.00    +0.001 A 
ATOM     18  C   UNL     1       1.168   2.091   0.002  0.00  0.00    +0.001 A 
ATOM     19  C   UNL     1       2.378   1.468  -0.013  0.00  0.00    +0.008 A 
ATOM     20  C   UNL     1       2.437   0.063  -0.021  0.00  0.00    -0.017 A 
ATOM     21  C   UNL     1       3.668  -0.612  -0.035  0.00  0.00    +0.020 A 
ATOM     22  C   UNL     1       3.685  -1.994  -0.043  0.00  0.00    +0.023 A 
ATOM     23  C   UNL     1       2.485  -2.723  -0.035  0.00  0.00    +0.012 A 
ATOM     24  C   UNL     1       1.284  -2.089  -0.021  0.00  0.00    +0.009 A 
ATOM     25  C   UNL     1       1.232  -0.684  -0.013  0.00  0.00    -0.018 A 
ATOM     26  C   UNL     1       0.002  -0.004   0.002  0.00  0.00    +0.008 A 
ENDBRANCH  12  22
ENDBRANCH   1  14
BRANCH  10  27
ATOM     27  C   UNL     1       7.679  -5.146  -2.343  0.00  0.00    +0.120 C 
BRANCH  27  28
ATOM     28  C   UNL     1       8.885  -5.020  -3.238  0.00  0.00    -0.033 A 
ATOM     29  C   UNL     1       9.693  -3.901  -3.156  0.00  0.00    +0.008 A 
ATOM     30  C   UNL     1      10.799  -3.785  -3.976  0.00  0.00    +0.038 A 
ATOM     31  C   UNL     1      11.098  -4.790  -4.880  0.00  0.00    +0.123 A 
ATOM     32  C   UNL     1      10.288  -5.910  -4.962  0.00  0.00    +0.038 A 
ATOM     33  C   UNL     1       9.186  -6.026  -4.137  0.00  0.00    +0.008 A 
ATOM     34  F   UNL     1      12.179  -4.677  -5.683  0.00  0.00    -0.205 F 
ENDBRANCH  27  28
ENDBRANCH  10  27
TORSDOF 4
