REMARK  Name = ZINC39920549
REMARK  7 active torsions:
REMARK  status: ('A' for Active; 'I' for Inactive)
REMARK    1  A    between atoms: C_1  and  C_2
REMARK    2  A    between atoms: C_7  and  O_8
REMARK    3  A    between atoms: O_8  and  C_9
REMARK    4  A    between atoms: C_9  and  C_11
REMARK    5  A    between atoms: C_9  and  C_12
REMARK    6  A    between atoms: N_14  and  N_15
REMARK    7  A    between atoms: C_16  and  C_28
REMARK                            x       y       z     vdW  Elec       q    Type
REMARK                         _______ _______ _______ _____ _____    ______ ____
ROOT
ATOM      1  N   UNL     1       1.236   0.066   6.996  0.00  0.00    -0.191 N 
ATOM      2  C   UNL     1       2.600  -0.249   7.421  0.00  0.00    +0.212 C 
ATOM      3  N   UNL     1       3.257   0.950   7.955  0.00  0.00    -0.320 N 
ATOM      4  C   UNL     1       2.542   1.767   8.825  0.00  0.00    +0.041 A 
ATOM      5  C   UNL     1       3.167   2.511   9.811  0.00  0.00    +0.025 A 
ATOM      6  C   UNL     1       2.409   3.305  10.651  0.00  0.00    +0.017 A 
ATOM      7  C   UNL     1       1.030   3.362  10.514  0.00  0.00    +0.019 A 
ATOM      8  C   UNL     1       0.393   2.627   9.535  0.00  0.00    +0.030 A 
ATOM      9  C   UNL     1       1.144   1.824   8.681  0.00  0.00    +0.060 A 
ATOM     10  C   UNL     1       0.518   1.029   7.610  0.00  0.00    +0.267 C 
ATOM     11  O   UNL     1      -0.636   1.236   7.286  0.00  0.00    -0.268 OA
ATOM     12 BR   UNL     1       0.016   4.454  11.678  0.00  0.00    -0.050 Br
ATOM     13  H   UNL     1       4.169   1.168   7.707  0.00  0.00    +0.148 HD
ENDROOT
BRANCH   2  14
ATOM     14  C   UNL     1       2.556  -1.309   8.492  0.00  0.00    -0.008 A 
ATOM     15  C   UNL     1       1.537  -2.243   8.500  0.00  0.00    +0.007 A 
ATOM     16  C   UNL     1       1.497  -3.214   9.482  0.00  0.00    +0.000 A 
ATOM     17  C   UNL     1       2.477  -3.253  10.457  0.00  0.00    +0.000 A 
ATOM     18  C   UNL     1       3.497  -2.319  10.449  0.00  0.00    +0.000 A 
ATOM     19  C   UNL     1       3.539  -1.350   9.464  0.00  0.00    +0.007 A 
ENDBRANCH   2  14
BRANCH   1  22
ATOM     20  C   UNL     1       0.548  -0.056   4.721  0.00  0.00    +0.270 C 
ATOM     21  O   UNL     1       0.931   1.083   4.558  0.00  0.00    -0.270 OA
ATOM     22  N   UNL     1       0.668  -0.641   5.929  0.00  0.00    -0.227 N 
ATOM     23  H   UNL     1       0.361  -1.552   6.059  0.00  0.00    +0.173 HD
BRANCH  20  24
ATOM     24  C   UNL     1      -0.064  -0.817   3.572  0.00  0.00    +0.257 C 
ATOM     25  C   UNL     1      -1.533  -1.111   3.880  0.00  0.00    +0.062 C 
BRANCH  24  26
ATOM     26  O   UNL     1       0.025  -0.033   2.381  0.00  0.00    -0.480 OA
BRANCH  26  33
ATOM     27  C   UNL     1       0.428   1.474   0.026  0.00  0.00    +0.047 C 
ATOM     28  C   UNL     1       0.216  -0.018   0.009  0.00  0.00    -0.009 A 
ATOM     29  C   UNL     1       0.219  -0.704  -1.190  0.00  0.00    +0.007 A 
ATOM     30  C   UNL     1       0.024  -2.072  -1.206  0.00  0.00    +0.000 A 
ATOM     31  C   UNL     1      -0.174  -2.758  -0.021  0.00  0.00    +0.004 A 
ATOM     32  C   UNL     1      -0.178  -2.077   1.180  0.00  0.00    +0.046 A 
ATOM     33  C   UNL     1       0.023  -0.705   1.199  0.00  0.00    +0.124 A 
ENDBRANCH  26  33
ENDBRANCH  24  26
ENDBRANCH  20  24
ENDBRANCH   1  22
TORSDOF 5
