REMARK  Name = ZINC09033171
REMARK  5 active torsions:
REMARK  status: ('A' for Active; 'I' for Inactive)
REMARK    1  A    between atoms: C_1  and  O_2
REMARK    2  A    between atoms: O_2  and  C_3
REMARK    3  A    between atoms: C_3  and  C_5
REMARK    4  A    between atoms: C_10  and  N_11
REMARK    5  A    between atoms: C_26  and  C_32
REMARK                            x       y       z     vdW  Elec       q    Type
REMARK                         _______ _______ _______ _____ _____    ______ ____
ROOT
ATOM      1  N   UNL     1      -0.043  -2.853   0.186  0.00  0.00    -0.209 N 
ATOM      2  C   UNL     1       0.460  -3.305   1.346  0.00  0.00    +0.232 C 
ATOM      3  O   UNL     1      -0.113  -3.310   2.414  0.00  0.00    -0.274 OA
ATOM      4  C   UNL     1       1.869  -3.814   1.090  0.00  0.00    +0.113 C 
ATOM      5  C   UNL     1       2.839  -2.638   1.263  0.00  0.00    +0.100 C 
ATOM      6  C   UNL     1       3.741  -2.840   2.452  0.00  0.00    -0.021 A 
ATOM      7  C   UNL     1       3.294  -3.476   3.587  0.00  0.00    +0.006 A 
ATOM      8  C   UNL     1       4.149  -3.651   4.663  0.00  0.00    +0.000 A 
ATOM      9  C   UNL     1       5.452  -3.188   4.602  0.00  0.00    +0.001 A 
ATOM     10  C   UNL     1       5.911  -2.547   3.470  0.00  0.00    +0.008 A 
ATOM     11  C   UNL     1       5.057  -2.365   2.381  0.00  0.00    -0.019 A 
ATOM     12  C   UNL     1       5.537  -1.677   1.165  0.00  0.00    +0.022 C 
ATOM     13  C   UNL     1       4.850  -1.811   0.013  0.00  0.00    +0.054 C 
ATOM     14  C   UNL     1       3.194  -3.514  -0.941  0.00  0.00    +0.155 C 
ATOM     15  C   UNL     1       1.839  -4.043  -0.452  0.00  0.00    +0.118 C 
ATOM     16  C   UNL     1       0.722  -3.118  -0.885  0.00  0.00    +0.232 C 
ATOM     17  O   UNL     1       0.549  -2.689  -2.006  0.00  0.00    -0.274 OA
ATOM     18  N   UNL     1       3.439  -2.371  -0.021  0.00  0.00    -0.383 NA
ATOM     19  H   UNL     1       2.881  -1.601  -0.410  0.00  0.00    +0.127 HD
ENDROOT
BRANCH   1  25
ATOM     20  C   UNL     1      -2.461  -2.868  -0.014  0.00  0.00    +0.081 A 
ATOM     21  C   UNL     1      -3.666  -2.165  -0.091  0.00  0.00    +0.017 A 
ATOM     22  C   UNL     1      -3.662  -0.787  -0.058  0.00  0.00    +0.001 A 
ATOM     23  C   UNL     1      -2.467  -0.094   0.051  0.00  0.00    +0.002 A 
ATOM     24  C   UNL     1      -1.268  -0.775   0.128  0.00  0.00    +0.025 A 
ATOM     25  C   UNL     1      -1.254  -2.163   0.102  0.00  0.00    +0.058 A 
BRANCH  20  26
ATOM     26  C   UNL     1      -2.458  -4.342  -0.049  0.00  0.00    +0.341 C 
ATOM     27  O   UNL     1      -1.405  -4.947  -0.084  0.00  0.00    -0.245 OA
BRANCH  26  29
ATOM     28  C   UNL     1      -3.545  -6.467  -0.077  0.00  0.00    +0.280 C 
ATOM     29  O   UNL     1      -3.624  -5.018  -0.041  0.00  0.00    -0.464 OA
ENDBRANCH  26  29
ENDBRANCH  20  26
ENDBRANCH   1  25
BRANCH  14  30
ATOM     30  C   UNL     1       3.017  -2.789  -2.250  0.00  0.00    +0.230 C 
ATOM     31  O   UNL     1       2.964  -1.578  -2.270  0.00  0.00    -0.274 OA
ATOM     32  N   UNL     1       2.918  -3.487  -3.399  0.00  0.00    -0.328 N 
ATOM     33  H   UNL     1       2.961  -4.456  -3.383  0.00  0.00    +0.145 HD
ATOM     34  H   UNL     1       2.804  -3.021  -4.242  0.00  0.00    +0.145 HD
ENDBRANCH  14  30
TORSDOF 4
