REMARK  Name = ZINC13691367
REMARK  5 active torsions:
REMARK  status: ('A' for Active; 'I' for Inactive)
REMARK    1  A    between atoms: C_5  and  N_7
REMARK    2  A    between atoms: C_8  and  C_10
REMARK    3  A    between atoms: N_12  and  C_13
REMARK    4  A    between atoms: C_13  and  C_14
REMARK    5  A    between atoms: C_14  and  C_15
REMARK                            x       y       z     vdW  Elec       q    Type
REMARK                         _______ _______ _______ _____ _____    ______ ____
ROOT
ATOM      1  C   UNL     1       7.485   1.500  -2.663  0.00  0.00    +0.299 C 
ATOM      2  O   UNL     1       6.860   1.510  -3.703  0.00  0.00    -0.265 OA
ATOM      3  N   UNL     1       6.848   1.698  -1.492  0.00  0.00    -0.307 N 
ATOM      4  H   UNL     1       7.348   1.690  -0.660  0.00  0.00    +0.149 HD
ENDROOT
BRANCH   1   6
ATOM      5  N   UNL     1       9.597   1.069  -3.852  0.00  0.00    -0.276 N 
ATOM      6  C   UNL     1       8.960   1.267  -2.680  0.00  0.00    +0.303 C 
ATOM      7  O   UNL     1       9.585   1.257  -1.640  0.00  0.00    -0.265 OA
ATOM      8  H   UNL     1       9.089   1.012  -4.676  0.00  0.00    +0.155 HD
BRANCH   5  13
ATOM      9  C   UNL     1      13.038   0.201  -2.855  0.00  0.00    +0.004 A 
ATOM     10  C   UNL     1      13.817   0.659  -3.867  0.00  0.00    +0.033 A 
ATOM     11  C   UNL     1      13.231   1.302  -4.972  0.00  0.00    +0.136 A 
ATOM     12  C   UNL     1      11.754   1.459  -5.003  0.00  0.00    +0.155 A 
ATOM     13  C   UNL     1      10.983   0.946  -3.878  0.00  0.00    +0.065 A 
ATOM     14  C   UNL     1      11.648   0.337  -2.852  0.00  0.00    +0.026 A 
ATOM     15  N   UNL     1      11.551   2.083  -6.133  0.00  0.00    -0.047 NA
ATOM     16  O   UNL     1      12.618   2.269  -6.683  0.00  0.00    -0.242 OA
ATOM     17  N   UNL     1      13.602   1.861  -6.098  0.00  0.00    -0.049 NA
ENDBRANCH   5  13
ENDBRANCH   1   6
BRANCH   3  18
ATOM     18  C   UNL     1       5.401   1.926  -1.474  0.00  0.00    +0.109 C 
BRANCH  18  19
ATOM     19  C   UNL     1       4.933   2.121  -0.030  0.00  0.00    +0.056 C 
BRANCH  19  20
ATOM     20  C   UNL     1       3.445   2.355  -0.013  0.00  0.00    -0.021 A 
ATOM     21  C   UNL     1       2.824   3.545   0.002  0.00  0.00    +0.087 A 
ATOM     22  N   UNL     1       1.468   3.364   0.015  0.00  0.00    -0.360 N 
ATOM     23  H   UNL     1       0.810   4.078   0.027  0.00  0.00    +0.165 HD
ATOM     24  C   UNL     1       1.175   2.018   0.010  0.00  0.00    +0.047 A 
ATOM     25  C   UNL     1       2.401   1.328  -0.007  0.00  0.00    +0.004 A 
ATOM     26  C   UNL     1       2.414  -0.068  -0.016  0.00  0.00    +0.030 A 
ATOM     27  C   UNL     1       1.223  -0.761  -0.007  0.00  0.00    +0.042 A 
ATOM     28  C   UNL     1       0.014  -0.078   0.010  0.00  0.00    +0.022 A 
ATOM     29  C   UNL     1      -0.015   1.299   0.018  0.00  0.00    +0.027 A 
ATOM     30 CL   UNL     1       1.234  -2.497  -0.018  0.00  0.00    -0.084 Cl
ENDBRANCH  19  20
ENDBRANCH  18  19
ENDBRANCH   3  18
TORSDOF 5
