REMARK  Name = ZINC11981113
REMARK  12 active torsions:
REMARK  status: ('A' for Active; 'I' for Inactive)
REMARK    1  A    between atoms: C_1  and  O_2
REMARK    2  A    between atoms: O_2  and  C_3
REMARK    3  A    between atoms: C_3  and  C_4
REMARK    4  A    between atoms: C_4  and  N_5
REMARK    5  A    between atoms: N_5  and  C_6
REMARK    6  A    between atoms: C_6  and  C_7
REMARK    7  A    between atoms: C_15  and  N_16
REMARK    8  A    between atoms: C_20  and  C_23
REMARK    9  A    between atoms: C_23  and  O_24
REMARK   10  A    between atoms: C_26  and  C_28
REMARK   11  A    between atoms: C_33  and  O_34
REMARK   12  A    between atoms: O_34  and  C_35
REMARK                            x       y       z     vdW  Elec       q    Type
REMARK                         _______ _______ _______ _____ _____    ______ ____
ROOT
ATOM      1  C   UNL     1       4.261   7.408  -0.651  0.00  0.00    +0.008 A 
ATOM      2  C   UNL     1       5.304   8.281  -0.740  0.00  0.00    +0.018 A 
ATOM      3  C   UNL     1       6.564   7.779  -1.126  0.00  0.00    -0.001 A 
ATOM      4  C   UNL     1       7.681   8.623  -1.237  0.00  0.00    +0.011 A 
ATOM      5  C   UNL     1       8.882   8.104  -1.613  0.00  0.00    +0.021 A 
ATOM      6  C   UNL     1       9.018   6.744  -1.889  0.00  0.00    +0.043 A 
ATOM      7  C   UNL     1       7.955   5.898  -1.791  0.00  0.00    +0.046 A 
ATOM      8  C   UNL     1       6.699   6.398  -1.406  0.00  0.00    +0.049 A 
ATOM      9  C   UNL     1       4.459   6.051  -0.941  0.00  0.00    +0.104 A 
ATOM     10 CL   UNL     1      10.566   6.120  -2.366  0.00  0.00    -0.083 Cl
ATOM     11  N   UNL     1       5.648   5.513  -1.311  0.00  0.00    -0.343 N 
ATOM     12  H   UNL     1       5.757   4.511  -1.507  0.00  0.00    +0.167 HD
ENDROOT
BRANCH   9  13
ATOM     13  N   UNL     1       3.389   5.175  -0.846  0.00  0.00    -0.316 N 
ATOM     14  C   UNL     1       3.853   3.791  -0.688  0.00  0.00    +0.106 C 
ATOM     15  C   UNL     1       2.653   2.874  -0.441  0.00  0.00    +0.019 C 
ATOM     16  C   UNL     1       1.688   2.975  -1.625  0.00  0.00    +0.009 C 
ATOM     17  C   UNL     1       1.257   4.434  -1.799  0.00  0.00    +0.032 C 
ATOM     18  C   UNL     1       2.497   5.306  -2.006  0.00  0.00    +0.112 C 
BRANCH  17  19
ATOM     19  C   UNL     1       0.339   4.554  -3.017  0.00  0.00    +0.160 C 
BRANCH  19  20
ATOM     20  O   UNL     1      -0.871   3.833  -2.774  0.00  0.00    -0.395 OA
ATOM     21  H   UNL     1      -1.502   3.866  -3.506  0.00  0.00    +0.209 HD
ENDBRANCH  19  20
ENDBRANCH  17  19
ENDBRANCH   9  13
BRANCH   1  22
ATOM     22  C   UNL     1       2.898   7.902  -0.242  0.00  0.00    +0.146 C 
BRANCH  22  23
ATOM     23  N   UNL     1       2.972   9.327   0.086  0.00  0.00    -0.291 N 
ATOM     24  C   UNL     1       2.645  10.250  -0.840  0.00  0.00    +0.250 C 
ATOM     25  O   UNL     1       2.359   9.903  -1.969  0.00  0.00    -0.270 OA
BRANCH  24  26
ATOM     26  C   UNL     1       2.633  11.682  -0.483  0.00  0.00    +0.078 A 
ATOM     27  C   UNL     1       3.757  12.269   0.102  0.00  0.00    +0.017 A 
ATOM     28  C   UNL     1       3.741  13.608   0.429  0.00  0.00    +0.001 A 
ATOM     29  C   UNL     1       2.611  14.372   0.189  0.00  0.00    +0.004 A 
ATOM     30  C   UNL     1       1.491  13.803  -0.384  0.00  0.00    +0.046 A 
ATOM     31  C   UNL     1       1.491  12.458  -0.724  0.00  0.00    +0.132 A 
BRANCH  31  32
ATOM     32  O   UNL     1       0.392  11.898  -1.287  0.00  0.00    -0.494 OA
ATOM     33  C   UNL     1      -0.734  12.751  -1.502  0.00  0.00    +0.277 C 
ENDBRANCH  31  32
ENDBRANCH  24  26
BRANCH  23  34
ATOM     34  C   UNL     1       3.403   9.750   1.421  0.00  0.00    +0.136 C 
BRANCH  34  35
ATOM     35  C   UNL     1       2.174   9.991   2.301  0.00  0.00    +0.178 C 
BRANCH  35  37
ATOM     36  C   UNL     1       0.327   8.867   3.335  0.00  0.00    +0.194 C 
ATOM     37  O   UNL     1       1.495   8.752   2.520  0.00  0.00    -0.381 OA
ENDBRANCH  35  37
ENDBRANCH  34  35
ENDBRANCH  23  34
ENDBRANCH  22  23
ENDBRANCH   1  22
TORSDOF 10
