REMARK  Name = ZINC22748106
REMARK  8 active torsions:
REMARK  status: ('A' for Active; 'I' for Inactive)
REMARK    1  A    between atoms: C_1  and  C_2
REMARK    2  A    between atoms: C_5  and  C_9
REMARK    3  A    between atoms: C_12  and  C_14
REMARK    4  A    between atoms: C_15  and  C_16
REMARK    5  A    between atoms: N_18  and  C_19
REMARK    6  A    between atoms: C_19  and  N_21
REMARK    7  A    between atoms: N_21  and  C_22
REMARK    8  A    between atoms: C_27  and  C_28
REMARK                            x       y       z     vdW  Elec       q    Type
REMARK                         _______ _______ _______ _____ _____    ______ ____
ROOT
ATOM      1  C   UNL     1      -0.659  -8.374  -3.925  0.00  0.00    +0.242 C 
ATOM      2  O   UNL     1      -0.999  -9.481  -3.549  0.00  0.00    -0.270 OA
ATOM      3  N   UNL     1      -0.274  -8.184  -5.202  0.00  0.00    -0.264 N 
ATOM      4  H   UNL     1      -0.003  -7.302  -5.501  0.00  0.00    +0.157 HD
ENDROOT
BRANCH   1   6
ATOM      5  C   UNL     1      -1.059  -7.478  -1.733  0.00  0.00    +0.051 C 
ATOM      6  C   UNL     1      -0.670  -7.287  -3.021  0.00  0.00    +0.071 C 
BRANCH   5  10
ATOM      7  C   UNL     1      -0.852  -4.361  -0.016  0.00  0.00    +0.136 A 
ATOM      8  C   UNL     1      -1.301  -5.156   1.014  0.00  0.00    +0.050 A 
ATOM      9  C   UNL     1      -1.441  -6.448   0.501  0.00  0.00    +0.050 A 
ATOM     10  C   UNL     1      -1.069  -6.392  -0.830  0.00  0.00    +0.129 A 
ATOM     11  O   UNL     1      -0.724  -5.120  -1.118  0.00  0.00    -0.455 OA
BRANCH   7  16
ATOM     12  C   UNL     1       0.267   1.272   0.330  0.00  0.00    +0.045 C 
ATOM     13  C   UNL     1      -0.026  -0.203   0.240  0.00  0.00    -0.032 A 
ATOM     14  C   UNL     1       0.150  -0.868  -0.961  0.00  0.00    +0.005 A 
ATOM     15  C   UNL     1      -0.116  -2.218  -1.051  0.00  0.00    +0.012 A 
ATOM     16  C   UNL     1      -0.564  -2.916   0.074  0.00  0.00    +0.019 A 
ATOM     17  C   UNL     1      -0.739  -2.239   1.283  0.00  0.00    +0.031 A 
ATOM     18  C   UNL     1      -0.464  -0.888   1.360  0.00  0.00    +0.045 A 
ATOM     19 CL   UNL     1      -0.675  -0.046   2.863  0.00  0.00    -0.083 Cl
ENDBRANCH   7  16
ENDBRANCH   5  10
ENDBRANCH   1   6
BRANCH   3  20
ATOM     20  C   UNL     1      -0.263  -9.221  -6.064  0.00  0.00    +0.141 C 
ATOM     21  S   UNL     1      -0.741 -10.778  -5.536  0.00  0.00    -0.018 S 
BRANCH  20  22
ATOM     22  N   UNL     1       0.122  -9.031  -7.341  0.00  0.00    -0.296 N 
ATOM     23  H   UNL     1       0.317  -8.136  -7.661  0.00  0.00    +0.154 HD
BRANCH  22  24
ATOM     24  C   UNL     1       0.243 -10.125  -8.205  0.00  0.00    +0.036 A 
ATOM     25  C   UNL     1       0.865 -11.289  -7.772  0.00  0.00    +0.024 A 
ATOM     26  C   UNL     1       0.983 -12.367  -8.626  0.00  0.00    +0.017 A 
ATOM     27  C   UNL     1       0.481 -12.289  -9.914  0.00  0.00    +0.018 A 
ATOM     28  C   UNL     1      -0.140 -11.131 -10.348  0.00  0.00    +0.020 A 
ATOM     29  C   UNL     1      -0.265 -10.052  -9.495  0.00  0.00    -0.028 A 
ATOM     30  C   UNL     1      -0.946  -8.793  -9.967  0.00  0.00    +0.046 C 
ATOM     31 BR   UNL     1       0.644 -13.767 -11.082  0.00  0.00    -0.050 Br
ENDBRANCH  22  24
ENDBRANCH  20  22
ENDBRANCH   3  20
TORSDOF 6
