REMARK  Name = ZINC12062559
REMARK  8 active torsions:
REMARK  status: ('A' for Active; 'I' for Inactive)
REMARK    1  A    between atoms: C_1  and  C_2
REMARK    2  A    between atoms: C_2  and  C_3
REMARK    3  A    between atoms: C_12  and  C_14
REMARK    4  A    between atoms: N_16  and  C_17
REMARK    5  A    between atoms: C_18  and  C_26
REMARK    6  A    between atoms: N_28  and  C_29
REMARK    7  A    between atoms: C_29  and  C_30
REMARK    8  A    between atoms: C_30  and  C_31
REMARK                            x       y       z     vdW  Elec       q    Type
REMARK                         _______ _______ _______ _____ _____    ______ ____
ROOT
ATOM      1  C   UNL     1      -2.503  -2.763   0.012  0.00  0.00    +0.085 A 
ATOM      2  C   UNL     1      -2.719  -4.135   0.001  0.00  0.00    +0.069 A 
ATOM      3  C   UNL     1      -4.095  -4.598   0.019  0.00  0.00    -0.023 A 
ATOM      4  C   UNL     1      -5.030  -3.623   0.032  0.00  0.00    -0.004 A 
ATOM      5  S   UNL     1      -4.109  -2.112   0.031  0.00  0.00    -0.077 S 
ATOM      6  C   UNL     1      -6.518  -3.799   0.045  0.00  0.00    +0.043 C 
ATOM      7  C   UNL     1      -6.837  -5.251  -0.337  0.00  0.00    +0.005 C 
ATOM      8  C   UNL     1      -5.945  -6.185   0.486  0.00  0.00    +0.005 C 
ATOM      9  C   UNL     1      -4.494  -6.069   0.016  0.00  0.00    +0.037 C 
ENDROOT
BRANCH   1  12
ATOM     10  C   UNL     1      -1.287  -0.733   0.011  0.00  0.00    +0.284 C 
ATOM     11  O   UNL     1      -2.334  -0.117   0.025  0.00  0.00    -0.266 OA
ATOM     12  N   UNL     1      -1.299  -2.081   0.004  0.00  0.00    -0.273 N 
ATOM     13  H   UNL     1      -0.463  -2.573  -0.007  0.00  0.00    +0.156 HD
BRANCH  10  23
ATOM     14  C   UNL     1       4.870   1.059  -0.040  0.00  0.00    -0.047 A 
ATOM     15  C   UNL     1       4.752  -0.324  -0.046  0.00  0.00    +0.007 A 
ATOM     16  C   UNL     1       3.512  -0.924  -0.037  0.00  0.00    +0.047 A 
ATOM     17  C   UNL     1       2.362  -0.140  -0.021  0.00  0.00    +0.139 A 
ATOM     18  C   UNL     1       2.491   1.259  -0.015  0.00  0.00    +0.064 A 
ATOM     19  C   UNL     1       3.755   1.849  -0.024  0.00  0.00    +0.019 A 
ATOM     20  C   UNL     1       1.263   2.076   0.001  0.00  0.00    +0.193 A 
ATOM     21  O   UNL     1       1.306   3.294   0.007  0.00  0.00    -0.287 OA
ATOM     22  C   UNL     1      -0.016   1.351   0.009  0.00  0.00    +0.103 A 
ATOM     23  C   UNL     1       0.002  -0.004   0.002  0.00  0.00    +0.194 A 
ATOM     24  O   UNL     1       1.142  -0.710  -0.013  0.00  0.00    -0.450 OA
BRANCH  14  26
ATOM     25  C   UNL     1       6.686   1.916  -1.496  0.00  0.00    +0.009 C 
ATOM     26  C   UNL     1       6.237   1.694  -0.050  0.00  0.00    +0.032 C 
ENDBRANCH  14  26
ENDBRANCH  10  23
ENDBRANCH   1  12
BRANCH   2  27
ATOM     27  C   UNL     1      -1.598  -5.080  -0.023  0.00  0.00    +0.247 C 
ATOM     28  O   UNL     1      -1.120  -5.483   1.021  0.00  0.00    -0.270 OA
ATOM     29  N   UNL     1      -1.098  -5.502  -1.201  0.00  0.00    -0.311 N 
ATOM     30  H   UNL     1      -1.479  -5.181  -2.033  0.00  0.00    +0.149 HD
BRANCH  29  31
ATOM     31  C   UNL     1       0.022  -6.447  -1.225  0.00  0.00    +0.109 C 
BRANCH  31  32
ATOM     32  C   UNL     1       0.393  -6.761  -2.675  0.00  0.00    +0.054 C 
BRANCH  32  33
ATOM     33  C   UNL     1       1.545  -7.732  -2.700  0.00  0.00    -0.046 A 
ATOM     34  C   UNL     1       2.845  -7.263  -2.717  0.00  0.00    +0.004 A 
ATOM     35  C   UNL     1       3.902  -8.154  -2.735  0.00  0.00    +0.000 A 
ATOM     36  C   UNL     1       3.658  -9.515  -2.745  0.00  0.00    +0.000 A 
ATOM     37  C   UNL     1       2.358  -9.984  -2.734  0.00  0.00    +0.000 A 
ATOM     38  C   UNL     1       1.301  -9.093  -2.711  0.00  0.00    +0.004 A 
ENDBRANCH  32  33
ENDBRANCH  31  32
ENDBRANCH  29  31
ENDBRANCH   2  27
TORSDOF 7
