REMARK  Name = ZINC64891377
REMARK  4 active torsions:
REMARK  status: ('A' for Active; 'I' for Inactive)
REMARK    1  A    between atoms: C_3  and  C_8
REMARK    2  A    between atoms: C_8  and  C_9
REMARK    3  A    between atoms: C_11  and  C_14
REMARK    4  A    between atoms: N_24  and  C_25
REMARK                            x       y       z     vdW  Elec       q    Type
REMARK                         _______ _______ _______ _____ _____    ______ ____
ROOT
ATOM      1  C   UNL     1       5.902   1.585   4.404  0.00  0.00    +0.025 A 
ATOM      2  C   UNL     1       6.558   0.372   4.191  0.00  0.00    +0.014 A 
ATOM      3  C   UNL     1       7.321  -0.188   5.192  0.00  0.00    +0.029 A 
ATOM      4  C   UNL     1       7.438   0.454   6.418  0.00  0.00    +0.070 A 
ATOM      5  C   UNL     1       6.784   1.670   6.636  0.00  0.00    +0.068 A 
ATOM      6  C   UNL     1       6.022   2.236   5.629  0.00  0.00    +0.039 A 
ATOM      7  N   UNL     1       7.088   2.061   7.939  0.00  0.00    -0.306 N 
ATOM      8  H   UNL     1       6.775   2.869   8.376  0.00  0.00    +0.170 HD
ATOM      9  C   UNL     1       7.889   1.128   8.485  0.00  0.00    +0.328 A 
ATOM     10  O   UNL     1       8.338   1.165   9.616  0.00  0.00    -0.247 OA
ATOM     11  N   UNL     1       8.118   0.147   7.592  0.00  0.00    -0.289 N 
ENDROOT
BRANCH   1  14
ATOM     12  C   UNL     1       4.116   2.436   1.397  0.00  0.00    +0.232 A 
ATOM     13  N   UNL     1       4.887   1.657   2.101  0.00  0.00    -0.191 NA
ATOM     14  C   UNL     1       5.082   2.185   3.323  0.00  0.00    +0.202 A 
ATOM     15  N   UNL     1       4.425   3.317   3.400  0.00  0.00    -0.056 NA
ATOM     16  O   UNL     1       3.790   3.499   2.143  0.00  0.00    -0.337 OA
BRANCH  12  17
ATOM     17  C   UNL     1       3.672   2.186  -0.021  0.00  0.00    +0.134 C 
BRANCH  17  20
ATOM     18  C   UNL     1      -0.017   1.377   0.010  0.00  0.00    +0.003 A 
ATOM     19  C   UNL     1       1.171   2.086   0.002  0.00  0.00    +0.004 A 
ATOM     20  C   UNL     1       2.378   1.413  -0.013  0.00  0.00    -0.036 A 
ATOM     21  C   UNL     1       2.399   0.030  -0.021  0.00  0.00    +0.042 A 
ATOM     22  C   UNL     1       1.211  -0.679  -0.013  0.00  0.00    +0.124 A 
ATOM     23  C   UNL     1       0.002  -0.004   0.002  0.00  0.00    +0.038 A 
ATOM     24  F   UNL     1       1.230  -2.030  -0.022  0.00  0.00    -0.205 F 
ENDBRANCH  17  20
ENDBRANCH  12  17
ENDBRANCH   1  14
BRANCH  11  25
ATOM     25  C   UNL     1       8.942  -1.043   7.819  0.00  0.00    +0.092 C 
ATOM     26  C   UNL     1       8.416  -1.825   9.040  0.00  0.00    +0.025 C 
ATOM     27  C   UNL     1       9.697  -2.352   9.734  0.00  0.00    +0.002 C 
ATOM     28  C   UNL     1      10.687  -1.173   9.563  0.00  0.00    +0.002 C 
ATOM     29  C   UNL     1      10.386  -0.628   8.152  0.00  0.00    +0.025 C 
ENDBRANCH  11  25
TORSDOF 4
