REMARK  Name = ZINC20906421
REMARK  11 active torsions:
REMARK  status: ('A' for Active; 'I' for Inactive)
REMARK    1  A    between atoms: C_1  and  C_2
REMARK    2  A    between atoms: C_2  and  O_3
REMARK    3  A    between atoms: O_3  and  C_4
REMARK    4  A    between atoms: C_4  and  C_6
REMARK    5  A    between atoms: C_10  and  N_11
REMARK    6  A    between atoms: C_12  and  C_14
REMARK    7  A    between atoms: C_14  and  S_15
REMARK    8  A    between atoms: S_15  and  C_16
REMARK    9  A    between atoms: N_21  and  N_22
REMARK   10  A    between atoms: C_23  and  C_24
REMARK   11  A    between atoms: C_28  and  O_30
REMARK                            x       y       z     vdW  Elec       q    Type
REMARK                         _______ _______ _______ _____ _____    ______ ____
ROOT
ATOM      1  C   UNL     1      -6.477  10.900   0.120  0.00  0.00    +0.173 C 
ENDROOT
BRANCH   1   3
ATOM      2  N   UNL     1      -8.587  12.190   0.147  0.00  0.00    -0.279 N 
ATOM      3  C   UNL     1      -7.239  12.200   0.134  0.00  0.00    +0.228 C 
ATOM      4  O   UNL     1      -6.641  13.255   0.134  0.00  0.00    -0.275 OA
ATOM      5  H   UNL     1      -9.130  11.234   0.148  0.00  0.00    +0.155 HD
BRANCH   2  10
ATOM      6  C   UNL     1     -10.664  13.579   0.169  0.00  0.00    +0.091 A 
ATOM      7  C   UNL     1     -11.149  14.949   0.187  0.00  0.00    -0.021 A 
ATOM      8  C   UNL     1     -10.189  15.899   0.182  0.00  0.00    -0.004 A 
ATOM      9  S   UNL     1      -8.663  15.001   0.162  0.00  0.00    -0.077 S 
ATOM     10  C   UNL     1      -9.289  13.386   0.160  0.00  0.00    +0.086 A 
ATOM     11  C   UNL     1     -10.387  17.384   0.190  0.00  0.00    +0.043 C 
ATOM     12  C   UNL     1     -11.850  17.678  -0.173  0.00  0.00    +0.005 C 
ATOM     13  C   UNL     1     -12.758  16.777   0.669  0.00  0.00    +0.005 C 
ATOM     14  C   UNL     1     -12.625  15.325   0.204  0.00  0.00    +0.037 C 
BRANCH   6  15
ATOM     15  C   UNL     1     -11.591  12.445   0.165  0.00  0.00    +0.342 C 
ATOM     16  O   UNL     1     -11.970  11.966   1.216  0.00  0.00    -0.245 OA
BRANCH  15  17
ATOM     17  O   UNL     1     -12.023  11.932  -1.005  0.00  0.00    -0.461 OA
BRANCH  17  19
ATOM     18  C   UNL     1     -13.318  10.367  -2.349  0.00  0.00    +0.048 C 
ATOM     19  C   UNL     1     -12.941  10.809  -0.933  0.00  0.00    +0.229 C 
ENDBRANCH  17  19
ENDBRANCH  15  17
ENDBRANCH   6  15
ENDBRANCH   2  10
ENDBRANCH   1   3
BRANCH   1  20
ATOM     20  S   UNL     1      -4.696  11.245   0.104  0.00  0.00    -0.075 S 
BRANCH  20  21
ATOM     21  C   UNL     1      -3.953   9.647   0.089  0.00  0.00    +0.211 A 
ATOM     22  N   UNL     1      -2.612   9.385   0.074  0.00  0.00    -0.186 NA
ATOM     23  C   UNL     1      -2.447   8.028   0.066  0.00  0.00    +0.232 A 
ATOM     24  N   UNL     1      -3.636   7.475   0.070  0.00  0.00    -0.245 N 
ATOM     25  N   UNL     1      -4.590   8.500   0.090  0.00  0.00    -0.144 NA
ATOM     26  N   UNL     1      -1.234   7.354   0.051  0.00  0.00    -0.205 N 
ATOM     27  H   UNL     1      -0.291   7.920   0.044  0.00  0.00    +0.177 HD
ATOM     28  H   UNL     1      -3.733   6.379   0.058  0.00  0.00    +0.192 HD
BRANCH  26  29
ATOM     29  N   UNL     1      -1.211   5.953   0.044  0.00  0.00    -0.188 NA
ATOM     30  C   UNL     1      -0.076   5.323   0.030  0.00  0.00    +0.138 C 
BRANCH  30  31
ATOM     31  C   UNL     1      -0.051   3.849   0.023  0.00  0.00    -0.002 A 
ATOM     32  C   UNL     1      -1.248   3.127   0.031  0.00  0.00    +0.010 A 
ATOM     33  C   UNL     1      -1.221   1.748   0.017  0.00  0.00    +0.004 A 
ATOM     34  C   UNL     1      -0.013   1.076   0.008  0.00  0.00    +0.045 A 
ATOM     35  C   UNL     1       1.182   1.784   0.000  0.00  0.00    +0.117 A 
ATOM     36  C   UNL     1       1.167   3.168   0.007  0.00  0.00    +0.054 A 
BRANCH  35  37
ATOM     37  O   UNL     1       2.366   1.117  -0.015  0.00  0.00    -0.507 OA
ATOM     38  H   UNL     1       3.313   1.677  -0.021  0.00  0.00    +0.292 HD
ENDBRANCH  35  37
ENDBRANCH  30  31
ENDBRANCH  26  29
ENDBRANCH  20  21
ENDBRANCH   1  20
TORSDOF 10
