REMARK  Name = ZINC22419133
REMARK  8 active torsions:
REMARK  status: ('A' for Active; 'I' for Inactive)
REMARK    1  A    between atoms: C_1  and  C_2
REMARK    2  A    between atoms: C_5  and  N_9
REMARK    3  A    between atoms: C_10  and  C_12
REMARK    4  A    between atoms: C_12  and  C_14
REMARK    5  A    between atoms: C_12  and  S_15
REMARK    6  A    between atoms: S_15  and  C_16
REMARK    7  A    between atoms: N_23  and  C_31
REMARK    8  A    between atoms: C_26  and  C_28
REMARK                            x       y       z     vdW  Elec       q    Type
REMARK                         _______ _______ _______ _____ _____    ______ ____
ROOT
ATOM      1  C   UNL     1       2.197   0.331   0.250  0.00  0.00    +0.116 A 
ATOM      2  C   UNL     1       1.128  -0.577   0.200  0.00  0.00    +0.116 A 
ATOM      3  C   UNL     1       1.323  -2.023   0.055  0.00  0.00    +0.288 A 
ATOM      4  O   UNL     1       2.439  -2.498  -0.031  0.00  0.00    -0.265 OA
ATOM      5  N   UNL     1       0.226  -2.812   0.019  0.00  0.00    -0.153 NA
ATOM      6  C   UNL     1      -1.008  -2.291   0.112  0.00  0.00    +0.353 A 
ATOM      7  O   UNL     1      -1.961  -3.044   0.074  0.00  0.00    -0.244 OA
ATOM      8  N   UNL     1      -1.236  -0.973   0.247  0.00  0.00    -0.273 N 
ATOM      9  C   UNL     1      -0.186  -0.081   0.295  0.00  0.00    +0.155 A 
ATOM     10  N   UNL     1      -0.368   1.226   0.427  0.00  0.00    -0.214 NA
ATOM     11  C   UNL     1       0.666   2.046   0.469  0.00  0.00    +0.136 A 
ATOM     12  N   UNL     1       1.913   1.627   0.385  0.00  0.00    -0.225 NA
ENDROOT
BRANCH  11  13
ATOM     13  C   UNL     1       0.410   3.523   0.619  0.00  0.00    +0.057 C 
ATOM     14  C   UNL     1       1.604   4.467   0.463  0.00  0.00    +0.012 C 
ATOM     15  C   UNL     1       0.999   4.221   1.847  0.00  0.00    +0.012 C 
ENDBRANCH  11  13
BRANCH   8  16
ATOM     16  C   UNL     1      -2.612  -0.479   0.343  0.00  0.00    +0.094 C 
ATOM     17  C   UNL     1      -2.926   0.526   1.452  0.00  0.00    +0.027 C 
ATOM     18  C   UNL     1      -3.435  -0.914   1.557  0.00  0.00    +0.027 C 
ENDBRANCH   8  16
BRANCH   1  19
ATOM     19  S   UNL     1       3.865  -0.225   0.137  0.00  0.00    -0.093 S 
BRANCH  19  20
ATOM     20  C   UNL     1       4.734   1.358   0.259  0.00  0.00    +0.136 C 
ATOM     21  C   UNL     1       4.490   1.968   1.641  0.00  0.00    +0.029 C 
BRANCH  20  23
ATOM     22  N   UNL     1       7.005   2.168  -0.291  0.00  0.00    -0.285 N 
ATOM     23  C   UNL     1       6.211   1.138   0.061  0.00  0.00    +0.230 C 
ATOM     24  O   UNL     1       6.686   0.033   0.217  0.00  0.00    -0.274 OA
ATOM     25  H   UNL     1       6.591   3.186  -0.350  0.00  0.00    +0.155 HD
BRANCH  22  30
ATOM     26  C   UNL     1      12.482   1.263  -1.470  0.00  0.00    +0.047 C 
ATOM     27  C   UNL     1      11.027   1.503  -1.157  0.00  0.00    -0.015 A 
ATOM     28  C   UNL     1      10.638   2.679  -0.543  0.00  0.00    +0.008 A 
ATOM     29  C   UNL     1       9.305   2.904  -0.260  0.00  0.00    +0.024 A 
ATOM     30  C   UNL     1       8.355   1.944  -0.582  0.00  0.00    +0.036 A 
ATOM     31  C   UNL     1       8.746   0.763  -1.199  0.00  0.00    +0.062 A 
ATOM     32  C   UNL     1      10.082   0.545  -1.486  0.00  0.00    +0.128 A 
ATOM     33  F   UNL     1      10.465  -0.603  -2.086  0.00  0.00    -0.205 F 
ENDBRANCH  22  30
ENDBRANCH  20  23
ENDBRANCH  19  20
ENDBRANCH   1  19
TORSDOF 6
