REMARK  Name = ZINC63289538
REMARK  5 active torsions:
REMARK  status: ('A' for Active; 'I' for Inactive)
REMARK    1  A    between atoms: C_7  and  C_10
REMARK    2  A    between atoms: C_10  and  C_11
REMARK    3  A    between atoms: C_15  and  S_18
REMARK    4  A    between atoms: S_18  and  C_19
REMARK    5  A    between atoms: C_19  and  C_20
REMARK                            x       y       z     vdW  Elec       q    Type
REMARK                         _______ _______ _______ _____ _____    ______ ____
ROOT
ATOM      1  C   UNL     1       0.457  -3.653  -1.462  0.00  0.00    +0.207 C 
ATOM      2  N   UNL     1      -0.551  -4.738  -1.482  0.00  0.00    -0.226 NA
ATOM      3  N   UNL     1      -0.052  -5.658  -2.518  0.00  0.00    -0.218 NA
ATOM      4  C   UNL     1       1.421  -5.576  -2.331  0.00  0.00    +0.263 C 
ATOM      5  O   UNL     1       1.671  -4.193  -2.005  0.00  0.00    -0.332 OA
ATOM      6  H   UNL     1      -1.463  -4.381  -1.725  0.00  0.00    +0.143 HD
ATOM      7  H   UNL     1      -0.385  -6.597  -2.359  0.00  0.00    +0.144 HD
ENDROOT
BRANCH   1   8
ATOM      8  C   UNL     1       0.691  -3.186  -0.024  0.00  0.00    +0.082 C 
BRANCH   8  15
ATOM      9  C   UNL     1      -0.016   1.348   0.009  0.00  0.00    +0.001 A 
ATOM     10  C   UNL     1       1.166   2.101   0.002  0.00  0.00    +0.002 A 
ATOM     11  C   UNL     1       2.391   1.535  -0.013  0.00  0.00    +0.026 A 
ATOM     12  C   UNL     1       2.529   0.120  -0.022  0.00  0.00    +0.043 A 
ATOM     13  N   UNL     1       3.587  -0.654  -0.037  0.00  0.00    -0.380 N 
ATOM     14  C   UNL     1       3.143  -2.053  -0.041  0.00  0.00    +0.144 C 
ATOM     15  C   UNL     1       1.631  -2.008  -0.025  0.00  0.00    -0.038 C 
ATOM     16  C   UNL     1       1.295  -0.698  -0.014  0.00  0.00    -0.001 A 
ATOM     17  C   UNL     1       0.002  -0.004   0.002  0.00  0.00    +0.010 A 
ATOM     18  H   UNL     1       4.509  -0.353  -0.045  0.00  0.00    +0.160 HD
ENDBRANCH   8  15
ENDBRANCH   1   8
BRANCH   4  19
ATOM     19  S   UNL     1       2.279  -6.029  -3.864  0.00  0.00    -0.108 S 
BRANCH  19  20
ATOM     20  C   UNL     1       1.653  -4.842  -5.084  0.00  0.00    +0.108 C 
BRANCH  20  21
ATOM     21  C   UNL     1       2.295  -5.111  -6.421  0.00  0.00    -0.037 A 
ATOM     22  C   UNL     1       3.482  -4.486  -6.756  0.00  0.00    +0.005 A 
ATOM     23  C   UNL     1       4.071  -4.733  -7.982  0.00  0.00    +0.015 A 
ATOM     24  C   UNL     1       3.473  -5.605  -8.874  0.00  0.00    +0.018 A 
ATOM     25  C   UNL     1       2.285  -6.229  -8.538  0.00  0.00    +0.015 A 
ATOM     26  C   UNL     1       1.699  -5.987  -7.310  0.00  0.00    +0.005 A 
ATOM     27 BR   UNL     1       4.278  -5.942 -10.551  0.00  0.00    -0.050 Br
ENDBRANCH  20  21
ENDBRANCH  19  20
ENDBRANCH   4  19
TORSDOF 5
