REMARK  Name = ZINC17751231
REMARK  11 active torsions:
REMARK  status: ('A' for Active; 'I' for Inactive)
REMARK    1  A    between atoms: C_1  and  C_2
REMARK    2  A    between atoms: C_2  and  C_3
REMARK    3  A    between atoms: C_3  and  C_4
REMARK    4  A    between atoms: C_10  and  S_12
REMARK    5  A    between atoms: S_12  and  C_13
REMARK    6  A    between atoms: C_13  and  C_14
REMARK    7  A    between atoms: N_16  and  C_17
REMARK    8  A    between atoms: C_18  and  C_25
REMARK    9  A    between atoms: C_25  and  O_27
REMARK   10  A    between atoms: O_27  and  C_28
REMARK   11  A    between atoms: C_28  and  C_29
REMARK                            x       y       z     vdW  Elec       q    Type
REMARK                         _______ _______ _______ _____ _____    ______ ____
ROOT
ATOM      1  C   UNL     1       5.161  -4.003   1.769  0.00  0.00    +0.228 C 
ATOM      2  O   UNL     1       5.306  -5.204   1.852  0.00  0.00    -0.275 OA
ATOM      3  N   UNL     1       6.029  -3.175   2.384  0.00  0.00    -0.279 N 
ATOM      4  H   UNL     1       5.913  -2.215   2.317  0.00  0.00    +0.155 HD
ENDROOT
BRANCH   3   5
ATOM      5  C   UNL     1       7.088  -3.697   3.110  0.00  0.00    +0.086 A 
ATOM      6  C   UNL     1       8.066  -3.006   3.805  0.00  0.00    +0.091 A 
ATOM      7  C   UNL     1       9.082  -3.799   4.496  0.00  0.00    -0.021 A 
ATOM      8  C   UNL     1       8.928  -5.128   4.359  0.00  0.00    -0.004 A 
ATOM      9  S   UNL     1       7.476  -5.310   3.355  0.00  0.00    -0.077 S 
ATOM     10  C   UNL     1      10.001  -5.894   5.084  0.00  0.00    +0.043 C 
ATOM     11  C   UNL     1      11.111  -4.854   5.350  0.00  0.00    +0.010 C 
ATOM     12  C   UNL     1      10.312  -3.535   5.362  0.00  0.00    +0.037 C 
BRANCH   6  13
ATOM     13  C   UNL     1       8.082  -1.543   3.846  0.00  0.00    +0.342 C 
ATOM     14  O   UNL     1       7.487  -0.952   4.727  0.00  0.00    -0.245 OA
BRANCH  13  15
ATOM     15  O   UNL     1       8.756  -0.849   2.906  0.00  0.00    -0.461 OA
BRANCH  15  16
ATOM     16  C   UNL     1       8.729   0.576   3.007  0.00  0.00    +0.229 C 
ATOM     17  C   UNL     1       9.543   1.185   1.863  0.00  0.00    +0.048 C 
ENDBRANCH  15  16
ENDBRANCH  13  15
ENDBRANCH   6  13
ENDBRANCH   3   5
BRANCH   1  18
ATOM     18  C   UNL     1       4.009  -3.436   0.980  0.00  0.00    +0.173 C 
BRANCH  18  19
ATOM     19  S   UNL     1       3.030  -4.793   0.280  0.00  0.00    -0.078 S 
BRANCH  19  26
ATOM     20  C   UNL     1       0.739  -2.004  -1.265  0.00  0.00    +0.049 A 
ATOM     21  C   UNL     1      -0.224  -2.695  -1.943  0.00  0.00    +0.093 A 
ATOM     22  C   UNL     1      -0.184  -4.100  -1.937  0.00  0.00    +0.252 A 
ATOM     23  O   UNL     1      -1.029  -4.749  -2.532  0.00  0.00    -0.268 OA
ATOM     24  N   UNL     1       0.806  -4.719  -1.260  0.00  0.00    -0.302 N 
ATOM     25  H   UNL     1       0.853  -5.687  -1.242  0.00  0.00    +0.171 HD
ATOM     26  C   UNL     1       1.740  -3.977  -0.601  0.00  0.00    +0.170 A 
ATOM     27  N   UNL     1       1.698  -2.659  -0.616  0.00  0.00    -0.228 NA
BRANCH  20  28
ATOM     28  C   UNL     1       0.718  -0.497  -1.257  0.00  0.00    +0.055 C 
BRANCH  28  30
ATOM     29  C   UNL     1      -0.019   1.526   0.010  0.00  0.00    +0.004 C 
ATOM     30  C   UNL     1       0.002  -0.004   0.002  0.00  0.00    +0.003 C 
ENDBRANCH  28  30
ENDBRANCH  20  28
ENDBRANCH  19  26
ENDBRANCH  18  19
ENDBRANCH   1  18
TORSDOF 9
