REMARK  Name = ZINC59147143
REMARK  8 active torsions:
REMARK  status: ('A' for Active; 'I' for Inactive)
REMARK    1  A    between atoms: C_4  and  C_7
REMARK    2  A    between atoms: C_7  and  C_8
REMARK    3  A    between atoms: C_8  and  N_9
REMARK    4  A    between atoms: N_17  and  N_18
REMARK    5  A    between atoms: C_19  and  C_21
REMARK    6  A    between atoms: C_21  and  C_22
REMARK    7  A    between atoms: C_22  and  C_23
REMARK    8  A    between atoms: C_28  and  O_29
REMARK                            x       y       z     vdW  Elec       q    Type
REMARK                         _______ _______ _______ _____ _____    ______ ____
ROOT
ATOM      1  N   UNL     1       5.450  -1.678   1.382  0.00  0.00    -0.265 N 
ATOM      2  C   UNL     1       5.572  -3.064   1.368  0.00  0.00    +0.046 A 
ATOM      3  C   UNL     1       4.618  -4.075   1.367  0.00  0.00    +0.025 A 
ATOM      4  C   UNL     1       5.010  -5.399   1.353  0.00  0.00    +0.017 A 
ATOM      5  C   UNL     1       6.354  -5.736   1.339  0.00  0.00    +0.019 A 
ATOM      6  C   UNL     1       7.316  -4.744   1.340  0.00  0.00    +0.027 A 
ATOM      7  C   UNL     1       6.930  -3.409   1.354  0.00  0.00    +0.029 A 
ATOM      8  C   UNL     1       7.685  -2.135   1.360  0.00  0.00    +0.153 C 
ATOM      9  N   UNL     1       8.987  -1.978   1.350  0.00  0.00    -0.175 NA
ATOM     10  C   UNL     1       6.652  -1.079   1.372  0.00  0.00    +0.271 C 
ATOM     11  O   UNL     1       6.855   0.121   1.375  0.00  0.00    -0.268 OA
ATOM     12 BR   UNL     1       6.872  -7.554   1.319  0.00  0.00    -0.050 Br
ENDROOT
BRANCH   9  13
ATOM     13  N   UNL     1       9.537  -0.690   1.358  0.00  0.00    -0.206 N 
ATOM     14  C   UNL     1      10.876  -0.529   1.348  0.00  0.00    +0.233 C 
ATOM     15  O   UNL     1      11.603  -1.499   1.334  0.00  0.00    -0.274 OA
ATOM     16  H   UNL     1       8.956   0.086   1.370  0.00  0.00    +0.177 HD
BRANCH  14  17
ATOM     17  C   UNL     1      11.468   0.857   1.356  0.00  0.00    +0.102 C 
BRANCH  17  18
ATOM     18  C   UNL     1      12.995   0.759   1.343  0.00  0.00    +0.048 C 
BRANCH  18  19
ATOM     19  C   UNL     1      13.587   2.144   1.351  0.00  0.00    -0.005 A 
ATOM     20  C   UNL     1      13.940   2.752   0.161  0.00  0.00    +0.007 A 
ATOM     21  C   UNL     1      14.484   4.023   0.168  0.00  0.00    +0.000 A 
ATOM     22  C   UNL     1      14.676   4.689   1.364  0.00  0.00    +0.004 A 
ATOM     23  C   UNL     1      14.325   4.086   2.556  0.00  0.00    +0.045 A 
ATOM     24  C   UNL     1      13.774   2.813   2.552  0.00  0.00    +0.120 A 
BRANCH  24  25
ATOM     25  O   UNL     1      13.422   2.219   3.723  0.00  0.00    -0.506 OA
ATOM     26  H   UNL     1      14.130   1.701   4.129  0.00  0.00    +0.292 HD
ENDBRANCH  24  25
ENDBRANCH  18  19
ENDBRANCH  17  18
ENDBRANCH  14  17
ENDBRANCH   9  13
BRANCH   1  27
ATOM     27  C   UNL     1       4.171  -0.963   1.399  0.00  0.00    +0.118 C 
BRANCH  27  28
ATOM     28  C   UNL     1       3.711  -0.707  -0.038  0.00  0.00    +0.054 C 
BRANCH  28  32
ATOM     29  C   UNL     1      -0.017   1.378   0.010  0.00  0.00    +0.000 A 
ATOM     30  C   UNL     1       1.171   2.086   0.002  0.00  0.00    +0.000 A 
ATOM     31  C   UNL     1       2.377   1.411  -0.013  0.00  0.00    +0.004 A 
ATOM     32  C   UNL     1       2.396   0.029  -0.020  0.00  0.00    -0.046 A 
ATOM     33  C   UNL     1       1.208  -0.679  -0.012  0.00  0.00    +0.004 A 
ATOM     34  C   UNL     1       0.002  -0.004   0.002  0.00  0.00    +0.000 A 
ENDBRANCH  28  32
ENDBRANCH  27  28
ENDBRANCH   1  27
TORSDOF 8
