REMARK  Name = ZINC24537568
REMARK  9 active torsions:
REMARK  status: ('A' for Active; 'I' for Inactive)
REMARK    1  A    between atoms: C_1  and  C_2
REMARK    2  A    between atoms: C_5  and  N_13
REMARK    3  A    between atoms: C_7  and  S_8
REMARK    4  A    between atoms: S_8  and  N_11
REMARK    5  A    between atoms: N_11  and  C_12
REMARK    6  A    between atoms: C_14  and  C_16
REMARK    7  A    between atoms: C_16  and  C_17
REMARK    8  A    between atoms: C_17  and  N_18
REMARK    9  A    between atoms: C_26  and  C_30
REMARK                            x       y       z     vdW  Elec       q    Type
REMARK                         _______ _______ _______ _____ _____    ______ ____
ROOT
ATOM      1  N   UNL     1       0.026   1.095   0.681  0.00  0.00    -0.285 N 
ATOM      2  C   UNL     1       1.211   1.703   0.477  0.00  0.00    +0.219 C 
ATOM      3  O   UNL     1       1.245   2.858   0.110  0.00  0.00    -0.275 OA
ATOM      4  H   UNL     1      -0.007   0.025   0.935  0.00  0.00    +0.155 HD
ENDROOT
BRANCH   1   9
ATOM      5  C   UNL     1      -4.794   4.054   0.235  0.00  0.00    +0.046 C 
ATOM      6  C   UNL     1      -3.514   3.268   0.353  0.00  0.00    -0.024 A 
ATOM      7  C   UNL     1      -3.489   1.932  -0.003  0.00  0.00    +0.007 A 
ATOM      8  C   UNL     1      -2.317   1.209   0.104  0.00  0.00    +0.023 A 
ATOM      9  C   UNL     1      -1.163   1.825   0.571  0.00  0.00    +0.035 A 
ATOM     10  C   UNL     1      -1.193   3.165   0.933  0.00  0.00    +0.052 A 
ATOM     11  C   UNL     1      -2.366   3.884   0.818  0.00  0.00    +0.110 A 
BRANCH  11  12
ATOM     12  S   UNL     1      -2.403   5.587   1.270  0.00  0.00    +0.058 S 
ATOM     13  O   UNL     1      -1.116   5.898   1.786  0.00  0.00    -0.153 OA
ATOM     14  O   UNL     1      -2.974   6.286   0.173  0.00  0.00    -0.153 OA
BRANCH  12  15
ATOM     15  N   UNL     1      -3.467   5.735   2.531  0.00  0.00    -0.193 NA
ATOM     16  C   UNL     1      -3.177   5.089   3.814  0.00  0.00    +0.127 C 
ATOM     17  H   UNL     1      -4.457   6.177   2.349  0.00  0.00    +0.148 HD
ENDBRANCH  12  15
ENDBRANCH  11  12
ENDBRANCH   1   9
BRANCH   2  18
ATOM     18  C   UNL     1       2.495   0.947   0.705  0.00  0.00    +0.115 C 
BRANCH  18  19
ATOM     19  C   UNL     1       3.685   1.860   0.404  0.00  0.00    +0.123 C 
BRANCH  19  20
ATOM     20  N   UNL     1       4.933   1.125   0.625  0.00  0.00    -0.265 N 
ATOM     21  C   UNL     1       5.528   0.402  -0.418  0.00  0.00    +0.078 A 
ATOM     22  C   UNL     1       5.148   0.614  -1.733  0.00  0.00    +0.027 A 
ATOM     23  C   UNL     1       5.747  -0.110  -2.748  0.00  0.00    +0.002 A 
ATOM     24  C   UNL     1       6.723  -1.045  -2.452  0.00  0.00    +0.004 A 
ATOM     25  C   UNL     1       7.107  -1.261  -1.141  0.00  0.00    +0.047 A 
ATOM     26  C   UNL     1       6.512  -0.539  -0.121  0.00  0.00    +0.143 A 
ATOM     27  O   UNL     1       6.879  -0.737   1.173  0.00  0.00    -0.478 OA
ATOM     28  C   UNL     1       6.830   0.402   2.037  0.00  0.00    +0.256 C 
ATOM     29  C   UNL     1       5.530   1.137   1.837  0.00  0.00    +0.260 C 
ATOM     30  O   UNL     1       5.020   1.735   2.761  0.00  0.00    -0.271 OA
ATOM     31  C   UNL     1       6.940  -0.057   3.492  0.00  0.00    +0.062 C 
ENDBRANCH  19  20
ENDBRANCH  18  19
ENDBRANCH   2  18
TORSDOF 6
