REMARK  Name = ZINC39534183
REMARK  10 active torsions:
REMARK  status: ('A' for Active; 'I' for Inactive)
REMARK    1  A    between atoms: C_1  and  S_2
REMARK    2  A    between atoms: S_2  and  N_3
REMARK    3  A    between atoms: N_3  and  C_4
REMARK    4  A    between atoms: C_4  and  C_5
REMARK    5  A    between atoms: C_5  and  C_7
REMARK    6  A    between atoms: C_5  and  N_20
REMARK    7  A    between atoms: C_10  and  C_13
REMARK    8  A    between atoms: C_18  and  O_19
REMARK    9  A    between atoms: C_24  and  S_27
REMARK   10  A    between atoms: S_27  and  C_30
REMARK                            x       y       z     vdW  Elec       q    Type
REMARK                         _______ _______ _______ _____ _____    ______ ____
ROOT
ATOM      1  C   UNL     1      -3.300  -2.273   0.395  0.00  0.00    +0.102 C 
ENDROOT
BRANCH   1   2
ATOM      2  N   UNL     1      -2.984  -1.933   1.788  0.00  0.00    -0.290 NA
ATOM      3  C   UNL     1      -3.617  -0.665   2.178  0.00  0.00    +0.100 C 
ATOM      4  C   UNL     1      -3.330  -0.388   3.656  0.00  0.00    +0.098 C 
ATOM      5  N   UNL     1      -1.877  -0.335   3.868  0.00  0.00    -0.293 NA
ATOM      6  C   UNL     1      -1.244  -1.603   3.478  0.00  0.00    +0.217 C 
ATOM      7  C   UNL     1      -1.531  -1.880   2.001  0.00  0.00    +0.127 C 
ATOM      8  H   UNL     1      -1.467   0.441   3.372  0.00  0.00    +0.124 HD
BRANCH   6   9
ATOM      9  S   UNL     1       0.548  -1.489   3.736  0.00  0.00    +0.014 S 
ATOM     10  O   UNL     1       1.153  -2.759   3.535  0.00  0.00    -0.168 OA
ATOM     11  O   UNL     1       1.063  -0.331   3.093  0.00  0.00    -0.168 OA
BRANCH   9  12
ATOM     12  C   UNL     1       0.738  -1.168   5.458  0.00  0.00    +0.090 A 
ATOM     13  C   UNL     1       0.763   0.134   5.920  0.00  0.00    +0.027 A 
ATOM     14  C   UNL     1       0.913   0.386   7.271  0.00  0.00    +0.002 A 
ATOM     15  C   UNL     1       1.036  -0.665   8.161  0.00  0.00    +0.000 A 
ATOM     16  C   UNL     1       1.010  -1.968   7.699  0.00  0.00    +0.002 A 
ATOM     17  C   UNL     1       0.857  -2.220   6.348  0.00  0.00    +0.027 A 
ENDBRANCH   9  12
ENDBRANCH   6   9
ENDBRANCH   1   2
BRANCH   1  18
ATOM     18  C   UNL     1      -3.138  -3.757   0.190  0.00  0.00    -0.029 A 
ATOM     19  C   UNL     1      -2.522  -4.523   1.163  0.00  0.00    +0.006 A 
ATOM     20  C   UNL     1      -2.370  -5.883   0.980  0.00  0.00    +0.009 A 
ATOM     21  C   UNL     1      -2.839  -6.483  -0.186  0.00  0.00    -0.014 A 
ATOM     22  C   UNL     1      -3.459  -5.706  -1.163  0.00  0.00    +0.009 A 
ATOM     23  C   UNL     1      -3.610  -4.348  -0.968  0.00  0.00    +0.006 A 
BRANCH  21  24
ATOM     24  C   UNL     1      -2.678  -7.944  -0.389  0.00  0.00    +0.024 A 
ATOM     25  C   UNL     1      -1.436  -8.545  -0.193  0.00  0.00    +0.012 A 
ATOM     26  C   UNL     1      -1.291  -9.904  -0.383  0.00  0.00    +0.001 A 
ATOM     27  C   UNL     1      -2.376 -10.674  -0.766  0.00  0.00    +0.004 A 
ATOM     28  C   UNL     1      -3.612 -10.088  -0.963  0.00  0.00    +0.046 A 
ATOM     29  C   UNL     1      -3.773  -8.725  -0.770  0.00  0.00    +0.125 A 
BRANCH  29  30
ATOM     30  O   UNL     1      -4.989  -8.149  -0.957  0.00  0.00    -0.506 OA
ATOM     31  H   UNL     1      -5.144  -7.843  -1.861  0.00  0.00    +0.292 HD
ENDBRANCH  29  30
ENDBRANCH  21  24
ENDBRANCH   1  18
BRANCH   1  32
ATOM     32  C   UNL     1      -2.351  -1.522  -0.541  0.00  0.00    +0.117 C 
BRANCH  32  33
ATOM     33  N   UNL     1      -2.467  -0.077  -0.300  0.00  0.00    -0.262 NA
ATOM     34  H   UNL     1      -3.350   0.276  -0.637  0.00  0.00    +0.135 HD
BRANCH  33  36
ATOM     35  C   UNL     1      -1.447   2.533  -0.621  0.00  0.00    +0.102 C 
ATOM     36  S   UNL     1      -1.117   0.796  -1.028  0.00  0.00    -0.084 S 
ENDBRANCH  33  36
ENDBRANCH  32  33
ENDBRANCH   1  32
TORSDOF 9
