REMARK  Name = ZINC20568996
REMARK  9 active torsions:
REMARK  status: ('A' for Active; 'I' for Inactive)
REMARK    1  A    between atoms: C_1  and  C_2
REMARK    2  A    between atoms: C_3  and  C_25
REMARK    3  A    between atoms: C_12  and  N_20
REMARK    4  A    between atoms: C_13  and  C_14
REMARK    5  A    between atoms: C_14  and  O_16
REMARK    6  A    between atoms: O_16  and  C_17
REMARK    7  A    between atoms: C_17  and  C_18
REMARK    8  A    between atoms: C_17  and  C_19
REMARK    9  A    between atoms: C_25  and  C_27
REMARK                            x       y       z     vdW  Elec       q    Type
REMARK                         _______ _______ _______ _____ _____    ______ ____
ROOT
ATOM      1  C   UNL     1      -1.550  -0.447  -0.066  0.00  0.00    +0.087 C 
ATOM      2  C   UNL     1      -0.244   0.295  -0.189  0.00  0.00    +0.114 C 
ATOM      3  C   UNL     1       0.961  -0.285  -0.043  0.00  0.00    +0.064 C 
ATOM      4  C   UNL     1       1.974   0.820  -0.248  0.00  0.00    +0.161 C 
ATOM      5  C   UNL     1       2.782   1.020   1.001  0.00  0.00    +0.001 A 
ATOM      6  C   UNL     1       2.203   1.624   2.103  0.00  0.00    +0.022 A 
ATOM      7  C   UNL     1       2.937   1.812   3.260  0.00  0.00    +0.018 A 
ATOM      8  C   UNL     1       4.255   1.396   3.323  0.00  0.00    +0.017 A 
ATOM      9  C   UNL     1       4.840   0.794   2.227  0.00  0.00    +0.024 A 
ATOM     10  C   UNL     1       4.106   0.604   1.063  0.00  0.00    +0.037 A 
ATOM     11  N   UNL     1       4.705  -0.004  -0.044  0.00  0.00    -0.302 N 
ATOM     12  C   UNL     1       4.146   0.124  -1.288  0.00  0.00    +0.097 C 
ATOM     13  C   UNL     1       2.840   0.521  -1.432  0.00  0.00    +0.098 C 
ATOM     14 BR   UNL     1       2.136   2.639   4.760  0.00  0.00    -0.050 Br
ATOM     15  C   UNL     1       1.115   2.037  -0.515  0.00  0.00    +0.332 C 
ATOM     16  O   UNL     1       1.493   3.163  -0.737  0.00  0.00    -0.249 OA
ATOM     17  O   UNL     1      -0.156   1.605  -0.456  0.00  0.00    -0.429 OA
ATOM     18  H   UNL     1       5.627  -0.590   0.083  0.00  0.00    +0.153 HD
ENDROOT
BRANCH  12  19
ATOM     19  N   UNL     1       4.900  -0.147  -2.400  0.00  0.00    -0.346 N 
ATOM     20  H   UNL     1       4.457  -0.045  -3.402  0.00  0.00    +0.143 HD
ATOM     21  H   UNL     1       5.947  -0.466  -2.291  0.00  0.00    +0.143 HD
ENDBRANCH  12  19
BRANCH  13  22
ATOM     22  C   UNL     1       2.304   0.650  -2.719  0.00  0.00    +0.340 C 
ATOM     23  O   UNL     1       1.576  -0.219  -3.166  0.00  0.00    -0.245 OA
BRANCH  22  24
ATOM     24  O   UNL     1       2.595   1.738  -3.466  0.00  0.00    -0.459 OA
BRANCH  24  25
ATOM     25  C   UNL     1       2.013   1.804  -4.769  0.00  0.00    +0.171 C 
ATOM     26  C   UNL     1       0.658   2.509  -4.688  0.00  0.00    +0.052 C 
ATOM     27  C   UNL     1       2.940   2.587  -5.702  0.00  0.00    +0.052 C 
ENDBRANCH  24  25
ENDBRANCH  22  24
ENDBRANCH  13  22
BRANCH   3  28
ATOM     28  C   UNL     1       1.226  -1.649   0.242  0.00  0.00    +0.194 C 
ATOM     29  O   UNL     1       1.622  -2.389  -0.639  0.00  0.00    -0.287 OA
BRANCH  28  30
ATOM     30  C   UNL     1       1.021  -2.171   1.611  0.00  0.00    +0.022 A 
ATOM     31  C   UNL     1       0.532  -1.334   2.615  0.00  0.00    +0.012 A 
ATOM     32  C   UNL     1       0.338  -1.829   3.888  0.00  0.00    +0.001 A 
ATOM     33  C   UNL     1       0.637  -3.150   4.173  0.00  0.00    +0.000 A 
ATOM     34  C   UNL     1       1.127  -3.984   3.183  0.00  0.00    +0.001 A 
ATOM     35  C   UNL     1       1.320  -3.503   1.905  0.00  0.00    +0.012 A 
ENDBRANCH  28  30
ENDBRANCH   3  28
TORSDOF 6
