REMARK  Name = ZINC14559474
REMARK  10 active torsions:
REMARK  status: ('A' for Active; 'I' for Inactive)
REMARK    1  A    between atoms: C_1  and  C_2
REMARK    2  A    between atoms: C_2  and  C_4
REMARK    3  A    between atoms: C_2  and  S_14
REMARK    4  A    between atoms: N_9  and  C_10
REMARK    5  A    between atoms: C_10  and  C_11
REMARK    6  A    between atoms: C_11  and  C_12
REMARK    7  A    between atoms: C_11  and  C_13
REMARK    8  A    between atoms: S_14  and  C_15
REMARK    9  A    between atoms: N_25  and  C_26
REMARK   10  A    between atoms: C_26  and  C_27
REMARK                            x       y       z     vdW  Elec       q    Type
REMARK                         _______ _______ _______ _____ _____    ______ ____
ROOT
ATOM      1  S   UNL     1      -1.700  -0.632   0.015  0.00  0.00    -0.075 S 
ENDROOT
BRANCH   1   2
ATOM      2  C   UNL     1      -2.365  -0.093  -1.525  0.00  0.00    +0.173 A 
ATOM      3  N   UNL     1      -1.593   0.592  -2.333  0.00  0.00    -0.223 NA
ATOM      4  C   UNL     1      -2.040   1.035  -3.531  0.00  0.00    +0.080 A 
ATOM      5  C   UNL     1      -1.219   1.766  -4.395  0.00  0.00    +0.048 A 
ATOM      6  C   UNL     1      -1.718   2.196  -5.605  0.00  0.00    +0.043 A 
ATOM      7  C   UNL     1      -3.027   1.913  -5.976  0.00  0.00    +0.021 A 
ATOM      8  C   UNL     1      -3.849   1.200  -5.149  0.00  0.00    +0.017 A 
ATOM      9  C   UNL     1      -3.370   0.752  -3.918  0.00  0.00    +0.065 A 
ATOM     10  C   UNL     1      -4.212  -0.018  -2.993  0.00  0.00    +0.263 A 
ATOM     11  O   UNL     1      -5.365  -0.293  -3.270  0.00  0.00    -0.267 OA
ATOM     12  N   UNL     1      -3.658  -0.414  -1.824  0.00  0.00    -0.283 N 
ATOM     13 CL   UNL     1      -0.699   3.104  -6.678  0.00  0.00    -0.083 Cl
BRANCH  12  14
ATOM     14  C   UNL     1      -4.453  -1.189  -0.869  0.00  0.00    +0.154 C 
BRANCH  14  15
ATOM     15  C   UNL     1      -5.166  -0.250   0.070  0.00  0.00    -0.013 C 
ATOM     16  C   UNL     1      -6.467  -0.321   0.204  0.00  0.00    +0.005 C 
ENDBRANCH  14  15
ENDBRANCH  12  14
ENDBRANCH   1   2
BRANCH   1  18
ATOM     17  C   UNL     1      -0.019   1.526   0.010  0.00  0.00    +0.029 C 
ATOM     18  C   UNL     1       0.002  -0.004   0.002  0.00  0.00    +0.137 C 
BRANCH  18  19
ATOM     19  C   UNL     1       0.731  -0.503   1.223  0.00  0.00    +0.233 C 
ATOM     20  O   UNL     1       0.105  -0.891   2.186  0.00  0.00    -0.274 OA
ATOM     21  N   UNL     1       2.079  -0.519   1.244  0.00  0.00    -0.239 N 
ATOM     22  C   UNL     1       2.730  -0.965   2.336  0.00  0.00    +0.306 C 
ATOM     23  O   UNL     1       2.103  -1.354   3.301  0.00  0.00    -0.252 OA
ATOM     24  N   UNL     1       4.078  -0.981   2.357  0.00  0.00    -0.299 N 
ATOM     25  H   UNL     1       2.579  -0.208   0.473  0.00  0.00    +0.159 HD
ATOM     26  H   UNL     1       4.579  -0.670   1.586  0.00  0.00    +0.150 HD
BRANCH  24  27
ATOM     27  C   UNL     1       4.786  -1.466   3.544  0.00  0.00    +0.108 C 
BRANCH  27  28
ATOM     28  C   UNL     1       6.296  -1.378   3.308  0.00  0.00    -0.000 C 
ATOM     29  C   UNL     1       7.035  -1.766   4.590  0.00  0.00    +0.009 C 
ATOM     30  C   UNL     1       6.692  -2.333   2.181  0.00  0.00    +0.009 C 
ENDBRANCH  27  28
ENDBRANCH  24  27
ENDBRANCH  18  19
ENDBRANCH   1  18
TORSDOF 7
