REMARK  Name = ZINC36491816
REMARK  10 active torsions:
REMARK  status: ('A' for Active; 'I' for Inactive)
REMARK    1  A    between atoms: C_1  and  C_2
REMARK    2  A    between atoms: C_5  and  S_8
REMARK    3  A    between atoms: S_8  and  C_11
REMARK    4  A    between atoms: C_11  and  N_12
REMARK    5  A    between atoms: C_13  and  C_15
REMARK    6  A    between atoms: C_15  and  C_17
REMARK    7  A    between atoms: C_15  and  N_24
REMARK    8  A    between atoms: C_20  and  O_23
REMARK    9  A    between atoms: N_24  and  C_25
REMARK   10  A    between atoms: C_31  and  C_33
REMARK                            x       y       z     vdW  Elec       q    Type
REMARK                         _______ _______ _______ _____ _____    ______ ____
ROOT
ATOM      1  C   UNL     1       3.738  -4.878   3.070  0.00  0.00    +0.193 C 
ENDROOT
BRANCH   1   2
ATOM      2  C   UNL     1       2.923  -3.665   3.439  0.00  0.00    -0.018 A 
ATOM      3  C   UNL     1       1.864  -3.276   2.640  0.00  0.00    +0.009 A 
ATOM      4  C   UNL     1       1.116  -2.164   2.976  0.00  0.00    +0.046 A 
ATOM      5  C   UNL     1       1.428  -1.438   4.116  0.00  0.00    +0.117 A 
ATOM      6  C   UNL     1       2.491  -1.831   4.916  0.00  0.00    +0.046 A 
ATOM      7  C   UNL     1       3.233  -2.946   4.579  0.00  0.00    +0.009 A 
BRANCH   5   8
ATOM      8  O   UNL     1       0.694  -0.344   4.448  0.00  0.00    -0.507 OA
ATOM      9  H   UNL     1      -0.063  -0.536   5.018  0.00  0.00    +0.292 HD
ENDBRANCH   5   8
ENDBRANCH   1   2
BRANCH   1  11
ATOM     10  N   UNL     1       2.878  -4.980   0.753  0.00  0.00    -0.294 N 
ATOM     11  C   UNL     1       3.069  -5.605   1.932  0.00  0.00    +0.239 C 
ATOM     12  O   UNL     1       2.703  -6.752   2.077  0.00  0.00    -0.273 OA
ATOM     13  H   UNL     1       3.105  -4.042   0.659  0.00  0.00    +0.150 HD
BRANCH  10  14
ATOM     14  C   UNL     1       2.326  -5.718  -0.386  0.00  0.00    +0.278 C 
BRANCH  14  15
ATOM     15  S   UNL     1       0.546  -5.396  -0.510  0.00  0.00    +0.013 S 
ATOM     16  O   UNL     1      -0.055  -5.464   0.776  0.00  0.00    -0.168 OA
ATOM     17  O   UNL     1      -0.006  -6.114  -1.606  0.00  0.00    -0.168 OA
BRANCH  15  22
ATOM     18  C   UNL     1       0.123   0.408  -2.103  0.00  0.00    +0.044 C 
ATOM     19  C   UNL     1       0.229  -1.042  -1.705  0.00  0.00    -0.050 A 
ATOM     20  C   UNL     1       0.553  -1.996  -2.651  0.00  0.00    +0.005 A 
ATOM     21  C   UNL     1       0.650  -3.326  -2.286  0.00  0.00    +0.027 A 
ATOM     22  C   UNL     1       0.423  -3.701  -0.975  0.00  0.00    +0.090 A 
ATOM     23  C   UNL     1       0.100  -2.746  -0.029  0.00  0.00    +0.027 A 
ATOM     24  C   UNL     1       0.007  -1.416  -0.393  0.00  0.00    +0.005 A 
ENDBRANCH  15  22
ENDBRANCH  14  15
ENDBRANCH  10  14
ENDBRANCH   1  11
BRANCH   1  25
ATOM     25  N   UNL     1       3.837  -5.770   4.228  0.00  0.00    -0.279 N 
ATOM     26  C   UNL     1       5.047  -6.150   4.685  0.00  0.00    +0.249 C 
ATOM     27  O   UNL     1       6.048  -5.875   4.053  0.00  0.00    -0.270 OA
BRANCH  25  28
ATOM     28  C   UNL     1       2.621  -6.250   4.890  0.00  0.00    +0.077 C 
ATOM     29  C   UNL     1       2.342  -7.692   4.461  0.00  0.00    +0.022 C 
ATOM     30  C   UNL     1       1.072  -8.193   5.152  0.00  0.00    +0.002 C 
ATOM     31  C   UNL     1      -0.109  -7.305   4.754  0.00  0.00    +0.000 C 
ATOM     32  C   UNL     1       0.170  -5.863   5.183  0.00  0.00    +0.002 C 
ATOM     33  C   UNL     1       1.440  -5.362   4.492  0.00  0.00    +0.022 C 
ENDBRANCH  25  28
BRANCH  26  34
ATOM     34  C   UNL     1       5.156  -6.901   5.954  0.00  0.00    +0.055 A 
ATOM     35  C   UNL     1       6.349  -6.890   6.687  0.00  0.00    +0.016 A 
ATOM     36  C   UNL     1       6.399  -7.609   7.868  0.00  0.00    +0.020 A 
ATOM     37  C   UNL     1       5.280  -8.308   8.283  0.00  0.00    +0.111 A 
ATOM     38  N   UNL     1       4.169  -8.300   7.571  0.00  0.00    -0.263 NA
ATOM     39  C   UNL     1       4.070  -7.627   6.443  0.00  0.00    +0.123 A 
ENDBRANCH  26  34
ENDBRANCH   1  25
TORSDOF 9
