REMARK  Name = ZINC17121146
REMARK  8 active torsions:
REMARK  status: ('A' for Active; 'I' for Inactive)
REMARK    1  A    between atoms: C_1  and  C_2
REMARK    2  A    between atoms: C_3  and  O_21
REMARK    3  A    between atoms: C_7  and  C_15
REMARK    4  A    between atoms: N_9  and  C_13
REMARK    5  A    between atoms: N_16  and  N_17
REMARK    6  A    between atoms: N_17  and  C_18
REMARK    7  A    between atoms: C_18  and  N_20
REMARK    8  A    between atoms: O_21  and  C_22
REMARK                            x       y       z     vdW  Elec       q    Type
REMARK                         _______ _______ _______ _____ _____    ______ ____
ROOT
ATOM      1  C   UNL     1       0.039   1.244  -0.034  0.00  0.00    +0.052 C 
ATOM      2  C   UNL     1      -0.695   1.642   1.221  0.00  0.00    +0.044 C 
ATOM      3  C   UNL     1      -0.029   1.696   2.393  0.00  0.00    +0.174 C 
ATOM      4  C   UNL     1      -0.738   2.087   3.635  0.00  0.00    +0.230 C 
ATOM      5  O   UNL     1      -0.140   2.136   4.691  0.00  0.00    -0.283 OA
ATOM      6  C   UNL     1      -2.170   2.414   3.579  0.00  0.00    +0.064 A 
ATOM      7  C   UNL     1      -3.154   2.825   4.580  0.00  0.00    +0.043 A 
ATOM      8  C   UNL     1      -4.353   2.983   3.893  0.00  0.00    +0.119 A 
ATOM      9  N   UNL     1      -4.155   2.703   2.596  0.00  0.00    -0.331 N 
ATOM     10  C   UNL     1      -2.851   2.356   2.368  0.00  0.00    +0.102 A 
ATOM     11  C   UNL     1      -2.122   1.972   1.152  0.00  0.00    +0.209 C 
ATOM     12  O   UNL     1      -2.706   1.923   0.084  0.00  0.00    -0.285 OA
ATOM     13  C   UNL     1      -5.193   2.761   1.564  0.00  0.00    +0.150 C 
ATOM     14 CL   UNL     1      -5.864   3.466   4.601  0.00  0.00    -0.063 Cl
ENDROOT
BRANCH   7  15
ATOM     15  C   UNL     1      -2.923   3.028   6.016  0.00  0.00    +0.142 C 
ATOM     16  N   UNL     1      -3.904   3.398   6.787  0.00  0.00    -0.188 NA
BRANCH  16  17
ATOM     17  N   UNL     1      -3.683   3.592   8.157  0.00  0.00    -0.219 N 
ATOM     18  H   UNL     1      -2.800   3.450   8.531  0.00  0.00    +0.176 HD
BRANCH  17  19
ATOM     19  C   UNL     1      -4.700   3.974   8.956  0.00  0.00    +0.147 C 
ATOM     20  S   UNL     1      -4.430   4.211  10.630  0.00  0.00    -0.017 S 
BRANCH  19  21
ATOM     21  N   UNL     1      -5.928   4.170   8.436  0.00  0.00    -0.339 N 
ATOM     22  H   UNL     1      -6.080   4.036   7.488  0.00  0.00    +0.144 HD
ATOM     23  H   UNL     1      -6.659   4.446   9.011  0.00  0.00    +0.144 HD
ENDBRANCH  19  21
ENDBRANCH  17  19
ENDBRANCH  16  17
ENDBRANCH   7  15
BRANCH   3  24
ATOM     24  O   UNL     1       1.291   1.393   2.435  0.00  0.00    -0.491 OA
ATOM     25  C   UNL     1       1.664   0.222   3.163  0.00  0.00    +0.277 C 
ENDBRANCH   3  24
TORSDOF 5
