REMARK  Name = ZINC12543131
REMARK  4 active torsions:
REMARK  status: ('A' for Active; 'I' for Inactive)
REMARK    1  A    between atoms: C_6  and  S_7
REMARK    2  A    between atoms: S_7  and  N_10
REMARK    3  A    between atoms: N_13  and  C_14
REMARK    4  A    between atoms: C_14  and  C_15
REMARK                            x       y       z     vdW  Elec       q    Type
REMARK                         _______ _______ _______ _____ _____    ______ ____
ROOT
ATOM      1  C   UNL     1       0.081  -0.016  -0.021  0.00  0.00    +0.030 A 
ATOM      2  C   UNL     1       0.096   1.363   0.020  0.00  0.00    +0.025 A 
ATOM      3  C   UNL     1       1.282   2.058  -0.211  0.00  0.00    +0.033 A 
ATOM      4  C   UNL     1       2.442   1.344  -0.488  0.00  0.00    -0.023 A 
ATOM      5  C   UNL     1       2.422  -0.035  -0.525  0.00  0.00    +0.034 A 
ATOM      6  C   UNL     1       1.242  -0.718  -0.292  0.00  0.00    +0.105 A 
ATOM      7  C   UNL     1       3.562   2.340  -0.712  0.00  0.00    +0.056 C 
ATOM      8  C   UNL     1       2.802   3.669  -0.928  0.00  0.00    +0.110 C 
ATOM      9  N   UNL     1       1.532   3.436  -0.207  0.00  0.00    -0.321 N 
ENDROOT
BRANCH   6  10
ATOM     10  S   UNL     1       1.217  -2.479  -0.339  0.00  0.00    +0.056 S 
ATOM     11  O   UNL     1       2.545  -2.911  -0.074  0.00  0.00    -0.153 OA
ATOM     12  O   UNL     1       0.110  -2.891   0.451  0.00  0.00    -0.153 OA
BRANCH  10  13
ATOM     13  N   UNL     1       0.878  -2.922  -1.898  0.00  0.00    -0.204 NA
ATOM     14  H   UNL     1       0.737  -2.243  -2.575  0.00  0.00    +0.144 HD
ATOM     15  H   UNL     1       0.819  -3.861  -2.133  0.00  0.00    +0.144 HD
ENDBRANCH  10  13
ENDBRANCH   6  10
BRANCH   9  16
ATOM     16  C   UNL     1       0.427   4.173  -0.834  0.00  0.00    +0.201 C 
BRANCH  16  17
ATOM     17  C   UNL     1       0.768   5.640  -0.887  0.00  0.00    +0.233 C 
ATOM     18  O   UNL     1       1.776   6.048  -0.349  0.00  0.00    -0.274 OA
ATOM     19  N   UNL     1      -0.046   6.499  -1.533  0.00  0.00    -0.296 N 
ATOM     20  C   UNL     1      -1.270   6.026  -2.199  0.00  0.00    +0.136 C 
ATOM     21  C   UNL     1      -2.441   6.905  -1.729  0.00  0.00    +0.179 C 
ATOM     22  O   UNL     1      -2.102   8.280  -1.925  0.00  0.00    -0.377 OA
ATOM     23  C   UNL     1      -0.976   8.720  -1.162  0.00  0.00    +0.179 C 
ATOM     24  C   UNL     1       0.266   7.935  -1.598  0.00  0.00    +0.136 C 
ENDBRANCH  16  17
ENDBRANCH   9  16
TORSDOF 4
