REMARK  Name = ZINC33171032
REMARK  9 active torsions:
REMARK  status: ('A' for Active; 'I' for Inactive)
REMARK    1  A    between atoms: C_1  and  C_2
REMARK    2  A    between atoms: C_3  and  N_26
REMARK    3  A    between atoms: C_4  and  C_7
REMARK    4  A    between atoms: C_8  and  C_9
REMARK    5  A    between atoms: C_12  and  S_15
REMARK    6  A    between atoms: S_15  and  N_18
REMARK    7  A    between atoms: N_18  and  C_19
REMARK    8  A    between atoms: C_22  and  C_25
REMARK    9  A    between atoms: C_27  and  C_29
REMARK                            x       y       z     vdW  Elec       q    Type
REMARK                         _______ _______ _______ _____ _____    ______ ____
ROOT
ATOM      1  C   UNL     1       2.110   1.114  -0.409  0.00  0.00    -0.025 A 
ATOM      2  C   UNL     1       1.512   1.975   0.517  0.00  0.00    +0.010 A 
ATOM      3  C   UNL     1       0.298   1.640   1.079  0.00  0.00    +0.029 A 
ATOM      4  C   UNL     1      -0.328   0.456   0.730  0.00  0.00    +0.105 A 
ATOM      5  C   UNL     1       0.259  -0.401  -0.185  0.00  0.00    +0.029 A 
ATOM      6  C   UNL     1       1.472  -0.081  -0.756  0.00  0.00    +0.010 A 
ENDROOT
BRANCH   4   7
ATOM      7  S   UNL     1      -1.878   0.037   1.454  0.00  0.00    +0.059 S 
ATOM      8  O   UNL     1      -1.995  -1.377   1.375  0.00  0.00    -0.153 OA
ATOM      9  O   UNL     1      -1.954   0.740   2.687  0.00  0.00    -0.153 OA
BRANCH   7  10
ATOM     10  N   UNL     1      -3.060   0.665   0.479  0.00  0.00    -0.187 NA
ATOM     11  H   UNL     1      -3.603   1.565   0.803  0.00  0.00    +0.148 HD
BRANCH  10  12
ATOM     12  C   UNL     1      -3.226   0.162  -0.887  0.00  0.00    +0.077 C 
ATOM     13  C   UNL     1      -2.457   1.059  -1.858  0.00  0.00    +0.020 C 
ATOM     14  C   UNL     1      -3.000   2.487  -1.772  0.00  0.00    +0.005 C 
ATOM     15  C   UNL     1      -4.485   2.492  -2.140  0.00  0.00    -0.014 C 
ATOM     16  C   UNL     1      -5.254   1.594  -1.168  0.00  0.00    +0.005 C 
ATOM     17  C   UNL     1      -4.711   0.166  -1.255  0.00  0.00    +0.020 C 
ATOM     18  C   UNL     1      -5.027   3.920  -2.053  0.00  0.00    +0.007 C 
ENDBRANCH  10  12
ENDBRANCH   7  10
ENDBRANCH   4   7
BRANCH   1  20
ATOM     19  C   UNL     1       3.607   2.700  -1.510  0.00  0.00    +0.051 C 
ATOM     20  C   UNL     1       3.406   1.463  -1.013  0.00  0.00    +0.011 C 
BRANCH  19  24
ATOM     21  C   UNL     1       0.630   6.715  -2.382  0.00  0.00    +0.071 C 
ATOM     22  C   UNL     1       1.169   5.347  -2.049  0.00  0.00    +0.102 A 
ATOM     23  C   UNL     1       2.527   4.953  -2.043  0.00  0.00    +0.103 A 
ATOM     24  C   UNL     1       2.477   3.615  -1.674  0.00  0.00    +0.182 A 
ATOM     25  O   UNL     1       1.169   3.331  -1.506  0.00  0.00    -0.353 OA
ATOM     26  N   UNL     1       0.474   4.298  -1.712  0.00  0.00    -0.081 NA
BRANCH  23  27
ATOM     27  N   UNL     1       3.656   5.729  -2.339  0.00  0.00    -0.281 N 
ATOM     28  C   UNL     1       3.645   6.558  -3.401  0.00  0.00    +0.214 C 
ATOM     29  O   UNL     1       2.625   6.712  -4.039  0.00  0.00    -0.276 OA
ATOM     30  C   UNL     1       4.900   7.293  -3.797  0.00  0.00    +0.109 C 
ATOM     31  H   UNL     1       4.552   5.661  -1.704  0.00  0.00    +0.155 HD
ENDBRANCH  23  27
ENDBRANCH  19  24
ENDBRANCH   1  20
TORSDOF 6
