REMARK  Name = ZINC39656958
REMARK  6 active torsions:
REMARK  status: ('A' for Active; 'I' for Inactive)
REMARK    1  A    between atoms: C_1  and  C_2
REMARK    2  A    between atoms: C_2  and  C_4
REMARK    3  A    between atoms: C_2  and  N_11
REMARK    4  A    between atoms: C_12  and  C_14
REMARK    5  A    between atoms: C_25  and  C_27
REMARK    6  A    between atoms: C_27  and  C_33
REMARK                            x       y       z     vdW  Elec       q    Type
REMARK                         _______ _______ _______ _____ _____    ______ ____
ROOT
ATOM      1  C   UNL     1      -3.952  -1.354  -0.829  0.00  0.00    +0.100 C 
ATOM      2  C   UNL     1      -4.612  -0.234   0.005  0.00  0.00    +0.121 C 
ATOM      3  N   UNL     1      -5.204   0.682  -0.999  0.00  0.00    -0.300 N 
ATOM      4  C   UNL     1      -5.752  -0.219  -2.041  0.00  0.00    +0.115 C 
ATOM      5  C   UNL     1      -4.705  -1.344  -2.170  0.00  0.00    -0.004 C 
ATOM      6  C   UNL     1      -5.397  -2.684  -2.398  0.00  0.00    -0.010 C 
ATOM      7  C   UNL     1      -6.090  -2.670  -3.764  0.00  0.00    -0.082 C 
ATOM      8  N   UNL     1      -5.097  -2.424  -4.816  0.00  0.00    +0.379 N 
ATOM      9  C   UNL     1      -4.503  -1.092  -4.643  0.00  0.00    -0.082 C 
ATOM     10  C   UNL     1      -3.743  -1.040  -3.314  0.00  0.00    -0.010 C 
ATOM     11  C   UNL     1      -5.237   2.029  -0.970  0.00  0.00    +0.222 C 
ATOM     12  O   UNL     1      -4.672   2.631  -0.081  0.00  0.00    -0.275 OA
ATOM     13  H   UNL     1      -4.372  -3.123  -4.763  0.00  0.00    -0.086 HD
ATOM     14  H   UNL     1      -5.546  -2.475  -5.719  0.00  0.00    -0.086 HD
ENDROOT
BRANCH  11  15
ATOM     15  C   UNL     1      -5.974   2.788  -2.043  0.00  0.00    +0.044 C 
ATOM     16  C   UNL     1      -5.264   2.594  -3.385  0.00  0.00    +0.016 C 
ATOM     17  C   UNL     1      -3.831   3.119  -3.283  0.00  0.00    +0.001 C 
ATOM     18  C   UNL     1      -3.856   4.607  -2.930  0.00  0.00    +0.000 C 
ATOM     19  C   UNL     1      -4.566   4.801  -1.588  0.00  0.00    +0.001 C 
ATOM     20  C   UNL     1      -6.000   4.276  -1.690  0.00  0.00    +0.016 C 
ATOM     21  C   UNL     1      -7.408   2.263  -2.144  0.00  0.00    +0.021 C 
ENDBRANCH  11  15
BRANCH   1  23
ATOM     22  N   UNL     1      -1.612  -2.067  -1.195  0.00  0.00    -0.308 N 
ATOM     23  C   UNL     1      -2.491  -1.056  -1.046  0.00  0.00    +0.219 C 
ATOM     24  O   UNL     1      -2.106   0.093  -1.087  0.00  0.00    -0.275 OA
ATOM     25  H   UNL     1      -1.920  -2.986  -1.162  0.00  0.00    +0.149 HD
BRANCH  22  27
ATOM     26  C   UNL     1       0.494  -1.575  -0.052  0.00  0.00    +0.033 C 
ATOM     27  C   UNL     1      -0.191  -1.777  -1.405  0.00  0.00    +0.100 C 
BRANCH  27  28
ATOM     28  C   UNL     1       0.455  -2.931  -2.128  0.00  0.00    -0.027 A 
ATOM     29  C   UNL     1       0.110  -4.230  -1.804  0.00  0.00    +0.006 A 
ATOM     30  C   UNL     1       0.702  -5.288  -2.467  0.00  0.00    +0.015 A 
ATOM     31  C   UNL     1       1.640  -5.048  -3.455  0.00  0.00    +0.018 A 
ATOM     32  C   UNL     1       1.984  -3.748  -3.779  0.00  0.00    +0.015 A 
ATOM     33  C   UNL     1       1.388  -2.690  -3.119  0.00  0.00    +0.006 A 
ATOM     34 BR   UNL     1       2.450  -6.495  -4.362  0.00  0.00    -0.050 Br
ENDBRANCH  27  28
ENDBRANCH  22  27
ENDBRANCH   1  23
TORSDOF 4
