REMARK  Name = ZINC39664079
REMARK  9 active torsions:
REMARK  status: ('A' for Active; 'I' for Inactive)
REMARK    1  A    between atoms: C_1  and  O_2
REMARK    2  A    between atoms: O_2  and  C_3
REMARK    3  A    between atoms: C_6  and  C_9
REMARK    4  A    between atoms: C_9  and  C_11
REMARK    5  A    between atoms: C_9  and  N_36
REMARK    6  A    between atoms: C_11  and  N_12
REMARK    7  A    between atoms: C_13  and  C_15
REMARK    8  A    between atoms: C_26  and  C_28
REMARK    9  A    between atoms: C_28  and  C_29
REMARK                            x       y       z     vdW  Elec       q    Type
REMARK                         _______ _______ _______ _____ _____    ______ ____
ROOT
ATOM      1  C   UNL     1      -8.325  -5.238  -2.508  0.00  0.00    +0.100 C 
ATOM      2  C   UNL     1      -8.039  -6.601  -1.838  0.00  0.00    +0.121 C 
ATOM      3  N   UNL     1      -8.950  -7.551  -2.520  0.00  0.00    -0.300 N 
ATOM      4  C   UNL     1      -8.926  -7.130  -3.941  0.00  0.00    +0.115 C 
ATOM      5  C   UNL     1      -8.905  -5.590  -3.888  0.00  0.00    -0.004 C 
ATOM      6  C   UNL     1      -8.012  -5.036  -4.994  0.00  0.00    -0.010 C 
ATOM      7  C   UNL     1      -8.641  -5.347  -6.355  0.00  0.00    -0.082 C 
ATOM      8  N   UNL     1      -9.977  -4.743  -6.429  0.00  0.00    +0.379 N 
ATOM      9  C   UNL     1     -10.856  -5.349  -5.422  0.00  0.00    -0.082 C 
ATOM     10  C   UNL     1     -10.322  -5.038  -4.021  0.00  0.00    -0.010 C 
ATOM     11  C   UNL     1      -9.645  -8.567  -1.971  0.00  0.00    +0.220 C 
ATOM     12  O   UNL     1     -10.355  -9.262  -2.667  0.00  0.00    -0.275 OA
ATOM     13  H   UNL     1      -9.906  -3.751  -6.259  0.00  0.00    -0.086 HD
ATOM     14  H   UNL     1     -10.364  -4.897  -7.348  0.00  0.00    -0.086 HD
ENDROOT
BRANCH   1  16
ATOM     15  N   UNL     1      -7.083  -3.104  -2.655  0.00  0.00    -0.316 N 
ATOM     16  C   UNL     1      -7.048  -4.451  -2.660  0.00  0.00    +0.218 C 
ATOM     17  O   UNL     1      -5.990  -5.030  -2.788  0.00  0.00    -0.275 OA
ATOM     18  H   UNL     1      -7.929  -2.641  -2.554  0.00  0.00    +0.149 HD
BRANCH  15  19
ATOM     19  C   UNL     1      -5.842  -2.339  -2.804  0.00  0.00    +0.093 C 
BRANCH  19  20
ATOM     20  C   UNL     1      -6.147  -0.845  -2.681  0.00  0.00    -0.020 C 
BRANCH  20  24
ATOM     21  C   UNL     1      -8.623   0.377  -5.943  0.00  0.00    +0.120 A 
ATOM     22  C   UNL     1      -9.185   0.125  -4.700  0.00  0.00    +0.046 A 
ATOM     23  C   UNL     1      -8.383  -0.270  -3.648  0.00  0.00    +0.005 A 
ATOM     24  C   UNL     1      -7.020  -0.414  -3.832  0.00  0.00    -0.059 A 
ATOM     25  C   UNL     1      -6.457  -0.162  -5.069  0.00  0.00    +0.005 A 
ATOM     26  C   UNL     1      -7.256   0.227  -6.127  0.00  0.00    +0.046 A 
BRANCH  21  28
ATOM     27  C   UNL     1     -10.808   0.900  -6.719  0.00  0.00    +0.277 C 
ATOM     28  O   UNL     1      -9.410   0.766  -6.981  0.00  0.00    -0.495 OA
ENDBRANCH  21  28
ENDBRANCH  20  24
BRANCH  20  29
ATOM     29  N   UNL     1      -4.890  -0.085  -2.709  0.00  0.00    +0.385 N 
ATOM     30  C   UNL     1      -5.167   1.369  -2.584  0.00  0.00    -0.078 C 
ATOM     31  C   UNL     1      -3.823   1.944  -2.071  0.00  0.00    -0.020 C 
ATOM     32  C   UNL     1      -3.325   0.846  -1.103  0.00  0.00    -0.020 C 
ATOM     33  C   UNL     1      -4.054  -0.438  -1.541  0.00  0.00    -0.078 C 
ATOM     34  H   UNL     1      -4.389  -0.272  -3.565  0.00  0.00    -0.081 HD
ENDBRANCH  20  29
ENDBRANCH  19  20
ENDBRANCH  15  19
ENDBRANCH   1  16
BRANCH  11  35
ATOM     35  C   UNL     1      -9.540  -8.840  -0.492  0.00  0.00    +0.131 C 
BRANCH  35  36
ATOM     36  C   UNL     1     -10.408 -10.019  -0.136  0.00  0.00    -0.039 A 
ATOM     37  C   UNL     1     -11.728  -9.822   0.223  0.00  0.00    +0.005 A 
ATOM     38  C   UNL     1     -12.524 -10.904   0.550  0.00  0.00    +0.020 A 
ATOM     39  C   UNL     1     -12.000 -12.184   0.517  0.00  0.00    +0.041 A 
ATOM     40  C   UNL     1     -10.679 -12.380   0.157  0.00  0.00    +0.020 A 
ATOM     41  C   UNL     1      -9.885 -11.298  -0.175  0.00  0.00    +0.005 A 
ATOM     42 CL   UNL     1     -12.999 -13.542   0.928  0.00  0.00    -0.084 Cl
ENDBRANCH  35  36
ENDBRANCH  11  35
TORSDOF 8
