REMARK  Name = ZINC12457390
REMARK  7 active torsions:
REMARK  status: ('A' for Active; 'I' for Inactive)
REMARK    1  A    between atoms: C_1  and  O_2
REMARK    2  A    between atoms: O_2  and  C_3
REMARK    3  A    between atoms: C_6  and  S_9
REMARK    4  A    between atoms: S_9  and  C_10
REMARK    5  A    between atoms: C_13  and  C_26
REMARK    6  A    between atoms: C_16  and  N_70
REMARK    7  A    between atoms: N_28  and  C_29
REMARK                            x       y       z     vdW  Elec       q    Type
REMARK                         _______ _______ _______ _____ _____    ______ ____
ROOT
ATOM      1  C   UNL     1       0.929   3.192   1.020  0.00  0.00    +0.034 C 
ATOM      2  C   UNL     1       1.275   1.725   0.692  0.00  0.00    +0.006 C 
ATOM      3  C   UNL     1      -0.063   1.084   0.263  0.00  0.00    +0.021 C 
ATOM      4  C   UNL     1      -0.588   3.315   0.760  0.00  0.00    -0.063 C 
ATOM      5  N   UNL     1      -1.071   1.942   0.895  0.00  0.00    +0.390 N 
ATOM      6  H   UNL     1      -1.167   1.700   1.888  0.00  0.00    -0.080 HD
ENDROOT
BRANCH   5   7
ATOM      7  C   UNL     1      -2.396   1.777   0.218  0.00  0.00    -0.061 C 
ATOM      8  C   UNL     1      -3.337   2.905   0.650  0.00  0.00    -0.024 C 
ATOM      9  C   UNL     1      -4.682   2.747  -0.061  0.00  0.00    +0.005 C 
ATOM     10  C   UNL     1      -5.300   1.397   0.310  0.00  0.00    -0.010 C 
ATOM     11  C   UNL     1      -5.512   1.333   1.824  0.00  0.00    +0.007 C 
ATOM     12  C   UNL     1      -4.167   1.491   2.535  0.00  0.00    -0.010 C 
ATOM     13  C   UNL     1      -3.549   2.840   2.164  0.00  0.00    +0.005 C 
ATOM     14  C   UNL     1      -3.227   0.363   2.104  0.00  0.00    +0.005 C 
ATOM     15  C   UNL     1      -3.014   0.428   0.590  0.00  0.00    -0.024 C 
ATOM     16  C   UNL     1      -4.360   0.270  -0.121  0.00  0.00    +0.005 C 
ENDBRANCH   5   7
BRANCH   3  17
ATOM     17  C   UNL     1      -0.153  -0.333   0.768  0.00  0.00    +0.200 C 
ATOM     18  O   UNL     1      -0.594  -0.555   1.876  0.00  0.00    -0.278 OA
ATOM     19  N   UNL     1       0.257  -1.353  -0.011  0.00  0.00    -0.312 N 
ATOM     20  H   UNL     1       0.610  -1.176  -0.897  0.00  0.00    +0.149 HD
BRANCH  19  21
ATOM     21  C   UNL     1       0.169  -2.731   0.480  0.00  0.00    +0.095 C 
ATOM     22  C   UNL     1       1.210  -3.599  -0.246  0.00  0.00    +0.046 C 
ATOM     23  C   UNL     1       0.890  -5.091   0.054  0.00  0.00    +0.168 C 
ATOM     24  S   UNL     1      -0.949  -5.073  -0.063  0.00  0.00    -0.029 S 
ATOM     25  O   UNL     1      -1.330  -5.405  -1.391  0.00  0.00    -0.174 OA
ATOM     26  O   UNL     1      -1.489  -5.810   1.025  0.00  0.00    -0.174 OA
ATOM     27  C   UNL     1      -1.254  -3.281   0.216  0.00  0.00    +0.188 C 
ENDBRANCH  19  21
ENDBRANCH   3  17
BRANCH   1  28
ATOM     28  S   UNL     1       1.848   4.314  -0.071  0.00  0.00    -0.124 S 
BRANCH  28  32
ATOM     29  C   UNL     1       6.173   3.729   1.147  0.00  0.00    +0.120 A 
ATOM     30  C   UNL     1       5.852   4.623   0.136  0.00  0.00    +0.047 A 
ATOM     31  C   UNL     1       4.535   4.801  -0.236  0.00  0.00    +0.018 A 
ATOM     32  C   UNL     1       3.530   4.086   0.403  0.00  0.00    +0.008 A 
ATOM     33  C   UNL     1       3.851   3.196   1.419  0.00  0.00    +0.018 A 
ATOM     34  C   UNL     1       5.170   3.014   1.786  0.00  0.00    +0.047 A 
BRANCH  29  36
ATOM     35  C   UNL     1       7.729   2.618   2.561  0.00  0.00    +0.277 C 
ATOM     36  O   UNL     1       7.471   3.554   1.512  0.00  0.00    -0.495 OA
ENDBRANCH  29  36
ENDBRANCH  28  32
ENDBRANCH   1  28
TORSDOF 6
