REMARK  Name = ZINC39658731
REMARK  7 active torsions:
REMARK  status: ('A' for Active; 'I' for Inactive)
REMARK    1  A    between atoms: C_4  and  C_7
REMARK    2  A    between atoms: C_7  and  S_8
REMARK    3  A    between atoms: S_8  and  C_9
REMARK    4  A    between atoms: C_9  and  C_10
REMARK    5  A    between atoms: C_10  and  N_11
REMARK    6  A    between atoms: C_12  and  C_14
REMARK    7  A    between atoms: C_25  and  C_27
REMARK                            x       y       z     vdW  Elec       q    Type
REMARK                         _______ _______ _______ _____ _____    ______ ____
ROOT
ATOM      1  C   UNL     1       9.673  -4.037   3.616  0.00  0.00    +0.100 C 
ATOM      2  C   UNL     1      10.679  -3.195   2.799  0.00  0.00    +0.121 C 
ATOM      3  N   UNL     1      11.481  -2.478   3.817  0.00  0.00    -0.295 N 
ATOM      4  C   UNL     1      11.683  -3.474   4.897  0.00  0.00    +0.115 C 
ATOM      5  C   UNL     1      10.337  -4.221   4.991  0.00  0.00    -0.004 C 
ATOM      6  C   UNL     1      10.574  -5.702   5.270  0.00  0.00    -0.010 C 
ATOM      7  C   UNL     1      11.181  -5.863   6.667  0.00  0.00    -0.082 C 
ATOM      8  N   UNL     1      10.269  -5.295   7.667  0.00  0.00    +0.379 N 
ATOM      9  C   UNL     1      10.120  -3.852   7.447  0.00  0.00    -0.082 C 
ATOM     10  C   UNL     1       9.468  -3.605   6.084  0.00  0.00    -0.010 C 
ATOM     11  C   UNL     1      11.928  -1.207   3.773  0.00  0.00    +0.265 C 
ATOM     12  O   UNL     1      11.595  -0.478   2.859  0.00  0.00    -0.268 OA
ATOM     13  H   UNL     1       9.367  -5.741   7.589  0.00  0.00    -0.086 HD
ATOM     14  H   UNL     1      10.642  -5.457   8.591  0.00  0.00    -0.086 HD
ENDROOT
BRANCH  11  15
ATOM     15  C   UNL     1      12.825  -0.698   4.838  0.00  0.00    +0.126 A 
ATOM     16  C   UNL     1      13.185   0.658   4.840  0.00  0.00    +0.033 A 
ATOM     17  C   UNL     1      14.010   1.139   5.816  0.00  0.00    +0.012 A 
ATOM     18  C   UNL     1      14.474   0.243   6.797  0.00  0.00    +0.000 A 
ATOM     19  C   UNL     1      15.325   0.670   7.830  0.00  0.00    +0.010 A 
ATOM     20  C   UNL     1      15.754  -0.225   8.761  0.00  0.00    +0.001 A 
ATOM     21  C   UNL     1      15.361  -1.562   8.706  0.00  0.00    +0.002 A 
ATOM     22  C   UNL     1      14.539  -2.011   7.720  0.00  0.00    +0.028 A 
ATOM     23  C   UNL     1      14.072  -1.117   6.737  0.00  0.00    +0.072 A 
ATOM     24  N   UNL     1      13.261  -1.529   5.764  0.00  0.00    -0.242 NA
ENDBRANCH  11  15
BRANCH   1  26
ATOM     25  N   UNL     1       7.212  -3.988   3.857  0.00  0.00    -0.314 N 
ATOM     26  C   UNL     1       8.367  -3.300   3.759  0.00  0.00    +0.218 C 
ATOM     27  O   UNL     1       8.354  -2.087   3.785  0.00  0.00    -0.275 OA
ATOM     28  H   UNL     1       7.222  -4.958   3.836  0.00  0.00    +0.149 HD
BRANCH  25  29
ATOM     29  C   UNL     1       5.942  -3.272   3.996  0.00  0.00    +0.115 C 
BRANCH  29  30
ATOM     30  C   UNL     1       4.795  -4.280   4.087  0.00  0.00    +0.088 C 
BRANCH  30  31
ATOM     31  S   UNL     1       3.222  -3.393   4.258  0.00  0.00    -0.155 S 
BRANCH  31  32
ATOM     32  C   UNL     1       1.981  -4.713   4.352  0.00  0.00    +0.104 C 
BRANCH  32  36
ATOM     33  C   UNL     1      -1.906  -2.991   4.766  0.00  0.00    +0.000 A 
ATOM     34  C   UNL     1      -1.393  -3.244   3.508  0.00  0.00    +0.000 A 
ATOM     35  C   UNL     1      -0.135  -3.801   3.374  0.00  0.00    +0.004 A 
ATOM     36  C   UNL     1       0.610  -4.105   4.498  0.00  0.00    -0.038 A 
ATOM     37  C   UNL     1       0.097  -3.851   5.756  0.00  0.00    +0.004 A 
ATOM     38  C   UNL     1      -1.161  -3.295   5.891  0.00  0.00    +0.000 A 
ENDBRANCH  32  36
ENDBRANCH  31  32
ENDBRANCH  30  31
ENDBRANCH  29  30
ENDBRANCH  25  29
ENDBRANCH   1  26
TORSDOF 7
