REMARK  Name = ZINC38806115
REMARK  17 active torsions:
REMARK  status: ('A' for Active; 'I' for Inactive)
REMARK    1  A    between atoms: C_1  and  C_2
REMARK    2  A    between atoms: C_2  and  O_3
REMARK    3  A    between atoms: O_3  and  C_4
REMARK    4  A    between atoms: C_4  and  C_6
REMARK    5  A    between atoms: C_10  and  N_11
REMARK    6  A    between atoms: C_12  and  C_14
REMARK    7  A    between atoms: C_15  and  C_16
REMARK    8  A    between atoms: C_18  and  O_26
REMARK    9  A    between atoms: C_19  and  O_24
REMARK   10  A    between atoms: C_20  and  O_22
REMARK   11  A    between atoms: O_22  and  C_23
REMARK   12  A    between atoms: O_24  and  C_25
REMARK   13  A    between atoms: O_26  and  C_27
REMARK   14  A    between atoms: C_28  and  C_34
REMARK   15  A    between atoms: C_28  and  C_35
REMARK   16  A    between atoms: C_30  and  C_32
REMARK   17  A    between atoms: C_30  and  C_33
REMARK                            x       y       z     vdW  Elec       q    Type
REMARK                         _______ _______ _______ _____ _____    ______ ____
ROOT
ATOM      1  C   UNL     1      -2.842  -2.416   0.016  0.00  0.00    +0.091 A 
ATOM      2  C   UNL     1      -3.559  -2.712  -1.205  0.00  0.00    -0.024 A 
ATOM      3  C   UNL     1      -4.793  -3.237  -1.021  0.00  0.00    -0.016 A 
ATOM      4  S   UNL     1      -4.972  -3.337   0.735  0.00  0.00    -0.079 S 
ATOM      5  C   UNL     1      -3.490  -2.706   1.212  0.00  0.00    +0.086 A 
ATOM      6  C   UNL     1      -5.759  -3.623  -2.091  0.00  0.00    -0.041 C 
ATOM      7  N   UNL     1      -5.164  -3.558  -3.425  0.00  0.00    +0.389 N 
ATOM      8  C   UNL     1      -3.709  -3.592  -3.493  0.00  0.00    -0.069 C 
ATOM      9  C   UNL     1      -3.066  -2.501  -2.628  0.00  0.00    +0.024 C 
ATOM     10  C   UNL     1      -3.288  -3.342  -4.954  0.00  0.00    -0.010 C 
ATOM     11  C   UNL     1      -3.167  -4.960  -3.075  0.00  0.00    -0.010 C 
ATOM     12  C   UNL     1      -6.290  -5.037  -1.815  0.00  0.00    -0.005 C 
ATOM     13  C   UNL     1      -6.955  -2.652  -2.036  0.00  0.00    -0.005 C 
ATOM     14  H   UNL     1      -5.533  -4.329  -3.983  0.00  0.00    -0.084 HD
ATOM     15  H   UNL     1      -5.489  -2.704  -3.883  0.00  0.00    -0.084 HD
ENDROOT
BRANCH   5  16
ATOM     16  N   UNL     1      -3.020  -2.518   2.500  0.00  0.00    -0.276 N 
ATOM     17  C   UNL     1      -3.788  -2.858   3.554  0.00  0.00    +0.241 C 
ATOM     18  O   UNL     1      -4.895  -3.331   3.373  0.00  0.00    -0.270 OA
ATOM     19  H   UNL     1      -2.138  -2.141   2.644  0.00  0.00    +0.156 HD
BRANCH  17  20
ATOM     20  C   UNL     1      -3.291  -2.659   4.915  0.00  0.00    +0.068 C 
ATOM     21  C   UNL     1      -4.061  -3.000   5.971  0.00  0.00    +0.013 C 
BRANCH  21  22
ATOM     22  C   UNL     1      -3.562  -2.800   7.339  0.00  0.00    -0.018 A 
ATOM     23  C   UNL     1      -2.292  -2.250   7.548  0.00  0.00    +0.057 A 
ATOM     24  C   UNL     1      -1.826  -2.064   8.836  0.00  0.00    +0.166 A 
ATOM     25  C   UNL     1      -2.618  -2.421   9.924  0.00  0.00    +0.204 A 
ATOM     26  C   UNL     1      -3.882  -2.969   9.719  0.00  0.00    +0.166 A 
ATOM     27  C   UNL     1      -4.357  -3.152   8.434  0.00  0.00    +0.057 A 
BRANCH  26  28
ATOM     28  O   UNL     1      -4.652  -3.318  10.784  0.00  0.00    -0.491 OA
ATOM     29  C   UNL     1      -5.938  -3.873  10.501  0.00  0.00    +0.277 C 
ENDBRANCH  26  28
BRANCH  25  30
ATOM     30  O   UNL     1      -2.156  -2.237  11.189  0.00  0.00    -0.488 OA
ATOM     31  C   UNL     1      -2.443  -0.981  11.807  0.00  0.00    +0.277 C 
ENDBRANCH  25  30
BRANCH  24  32
ATOM     32  O   UNL     1      -0.592  -1.530   9.041  0.00  0.00    -0.491 OA
ATOM     33  C   UNL     1       0.168  -1.186   7.880  0.00  0.00    +0.277 C 
ENDBRANCH  24  32
ENDBRANCH  21  22
ENDBRANCH  17  20
ENDBRANCH   5  16
BRANCH   1  34
ATOM     34  C   UNL     1      -1.497  -1.838   0.006  0.00  0.00    +0.342 C 
ATOM     35  O   UNL     1      -0.522  -2.566  -0.007  0.00  0.00    -0.245 OA
BRANCH  34  36
ATOM     36  O   UNL     1      -1.339  -0.499   0.012  0.00  0.00    -0.461 OA
BRANCH  36  38
ATOM     37  C   UNL     1      -0.019   1.526   0.010  0.00  0.00    +0.048 C 
ATOM     38  C   UNL     1       0.002  -0.004   0.002  0.00  0.00    +0.229 C 
ENDBRANCH  36  38
ENDBRANCH  34  36
ENDBRANCH   1  34
TORSDOF 9
