REMARK  Name = ZINC39674172
REMARK  11 active torsions:
REMARK  status: ('A' for Active; 'I' for Inactive)
REMARK    1  A    between atoms: C_1  and  C_2
REMARK    2  A    between atoms: C_4  and  C_9
REMARK    3  A    between atoms: C_5  and  C_8
REMARK    4  A    between atoms: C_9  and  C_11
REMARK    5  A    between atoms: C_9  and  N_12
REMARK    6  A    between atoms: C_13  and  C_15
REMARK    7  A    between atoms: C_26  and  C_28
REMARK    8  A    between atoms: C_30  and  O_36
REMARK    9  A    between atoms: C_32  and  O_34
REMARK   10  A    between atoms: O_34  and  C_35
REMARK   11  A    between atoms: O_36  and  C_37
REMARK                            x       y       z     vdW  Elec       q    Type
REMARK                         _______ _______ _______ _____ _____    ______ ____
ROOT
ATOM      1  C   UNL     1      -4.085   2.762  -1.217  0.00  0.00    +0.100 C 
ATOM      2  C   UNL     1      -3.666   3.837  -0.190  0.00  0.00    +0.121 C 
ATOM      3  N   UNL     1      -4.756   4.840  -0.232  0.00  0.00    -0.296 N 
ATOM      4  C   UNL     1      -5.994   4.034  -0.361  0.00  0.00    +0.115 C 
ATOM      5  C   UNL     1      -5.613   2.893  -1.326  0.00  0.00    -0.004 C 
ATOM      6  C   UNL     1      -6.287   1.594  -0.897  0.00  0.00    -0.010 C 
ATOM      7  C   UNL     1      -7.803   1.729  -1.070  0.00  0.00    -0.082 C 
ATOM      8  N   UNL     1      -8.113   2.025  -2.474  0.00  0.00    +0.379 N 
ATOM      9  C   UNL     1      -7.539   3.322  -2.850  0.00  0.00    -0.082 C 
ATOM     10  C   UNL     1      -6.012   3.254  -2.753  0.00  0.00    -0.010 C 
ATOM     11  C   UNL     1      -4.647   6.182  -0.168  0.00  0.00    +0.247 C 
ATOM     12  O   UNL     1      -3.549   6.703  -0.164  0.00  0.00    -0.270 OA
ATOM     13  H   UNL     1      -7.725   1.303  -3.062  0.00  0.00    -0.086 HD
ATOM     14  H   UNL     1      -9.114   2.054  -2.597  0.00  0.00    -0.086 HD
ENDROOT
BRANCH  11  15
ATOM     15  C   UNL     1      -5.864   7.020  -0.103  0.00  0.00    +0.044 A 
ATOM     16  C   UNL     1      -7.066   6.474   0.346  0.00  0.00    +0.059 A 
ATOM     17  C   UNL     1      -8.204   7.263   0.405  0.00  0.00    +0.124 A 
ATOM     18  C   UNL     1      -8.148   8.594   0.019  0.00  0.00    +0.091 A 
ATOM     19  C   UNL     1      -6.954   9.141  -0.428  0.00  0.00    +0.124 A 
ATOM     20  C   UNL     1      -5.811   8.361  -0.485  0.00  0.00    +0.059 A 
BRANCH  19  21
ATOM     21  O   UNL     1      -6.904  10.446  -0.805  0.00  0.00    -0.495 OA
ATOM     22  C   UNL     1      -8.119  11.194  -0.715  0.00  0.00    +0.277 C 
ENDBRANCH  19  21
BRANCH  17  23
ATOM     23  O   UNL     1      -9.376   6.731   0.843  0.00  0.00    -0.495 OA
ATOM     24  C   UNL     1     -10.509   7.602   0.878  0.00  0.00    +0.277 C 
ENDBRANCH  17  23
ENDBRANCH  11  15
BRANCH   1  26
ATOM     25  N   UNL     1      -3.445   0.404  -1.602  0.00  0.00    -0.309 N 
ATOM     26  C   UNL     1      -3.710   1.389  -0.721  0.00  0.00    +0.219 C 
ATOM     27  O   UNL     1      -3.648   1.170   0.470  0.00  0.00    -0.275 OA
ATOM     28  H   UNL     1      -3.495   0.579  -2.555  0.00  0.00    +0.149 HD
BRANCH  25  29
ATOM     29  C   UNL     1      -3.081  -0.931  -1.120  0.00  0.00    +0.100 C 
ATOM     30  C   UNL     1      -4.351  -1.720  -0.797  0.00  0.00    +0.033 C 
BRANCH  29  33
ATOM     31  C   UNL     1      -3.045  -0.732  -4.396  0.00  0.00    +0.039 C 
ATOM     32  C   UNL     1      -2.738  -2.001  -3.597  0.00  0.00    +0.154 C 
ATOM     33  C   UNL     1      -2.298  -1.654  -2.186  0.00  0.00    -0.001 C 
ATOM     34  C   UNL     1      -1.056  -2.137  -2.109  0.00  0.00    +0.063 C 
ATOM     35  N   UNL     1      -0.696  -2.722  -3.273  0.00  0.00    -0.159 NA
ATOM     36  N   UNL     1      -1.565  -2.695  -4.153  0.00  0.00    -0.180 NA
ATOM     37  C   UNL     1      -0.175  -2.043  -0.890  0.00  0.00    +0.067 C 
ENDBRANCH  29  33
ENDBRANCH  25  29
ENDBRANCH   1  26
TORSDOF 6
