REMARK  Name = ZINC12572263
REMARK  8 active torsions:
REMARK  status: ('A' for Active; 'I' for Inactive)
REMARK    1  A    between atoms: C_1  and  C_2
REMARK    2  A    between atoms: C_5  and  C_9
REMARK    3  A    between atoms: N_11  and  N_12
REMARK    4  A    between atoms: N_12  and  C_13
REMARK    5  A    between atoms: C_13  and  N_15
REMARK    6  A    between atoms: C_16  and  C_18
REMARK    7  A    between atoms: C_18  and  O_19
REMARK    8  A    between atoms: O_19  and  C_20
REMARK                            x       y       z     vdW  Elec       q    Type
REMARK                         _______ _______ _______ _____ _____    ______ ____
ROOT
ATOM      1  C   UNL     1       3.524   1.907  -0.021  0.00  0.00    +0.153 C 
ATOM      2  S   UNL     1       5.018   1.071  -0.040  0.00  0.00    -0.017 S 
ENDROOT
BRANCH   1   3
ATOM      3  N   UNL     1       3.506   3.254  -0.014  0.00  0.00    -0.264 N 
ATOM      4  C   UNL     1       4.664   3.944  -0.021  0.00  0.00    +0.256 C 
ATOM      5  O   UNL     1       5.722   3.352  -0.035  0.00  0.00    -0.272 OA
ATOM      6  H   UNL     1       2.659   3.728  -0.003  0.00  0.00    +0.157 HD
BRANCH   4   7
ATOM      7  C   UNL     1       4.643   5.451  -0.013  0.00  0.00    +0.324 C 
BRANCH   7   8
ATOM      8  O   UNL     1       5.984   5.946  -0.023  0.00  0.00    -0.483 OA
BRANCH   8   9
ATOM      9  C   UNL     1       6.144   7.295  -0.017  0.00  0.00    +0.121 A 
ATOM     10  C   UNL     1       5.033   8.126  -0.008  0.00  0.00    +0.047 A 
ATOM     11  C   UNL     1       5.197   9.498   0.004  0.00  0.00    +0.019 A 
ATOM     12  C   UNL     1       6.469  10.043  -0.005  0.00  0.00    +0.018 A 
ATOM     13  C   UNL     1       7.578   9.216  -0.021  0.00  0.00    +0.019 A 
ATOM     14  C   UNL     1       7.418   7.844  -0.027  0.00  0.00    +0.047 A 
ATOM     15 BR   UNL     1       6.691  11.921   0.004  0.00  0.00    -0.050 Br
ENDBRANCH   8   9
ENDBRANCH   7   8
ENDBRANCH   4   7
ENDBRANCH   1   3
BRANCH   1  16
ATOM     16  N   UNL     1       2.366   1.217  -0.014  0.00  0.00    -0.245 N 
ATOM     17  H   UNL     1       2.379   0.247  -0.019  0.00  0.00    +0.172 HD
BRANCH  16  20
ATOM     18  C   UNL     1      -0.014   1.211   0.009  0.00  0.00    +0.260 C 
ATOM     19  O   UNL     1       0.002  -0.004   0.002  0.00  0.00    -0.269 OA
ATOM     20  N   UNL     1       1.143   1.901   0.001  0.00  0.00    -0.231 N 
ATOM     21  H   UNL     1       1.130   2.871   0.007  0.00  0.00    +0.173 HD
BRANCH  18  26
ATOM     22  C   UNL     1      -5.036   4.023   0.046  0.00  0.00    +0.045 C 
ATOM     23  C   UNL     1      -3.721   3.286   0.037  0.00  0.00    -0.036 A 
ATOM     24  C   UNL     1      -2.534   3.997   0.035  0.00  0.00    +0.005 A 
ATOM     25  C   UNL     1      -1.327   3.329   0.032  0.00  0.00    +0.013 A 
ATOM     26  C   UNL     1      -1.305   1.933   0.019  0.00  0.00    +0.039 A 
ATOM     27  C   UNL     1      -2.505   1.222   0.021  0.00  0.00    +0.028 A 
ATOM     28  C   UNL     1      -3.707   1.902   0.030  0.00  0.00    +0.021 A 
ATOM     29 BR   UNL     1      -5.335   0.941   0.032  0.00  0.00    -0.050 Br
ENDBRANCH  18  26
ENDBRANCH  16  20
ENDBRANCH   1  16
TORSDOF 7
