REMARK  Name = ZINC20684628
REMARK  6 active torsions:
REMARK  status: ('A' for Active; 'I' for Inactive)
REMARK    1  A    between atoms: C_1  and  C_2
REMARK    2  A    between atoms: C_2  and  N_3
REMARK    3  A    between atoms: C_14  and  C_16
REMARK    4  A    between atoms: C_27  and  S_32
REMARK    5  A    between atoms: S_32  and  N_35
REMARK    6  A    between atoms: N_38  and  C_41
REMARK                            x       y       z     vdW  Elec       q    Type
REMARK                         _______ _______ _______ _____ _____    ______ ____
ROOT
ATOM      1  C   UNL     1      -0.767   8.924   0.055  0.00  0.00    +0.105 C 
ATOM      2  C   UNL     1      -0.692   9.622  -1.291  0.00  0.00    +0.029 C 
ATOM      3  C   UNL     1      -1.021   8.784  -2.534  0.00  0.00    +0.033 C 
ATOM      4  C   UNL     1      -0.168   9.472  -3.602  0.00  0.00    -0.030 C 
ATOM      5  C   UNL     1       0.851  10.082  -3.035  0.00  0.00    -0.023 C 
ATOM      6  C   UNL     1       0.828   9.819  -1.573  0.00  0.00    +0.049 C 
ATOM      7  C   UNL     1       1.347  10.799  -0.594  0.00  0.00    -0.018 A 
ATOM      8  C   UNL     1       2.344  11.697  -0.905  0.00  0.00    +0.034 A 
ATOM      9  C   UNL     1       2.819  12.571   0.055  0.00  0.00    +0.106 A 
ATOM     10  C   UNL     1       2.292  12.546   1.334  0.00  0.00    +0.030 A 
ATOM     11  C   UNL     1       1.289  11.655   1.653  0.00  0.00    +0.025 A 
ATOM     12  C   UNL     1       0.800  10.776   0.693  0.00  0.00    +0.031 A 
ATOM     13  N   UNL     1      -0.231   9.892   1.036  0.00  0.00    -0.336 N 
ATOM     14  H   UNL     1      -0.641   9.927   2.056  0.00  0.00    +0.147 HD
ENDROOT
BRANCH   1  26
ATOM     15  N   UNL     1       2.191   4.114  -0.080  0.00  0.00    -0.340 N 
ATOM     16  C   UNL     1       1.234   3.220  -0.524  0.00  0.00    +0.050 A 
ATOM     17  C   UNL     1       1.278   1.853  -0.784  0.00  0.00    +0.026 A 
ATOM     18  C   UNL     1       0.149   1.199  -1.228  0.00  0.00    +0.002 A 
ATOM     19  C   UNL     1      -1.036   1.891  -1.425  0.00  0.00    +0.001 A 
ATOM     20  C   UNL     1      -1.101   3.243  -1.168  0.00  0.00    +0.010 A 
ATOM     21  C   UNL     1       0.033   3.918  -0.719  0.00  0.00    +0.008 A 
ATOM     22  C   UNL     1       0.303   5.323  -0.364  0.00  0.00    +0.008 A 
ATOM     23  C   UNL     1       1.651   5.384   0.022  0.00  0.00    +0.050 A 
ATOM     24  C   UNL     1       2.192   6.603   0.416  0.00  0.00    +0.027 A 
ATOM     25  C   UNL     1       1.408   7.737   0.423  0.00  0.00    +0.007 A 
ATOM     26  C   UNL     1       0.077   7.675   0.041  0.00  0.00    -0.026 A 
ATOM     27  C   UNL     1      -0.478   6.476  -0.351  0.00  0.00    +0.016 A 
BRANCH  15  29
ATOM     28  C   UNL     1       4.441   3.918  -1.018  0.00  0.00    +0.027 C 
ATOM     29  C   UNL     1       3.579   3.767   0.237  0.00  0.00    +0.119 C 
ENDBRANCH  15  29
ENDBRANCH   1  26
BRANCH   9  30
ATOM     30  S   UNL     1       4.096  13.716  -0.350  0.00  0.00    +0.061 S 
ATOM     31  O   UNL     1       4.037  13.909  -1.756  0.00  0.00    -0.153 OA
ATOM     32  O   UNL     1       3.984  14.792   0.572  0.00  0.00    -0.153 OA
BRANCH  30  33
ATOM     33  N   UNL     1       5.540  12.971  -0.035  0.00  0.00    -0.180 NA
ATOM     34  C   UNL     1       6.175  13.084   1.288  0.00  0.00    +0.091 C 
ATOM     35  C   UNL     1       6.520  11.669   1.779  0.00  0.00    -0.062 C 
ATOM     36  N   UNL     1       7.327  10.985   0.759  0.00  0.00    +0.380 N 
ATOM     37  C   UNL     1       6.572  10.809  -0.489  0.00  0.00    -0.062 C 
ATOM     38  C   UNL     1       6.226  12.184  -1.071  0.00  0.00    +0.091 C 
ATOM     39  C   UNL     1       7.826   9.697   1.259  0.00  0.00    -0.096 C 
ATOM     40  H   UNL     1       8.195  11.623   0.537  0.00  0.00    -0.082 HD
ENDBRANCH  30  33
ENDBRANCH   9  30
TORSDOF 4
