REMARK  Name = ZINC24348805
REMARK  5 active torsions:
REMARK  status: ('A' for Active; 'I' for Inactive)
REMARK    1  A    between atoms: C_9  and  N_14
REMARK    2  A    between atoms: C_15  and  C_17
REMARK    3  A    between atoms: C_19  and  S_29
REMARK    4  A    between atoms: C_22  and  N_23
REMARK    5  A    between atoms: S_29  and  N_32
REMARK                            x       y       z     vdW  Elec       q    Type
REMARK                         _______ _______ _______ _____ _____    ______ ____
ROOT
ATOM      1  C   UNL     1      -0.033   1.394   0.171  0.00  0.00    +0.060 A 
ATOM      2  C   UNL     1       1.172   2.076  -0.014  0.00  0.00    +0.043 A 
ATOM      3  C   UNL     1       2.360   1.379  -0.035  0.00  0.00    +0.106 A 
ATOM      4  C   UNL     1       2.368   0.003   0.130  0.00  0.00    +0.030 A 
ATOM      5  C   UNL     1       1.186  -0.685   0.314  0.00  0.00    +0.026 A 
ATOM      6  C   UNL     1      -0.022   0.000   0.337  0.00  0.00    +0.042 A 
ENDROOT
BRANCH   6   7
ATOM      7  N   UNL     1      -1.213  -0.690   0.522  0.00  0.00    -0.325 N 
ATOM      8  C   UNL     1      -1.250  -1.330   1.845  0.00  0.00    +0.133 C 
ATOM      9  C   UNL     1      -2.600  -2.028   2.031  0.00  0.00    +0.178 C 
ATOM     10  O   UNL     1      -2.796  -2.966   0.969  0.00  0.00    -0.377 OA
ATOM     11  C   UNL     1      -2.767  -2.376  -0.333  0.00  0.00    +0.178 C 
ATOM     12  C   UNL     1      -1.419  -1.682  -0.543  0.00  0.00    +0.133 C 
ENDBRANCH   6   7
BRANCH   1  14
ATOM     13  N   UNL     1      -1.314   3.471   0.027  0.00  0.00    -0.281 N 
ATOM     14  C   UNL     1      -1.309   2.133   0.187  0.00  0.00    +0.250 C 
ATOM     15  O   UNL     1      -2.356   1.535   0.343  0.00  0.00    -0.270 OA
ATOM     16  H   UNL     1      -0.364   4.023  -0.028  0.00  0.00    +0.155 HD
BRANCH  13  25
ATOM     17  C   UNL     1      -8.000   2.825  -2.381  0.00  0.00    +0.001 A 
ATOM     18  C   UNL     1      -8.787   3.944  -2.160  0.00  0.00    +0.004 A 
ATOM     19  C   UNL     1      -8.268   5.053  -1.525  0.00  0.00    +0.047 A 
ATOM     20  C   UNL     1      -6.945   5.058  -1.100  0.00  0.00    +0.136 A 
ATOM     21  C   UNL     1      -6.151   3.925  -1.326  0.00  0.00    +0.028 A 
ATOM     22  C   UNL     1      -6.684   2.812  -1.967  0.00  0.00    +0.012 A 
ATOM     23  C   UNL     1      -4.825   4.248  -0.765  0.00  0.00    +0.030 A 
ATOM     24  C   UNL     1      -3.620   3.559  -0.677  0.00  0.00    +0.035 A 
ATOM     25  C   UNL     1      -2.530   4.160  -0.069  0.00  0.00    +0.034 A 
ATOM     26  C   UNL     1      -2.641   5.450   0.441  0.00  0.00    +0.027 A 
ATOM     27  C   UNL     1      -3.832   6.138   0.352  0.00  0.00    +0.049 A 
ATOM     28  C   UNL     1      -4.937   5.547  -0.251  0.00  0.00    +0.136 A 
ATOM     29  O   UNL     1      -6.197   5.987  -0.468  0.00  0.00    -0.455 OA
ENDBRANCH  13  25
ENDBRANCH   1  14
BRANCH   3  30
ATOM     30  S   UNL     1       3.878   2.242  -0.270  0.00  0.00    +0.056 S 
ATOM     31  O   UNL     1       3.653   3.582   0.146  0.00  0.00    -0.153 OA
ATOM     32  O   UNL     1       4.899   1.430   0.296  0.00  0.00    -0.153 OA
BRANCH  30  33
ATOM     33  N   UNL     1       4.165   2.294  -1.900  0.00  0.00    -0.204 NA
ATOM     34  H   UNL     1       5.108   2.827  -2.090  0.00  0.00    +0.144 HD
ATOM     35  H   UNL     1       3.339   2.821  -2.401  0.00  0.00    +0.144 HD
ENDBRANCH  30  33
ENDBRANCH   3  30
TORSDOF 5
