REMARK  Name = ZINC15946846
REMARK  12 active torsions:
REMARK  status: ('A' for Active; 'I' for Inactive)
REMARK    1  A    between atoms: C_1  and  C_2
REMARK    2  A    between atoms: C_2  and  O_3
REMARK    3  A    between atoms: O_3  and  C_4
REMARK    4  A    between atoms: C_7  and  N_10
REMARK    5  A    between atoms: C_11  and  C_13
REMARK    6  A    between atoms: C_17  and  N_18
REMARK    7  A    between atoms: C_19  and  C_21
REMARK    8  A    between atoms: C_21  and  N_67
REMARK    9  A    between atoms: C_22  and  C_23
REMARK   10  A    between atoms: C_22  and  N_67
REMARK   11  A    between atoms: C_23  and  C_24
REMARK   12  A    between atoms: C_31  and  C_35
REMARK                            x       y       z     vdW  Elec       q    Type
REMARK                         _______ _______ _______ _____ _____    ______ ____
ROOT
ATOM      1  C   UNL     1      -4.853   0.937   0.241  0.00  0.00    +0.069 A 
ATOM      2  C   UNL     1      -5.380   0.539   1.536  0.00  0.00    -0.023 A 
ATOM      3  C   UNL     1      -6.543  -0.147   1.497  0.00  0.00    -0.004 A 
ATOM      4  S   UNL     1      -6.934  -0.278  -0.225  0.00  0.00    -0.077 S 
ATOM      5  C   UNL     1      -5.576   0.572  -0.885  0.00  0.00    +0.084 A 
ATOM      6  C   UNL     1      -7.317  -0.679   2.663  0.00  0.00    +0.046 C 
ATOM      7  C   UNL     1      -6.408  -0.650   3.901  0.00  0.00    -0.009 C 
ATOM      8  C   UNL     1      -5.736   0.723   3.986  0.00  0.00    +0.008 C 
ATOM      9  C   UNL     1      -4.708   0.871   2.862  0.00  0.00    +0.037 C 
ATOM     10  C   UNL     1      -7.245  -0.894   5.158  0.00  0.00    +0.008 C 
ENDROOT
BRANCH   1  12
ATOM     11  N   UNL     1      -2.428   1.038   0.019  0.00  0.00    -0.281 N 
ATOM     12  C   UNL     1      -3.601   1.692   0.130  0.00  0.00    +0.251 C 
ATOM     13  O   UNL     1      -3.621   2.909   0.137  0.00  0.00    -0.270 OA
ATOM     14  H   UNL     1      -2.417   0.071  -0.064  0.00  0.00    +0.155 HD
BRANCH  11  18
ATOM     15  C   UNL     1       1.158   3.164   0.038  0.00  0.00    +0.121 A 
ATOM     16  C   UNL     1       0.082   3.613   0.789  0.00  0.00    +0.047 A 
ATOM     17  C   UNL     1      -1.107   2.912   0.780  0.00  0.00    +0.027 A 
ATOM     18  C   UNL     1      -1.224   1.753   0.023  0.00  0.00    +0.034 A 
ATOM     19  C   UNL     1      -0.148   1.308  -0.734  0.00  0.00    +0.027 A 
ATOM     20  C   UNL     1       1.041   2.010  -0.723  0.00  0.00    +0.047 A 
BRANCH  15  21
ATOM     21  O   UNL     1       2.329   3.856   0.047  0.00  0.00    -0.492 OA
BRANCH  21  23
ATOM     22  C   UNL     1       4.622   4.241  -0.613  0.00  0.00    +0.048 C 
ATOM     23  C   UNL     1       3.396   3.336  -0.750  0.00  0.00    +0.225 C 
ENDBRANCH  21  23
ENDBRANCH  15  21
ENDBRANCH  11  18
ENDBRANCH   1  12
BRANCH   5  24
ATOM     24  N   UNL     1      -5.283   0.826  -2.217  0.00  0.00    -0.281 N 
ATOM     25  C   UNL     1      -6.113   0.387  -3.185  0.00  0.00    +0.201 C 
ATOM     26  O   UNL     1      -7.115  -0.229  -2.891  0.00  0.00    -0.278 OA
ATOM     27  H   UNL     1      -4.482   1.318  -2.452  0.00  0.00    +0.155 HD
BRANCH  25  28
ATOM     28  C   UNL     1      -5.794   0.663  -4.632  0.00  0.00    +0.015 C 
BRANCH  28  29
ATOM     29  N   UNL     1      -6.852   0.081  -5.479  0.00  0.00    +0.385 N 
ATOM     30  H   UNL     1      -7.755   0.505  -5.233  0.00  0.00    -0.085 HD
ATOM     31  H   UNL     1      -6.896  -0.932  -5.318  0.00  0.00    -0.085 HD
BRANCH  29  32
ATOM     32  C   UNL     1      -6.566   0.336  -6.903  0.00  0.00    -0.077 C 
BRANCH  32  33
ATOM     33  C   UNL     1      -7.678  -0.278  -7.756  0.00  0.00    +0.016 C 
BRANCH  33  34
ATOM     34  C   UNL     1      -7.394  -0.022  -9.213  0.00  0.00    -0.049 A 
ATOM     35  C   UNL     1      -7.881   1.119  -9.823  0.00  0.00    +0.003 A 
ATOM     36  C   UNL     1      -7.615   1.357 -11.158  0.00  0.00    +0.000 A 
ATOM     37  C   UNL     1      -6.871   0.448 -11.887  0.00  0.00    +0.000 A 
ATOM     38  C   UNL     1      -6.389  -0.696 -11.279  0.00  0.00    +0.000 A 
ATOM     39  C   UNL     1      -6.650  -0.931  -9.942  0.00  0.00    +0.003 A 
ENDBRANCH  33  34
ENDBRANCH  32  33
ENDBRANCH  29  32
ENDBRANCH  28  29
ENDBRANCH  25  28
ENDBRANCH   5  24
TORSDOF 10
