REMARK  Name = ZINC13032829
REMARK  10 active torsions:
REMARK  status: ('A' for Active; 'I' for Inactive)
REMARK    1  A    between atoms: C_1  and  C_2
REMARK    2  A    between atoms: C_4  and  C_35
REMARK    3  A    between atoms: C_7  and  C_14
REMARK    4  A    between atoms: C_14  and  N_60
REMARK    5  A    between atoms: C_15  and  C_16
REMARK    6  A    between atoms: C_15  and  N_60
REMARK    7  A    between atoms: C_21  and  C_22
REMARK    8  A    between atoms: C_21  and  N_60
REMARK    9  A    between atoms: N_26  and  C_27
REMARK   10  A    between atoms: C_27  and  C_28
REMARK                            x       y       z     vdW  Elec       q    Type
REMARK                         _______ _______ _______ _____ _____    ______ ____
ROOT
ATOM      1  N   UNL     1       1.732  -2.776  -1.536  0.00  0.00    +0.392 N 
ATOM      2  H   UNL     1       0.954  -2.603  -2.183  0.00  0.00    -0.080 HD
ENDROOT
BRANCH   1   3
ATOM      3  C   UNL     1       1.800  -4.224  -1.244  0.00  0.00    -0.036 C 
BRANCH   3  10
ATOM      4  C   UNL     1      -5.600  -7.199  -1.158  0.00  0.00    +0.044 C 
ATOM      5  C   UNL     1      -4.202  -6.692  -1.401  0.00  0.00    -0.048 A 
ATOM      6  C   UNL     1      -3.650  -6.782  -2.672  0.00  0.00    +0.007 A 
ATOM      7  C   UNL     1      -2.385  -6.329  -2.914  0.00  0.00    -0.041 A 
ATOM      8  C   UNL     1      -1.637  -5.770  -1.872  0.00  0.00    +0.002 A 
ATOM      9  C   UNL     1      -0.280  -5.270  -2.097  0.00  0.00    +0.017 A 
ATOM     10  C   UNL     1       0.399  -4.743  -1.048  0.00  0.00    +0.001 A 
ATOM     11  C   UNL     1      -0.204  -4.675   0.226  0.00  0.00    +0.251 A 
ATOM     12  O   UNL     1       0.421  -4.193   1.155  0.00  0.00    -0.268 OA
ATOM     13  N   UNL     1      -1.452  -5.126   0.441  0.00  0.00    -0.322 N 
ATOM     14  H   UNL     1      -1.837  -5.064   1.330  0.00  0.00    +0.169 HD
ATOM     15  C   UNL     1      -2.193  -5.678  -0.582  0.00  0.00    +0.050 A 
ATOM     16  C   UNL     1      -3.484  -6.146  -0.360  0.00  0.00    +0.029 A 
ATOM     17  C   UNL     1      -1.796  -6.430  -4.298  0.00  0.00    +0.044 C 
ENDBRANCH   3  10
ENDBRANCH   1   3
BRANCH   1  18
ATOM     18  C   UNL     1       2.991  -2.329  -2.167  0.00  0.00    -0.002 C 
BRANCH  18  19
ATOM     19  C   UNL     1       3.030  -2.839  -3.585  0.00  0.00    +0.089 A 
ATOM     20  C   UNL     1       2.621  -2.165  -4.675  0.00  0.00    +0.042 A 
ATOM     21  C   UNL     1       2.836  -3.013  -5.785  0.00  0.00    +0.041 A 
ATOM     22  C   UNL     1       3.363  -4.154  -5.308  0.00  0.00    +0.195 A 
ATOM     23  O   UNL     1       3.483  -4.041  -3.975  0.00  0.00    -0.470 OA
ENDBRANCH  18  19
ENDBRANCH   1  18
BRANCH   1  24
ATOM     24  C   UNL     1       1.495  -2.020  -0.288  0.00  0.00    +0.001 C 
BRANCH  24  25
ATOM     25  C   UNL     1       1.285  -0.568  -0.631  0.00  0.00    +0.135 A 
ATOM     26  N   UNL     1       2.216   0.341  -0.790  0.00  0.00    -0.115 NA
ATOM     27  N   UNL     1       1.638   1.457  -1.075  0.00  0.00    -0.023 NA
ATOM     28  N   UNL     1       0.363   1.283  -1.103  0.00  0.00    -0.044 NA
ATOM     29  N   UNL     1       0.105   0.047  -0.833  0.00  0.00    -0.227 N 
BRANCH  29  30
ATOM     30  C   UNL     1      -1.221  -0.570  -0.762  0.00  0.00    +0.182 C 
BRANCH  30  31
ATOM     31  C   UNL     1      -1.682  -0.933  -2.150  0.00  0.00    -0.026 A 
ATOM     32  C   UNL     1      -2.313   0.011  -2.938  0.00  0.00    +0.008 A 
ATOM     33  C   UNL     1      -2.731  -0.320  -4.213  0.00  0.00    +0.038 A 
ATOM     34  C   UNL     1      -2.528  -1.601  -4.697  0.00  0.00    +0.123 A 
ATOM     35  C   UNL     1      -1.900  -2.548  -3.905  0.00  0.00    +0.038 A 
ATOM     36  C   UNL     1      -1.478  -2.213  -2.632  0.00  0.00    +0.008 A 
ATOM     37  F   UNL     1      -2.940  -1.927  -5.941  0.00  0.00    -0.205 F 
ENDBRANCH  30  31
ENDBRANCH  29  30
ENDBRANCH  24  25
ENDBRANCH   1  24
TORSDOF 8
