REMARK  Name = ZINC59325250
REMARK  5 active torsions:
REMARK  status: ('A' for Active; 'I' for Inactive)
REMARK    1  A    between atoms: C_1  and  C_2
REMARK    2  A    between atoms: C_2  and  C_3
REMARK    3  A    between atoms: C_3  and  C_4
REMARK    4  A    between atoms: C_12  and  N_16
REMARK    5  A    between atoms: C_17  and  C_19
REMARK                            x       y       z     vdW  Elec       q    Type
REMARK                         _______ _______ _______ _____ _____    ______ ____
ROOT
ATOM      1  C   UNL     1       0.780  -2.001  -1.268  0.00  0.00    +0.219 C 
ATOM      2  O   UNL     1       0.267  -2.616  -0.357  0.00  0.00    -0.275 OA
ATOM      3  N   UNL     1       1.361  -2.664  -2.287  0.00  0.00    -0.265 N 
ATOM      4  C   UNL     1       1.373  -4.050  -2.294  0.00  0.00    +0.165 A 
ATOM      5  N   UNL     1       0.871  -4.882  -1.412  0.00  0.00    -0.225 NA
ATOM      6  C   UNL     1       0.956  -6.224  -1.548  0.00  0.00    +0.080 A 
ATOM      7  C   UNL     1       0.461  -7.222  -0.677  0.00  0.00    +0.031 A 
ATOM      8  C   UNL     1       0.630  -8.541  -0.958  0.00  0.00    +0.025 A 
ATOM      9  C   UNL     1       1.294  -8.963  -2.108  0.00  0.00    +0.035 A 
ATOM     10  C   UNL     1       1.794  -8.012  -2.988  0.00  0.00    +0.040 A 
ATOM     11  C   UNL     1       1.625  -6.679  -2.707  0.00  0.00    +0.043 A 
ATOM     12  S   UNL     1       2.069  -5.159  -3.511  0.00  0.00    -0.052 S 
ATOM     13  H   UNL     1       1.772  -2.172  -3.014  0.00  0.00    +0.157 HD
ENDROOT
BRANCH   9  14
ATOM     14  N   UNL     1       1.456 -10.329  -2.373  0.00  0.00    -0.281 N 
ATOM     15  C   UNL     1       1.417 -10.778  -3.643  0.00  0.00    +0.250 C 
ATOM     16  O   UNL     1       1.327  -9.989  -4.564  0.00  0.00    -0.270 OA
ATOM     17  H   UNL     1       1.596 -10.951  -1.642  0.00  0.00    +0.155 HD
BRANCH  15  18
ATOM     18  C   UNL     1       1.483 -12.227  -3.916  0.00  0.00    +0.058 A 
ATOM     19  C   UNL     1       1.581 -13.136  -2.859  0.00  0.00    +0.055 A 
ATOM     20  C   UNL     1       1.643 -14.489  -3.119  0.00  0.00    +0.159 A 
ATOM     21  C   UNL     1       1.607 -14.948  -4.430  0.00  0.00    +0.160 A 
ATOM     22  C   UNL     1       1.510 -14.052  -5.481  0.00  0.00    +0.062 A 
ATOM     23  C   UNL     1       1.443 -12.696  -5.232  0.00  0.00    +0.056 A 
ATOM     24 CL   UNL     1       1.315 -11.574  -6.551  0.00  0.00    -0.083 Cl
ATOM     25  F   UNL     1       1.668 -16.275  -4.680  0.00  0.00    -0.202 F 
ATOM     26  F   UNL     1       1.738 -15.369  -2.099  0.00  0.00    -0.202 F 
ENDBRANCH  15  18
ENDBRANCH   9  14
BRANCH   1  27
ATOM     27  C   UNL     1       0.767  -0.494  -1.260  0.00  0.00    +0.096 C 
BRANCH  27  29
ATOM     28  C   UNL     1       0.039   1.534   0.006  0.00  0.00    +0.004 C 
ATOM     29  C   UNL     1       0.051   0.004  -0.002  0.00  0.00    +0.006 C 
ENDBRANCH  27  29
ENDBRANCH   1  27
TORSDOF 4
