REMARK  Name = ZINC16557595
REMARK  10 active torsions:
REMARK  status: ('A' for Active; 'I' for Inactive)
REMARK    1  A    between atoms: C_1  and  C_2
REMARK    2  A    between atoms: C_2  and  C_4
REMARK    3  A    between atoms: C_2  and  O_15
REMARK    4  A    between atoms: N_6  and  C_7
REMARK    5  A    between atoms: O_15  and  C_16
REMARK    6  A    between atoms: C_16  and  C_18
REMARK    7  A    between atoms: C_22  and  S_24
REMARK    8  A    between atoms: S_24  and  N_27
REMARK    9  A    between atoms: N_27  and  C_28
REMARK   10  A    between atoms: C_28  and  C_29
REMARK                            x       y       z     vdW  Elec       q    Type
REMARK                         _______ _______ _______ _____ _____    ______ ____
ROOT
ATOM      1  C   UNL     1      -4.310  -3.231  -1.004  0.00  0.00    +0.340 C 
ATOM      2  O   UNL     1      -5.283  -2.709  -1.510  0.00  0.00    -0.245 OA
ENDROOT
BRANCH   1   3
ATOM      3  C   UNL     1      -4.090  -4.684  -1.153  0.00  0.00    +0.061 A 
ATOM      4  C   UNL     1      -2.973  -5.288  -0.573  0.00  0.00    +0.015 A 
ATOM      5  C   UNL     1      -2.774  -6.645  -0.715  0.00  0.00    +0.003 A 
ATOM      6  C   UNL     1      -3.679  -7.409  -1.432  0.00  0.00    +0.028 A 
ATOM      7  C   UNL     1      -4.789  -6.817  -2.009  0.00  0.00    +0.106 A 
ATOM      8  C   UNL     1      -5.002  -5.461  -1.870  0.00  0.00    +0.043 A 
BRANCH   7   9
ATOM      9  S   UNL     1      -5.935  -7.799  -2.918  0.00  0.00    +0.059 S 
ATOM     10  O   UNL     1      -6.597  -6.921  -3.818  0.00  0.00    -0.153 OA
ATOM     11  O   UNL     1      -5.225  -8.948  -3.359  0.00  0.00    -0.153 OA
BRANCH   9  12
ATOM     12  N   UNL     1      -7.080  -8.332  -1.848  0.00  0.00    -0.178 NA
ATOM     13  H   UNL     1      -7.162  -9.280  -1.657  0.00  0.00    +0.149 HD
BRANCH  12  14
ATOM     14  C   UNL     1      -7.970  -7.373  -1.189  0.00  0.00    +0.194 C 
BRANCH  14  15
ATOM     15  C   UNL     1      -9.104  -8.090  -0.585  0.00  0.00    -0.089 C 
ATOM     16  C   UNL     1     -10.009  -8.663  -0.103  0.00  0.00    +0.005 C 
ENDBRANCH  14  15
ENDBRANCH  12  14
ENDBRANCH   9  12
ENDBRANCH   7   9
ENDBRANCH   1   3
BRANCH   1  17
ATOM     17  O   UNL     1      -3.432  -2.485  -0.307  0.00  0.00    -0.449 OA
BRANCH  17  19
ATOM     18  C   UNL     1      -4.564  -0.803   1.041  0.00  0.00    +0.062 C 
ATOM     19  C   UNL     1      -3.711  -1.064  -0.202  0.00  0.00    +0.259 C 
BRANCH  19  20
ATOM     20  C   UNL     1      -2.414  -0.304  -0.090  0.00  0.00    +0.258 C 
ATOM     21  O   UNL     1      -1.359  -0.901  -0.099  0.00  0.00    -0.271 OA
ATOM     22  N   UNL     1      -2.428   1.039   0.019  0.00  0.00    -0.281 N 
ATOM     23  H   UNL     1      -3.272   1.512   0.091  0.00  0.00    +0.155 HD
BRANCH  22  24
ATOM     24  C   UNL     1      -1.224   1.753   0.029  0.00  0.00    +0.052 A 
ATOM     25  C   UNL     1      -0.096   1.206   0.626  0.00  0.00    +0.026 A 
ATOM     26  C   UNL     1       1.093   1.910   0.628  0.00  0.00    +0.022 A 
ATOM     27  C   UNL     1       1.159   3.162   0.042  0.00  0.00    +0.042 A 
ATOM     28  C   UNL     1       0.036   3.712  -0.549  0.00  0.00    +0.041 A 
ATOM     29  C   UNL     1      -1.156   3.013  -0.554  0.00  0.00    +0.064 A 
ATOM     30 CL   UNL     1      -2.566   3.704  -1.295  0.00  0.00    -0.082 Cl
ATOM     31 CL   UNL     1       2.655   4.043   0.047  0.00  0.00    -0.083 Cl
ENDBRANCH  22  24
ENDBRANCH  19  20
ENDBRANCH  17  19
ENDBRANCH   1  17
TORSDOF 9
