REMARK  Name = ZINC38653688
REMARK  8 active torsions:
REMARK  status: ('A' for Active; 'I' for Inactive)
REMARK    1  A    between atoms: C_1  and  O_2
REMARK    2  A    between atoms: O_2  and  C_3
REMARK    3  A    between atoms: C_3  and  C_5
REMARK    4  A    between atoms: C_7  and  N_16
REMARK    5  A    between atoms: C_17  and  C_19
REMARK    6  A    between atoms: C_19  and  C_20
REMARK    7  A    between atoms: C_19  and  C_26
REMARK    8  A    between atoms: C_19  and  O_32
REMARK                            x       y       z     vdW  Elec       q    Type
REMARK                         _______ _______ _______ _____ _____    ______ ____
ROOT
ATOM      1  N   UNL     1       0.907  -2.334   2.184  0.00  0.00    -0.283 N 
ATOM      2  C   UNL     1       0.449  -3.035   3.240  0.00  0.00    +0.258 C 
ATOM      3  O   UNL     1      -0.475  -3.807   3.100  0.00  0.00    -0.272 OA
ATOM      4  H   UNL     1       1.682  -1.759   2.282  0.00  0.00    +0.155 HD
ENDROOT
BRANCH   1   6
ATOM      5  C   UNL     1      -0.876  -3.338   0.621  0.00  0.00    +0.234 C 
ATOM      6  C   UNL     1       0.281  -2.432   0.978  0.00  0.00    +0.053 C 
ATOM      7  C   UNL     1       0.571  -1.722  -0.175  0.00  0.00    +0.019 A 
ATOM      8  C   UNL     1       1.540  -0.732  -0.468  0.00  0.00    +0.026 A 
ATOM      9  C   UNL     1       1.598  -0.196  -1.713  0.00  0.00    +0.019 A 
ATOM     10  C   UNL     1       0.720  -0.597  -2.725  0.00  0.00    +0.017 A 
ATOM     11  C   UNL     1      -0.232  -1.538  -2.515  0.00  0.00    +0.027 A 
ATOM     12  C   UNL     1      -0.356  -2.145  -1.238  0.00  0.00    +0.045 A 
ATOM     13  N   UNL     1      -1.184  -3.067  -0.787  0.00  0.00    -0.367 N 
ATOM     14 BR   UNL     1       2.898   1.124  -2.089  0.00  0.00    -0.050 Br
ATOM     15  H   UNL     1      -1.883  -3.498  -1.304  0.00  0.00    +0.161 HD
BRANCH   5  16
ATOM     16  C   UNL     1      -0.479  -4.781   0.797  0.00  0.00    +0.335 C 
ATOM     17  O   UNL     1       0.257  -5.307  -0.003  0.00  0.00    -0.248 OA
BRANCH  16  19
ATOM     18  C   UNL     1      -0.526  -6.844   1.949  0.00  0.00    +0.280 C 
ATOM     19  O   UNL     1      -0.943  -5.481   1.844  0.00  0.00    -0.466 OA
ENDBRANCH  16  19
ENDBRANCH   5  16
ENDBRANCH   1   6
BRANCH   2  20
ATOM     20  C   UNL     1       1.086  -2.859   4.594  0.00  0.00    +0.192 C 
BRANCH  20  21
ATOM     21  C   UNL     1       0.463  -1.678   5.293  0.00  0.00    -0.003 A 
ATOM     22  C   UNL     1      -0.900  -1.465   5.209  0.00  0.00    +0.007 A 
ATOM     23  C   UNL     1      -1.471  -0.381   5.849  0.00  0.00    +0.000 A 
ATOM     24  C   UNL     1      -0.679   0.489   6.574  0.00  0.00    +0.000 A 
ATOM     25  C   UNL     1       0.684   0.276   6.659  0.00  0.00    +0.000 A 
ATOM     26  C   UNL     1       1.255  -0.810   6.021  0.00  0.00    +0.007 A 
ENDBRANCH  20  21
BRANCH  20  27
ATOM     27  C   UNL     1       0.866  -4.102   5.417  0.00  0.00    -0.003 A 
ATOM     28  C   UNL     1       1.943  -4.888   5.784  0.00  0.00    +0.007 A 
ATOM     29  C   UNL     1       1.742  -6.028   6.539  0.00  0.00    +0.000 A 
ATOM     30  C   UNL     1       0.463  -6.383   6.928  0.00  0.00    +0.000 A 
ATOM     31  C   UNL     1      -0.614  -5.597   6.562  0.00  0.00    +0.000 A 
ATOM     32  C   UNL     1      -0.412  -4.454   5.811  0.00  0.00    +0.007 A 
ENDBRANCH  20  27
BRANCH  20  33
ATOM     33  O   UNL     1       2.488  -2.635   4.436  0.00  0.00    -0.371 OA
ATOM     34  H   UNL     1       2.954  -3.356   3.993  0.00  0.00    +0.212 HD
ENDBRANCH  20  33
ENDBRANCH   2  20
TORSDOF 7
