REMARK  Name = ZINC09192103
REMARK  11 active torsions:
REMARK  status: ('A' for Active; 'I' for Inactive)
REMARK    1  A    between atoms: C_1  and  C_2
REMARK    2  A    between atoms: C_2  and  O_3
REMARK    3  A    between atoms: O_3  and  C_4
REMARK    4  A    between atoms: C_7  and  C_13
REMARK    5  A    between atoms: C_9  and  O_10
REMARK    6  A    between atoms: O_10  and  C_11
REMARK    7  A    between atoms: C_11  and  C_12
REMARK    8  A    between atoms: C_13  and  C_14
REMARK    9  A    between atoms: C_14  and  N_15
REMARK   10  A    between atoms: C_22  and  C_32
REMARK   11  A    between atoms: C_27  and  O_31
REMARK                            x       y       z     vdW  Elec       q    Type
REMARK                         _______ _______ _______ _____ _____    ______ ____
ROOT
ATOM      1  N   UNL     1       2.544  -8.000   1.241  0.00  0.00    -0.320 N 
ATOM      2  C   UNL     1       3.245  -8.495   2.241  0.00  0.00    +0.204 A 
ATOM      3  N   UNL     1       3.379  -9.793   2.424  0.00  0.00    -0.203 NA
ATOM      4  C   UNL     1       2.804 -10.663   1.594  0.00  0.00    +0.229 A 
ATOM      5  C   UNL     1       2.058 -10.182   0.532  0.00  0.00    +0.064 A 
ATOM      6  C   UNL     1       1.934  -8.805   0.373  0.00  0.00    +0.107 A 
ATOM      7  N   UNL     1       1.192  -8.280  -0.674  0.00  0.00    -0.344 N 
ATOM      8  C   UNL     1       1.391 -11.118  -0.434  0.00  0.00    +0.091 C 
ATOM      9  C   UNL     1       1.307 -12.504   0.148  0.00  0.00    +0.007 A 
ATOM     10  C   UNL     1       0.435 -13.422  -0.412  0.00  0.00    +0.012 A 
ATOM     11  C   UNL     1       0.341 -14.698   0.104  0.00  0.00    +0.046 A 
ATOM     12  C   UNL     1       1.123 -15.067   1.190  0.00  0.00    +0.120 A 
ATOM     13  C   UNL     1       1.996 -14.151   1.753  0.00  0.00    +0.092 A 
ATOM     14  C   UNL     1       2.091 -12.866   1.232  0.00  0.00    +0.138 A 
ATOM     15  O   UNL     1       2.954 -11.988   1.798  0.00  0.00    -0.437 OA
ATOM     16  H   UNL     1       1.114  -7.319  -0.779  0.00  0.00    +0.144 HD
ATOM     17  H   UNL     1       0.752  -8.874  -1.302  0.00  0.00    +0.144 HD
ENDROOT
BRANCH   8  18
ATOM     18  C   UNL     1       2.188 -11.167  -1.712  0.00  0.00    -0.035 A 
ATOM     19  C   UNL     1       3.503 -11.594  -1.691  0.00  0.00    +0.004 A 
ATOM     20  C   UNL     1       4.234 -11.639  -2.863  0.00  0.00    +0.000 A 
ATOM     21  C   UNL     1       3.651 -11.257  -4.057  0.00  0.00    +0.000 A 
ATOM     22  C   UNL     1       2.336 -10.831  -4.078  0.00  0.00    +0.000 A 
ATOM     23  C   UNL     1       1.603 -10.790  -2.906  0.00  0.00    +0.004 A 
ENDBRANCH   8  18
BRANCH  12  24
ATOM     24  O   UNL     1       1.032 -16.323   1.699  0.00  0.00    -0.507 OA
ATOM     25  H   UNL     1       1.643 -16.956   1.297  0.00  0.00    +0.292 HD
ENDBRANCH  12  24
BRANCH   1  26
ATOM     26  C   UNL     1       2.428  -6.548   1.087  0.00  0.00    +0.129 C 
BRANCH  26  27
ATOM     27  C   UNL     1       1.142  -6.064   1.761  0.00  0.00    +0.057 C 
BRANCH  27  31
ATOM     28  C   UNL     1       0.802  -1.825   1.306  0.00  0.00    +0.162 A 
ATOM     29  C   UNL     1       0.261  -2.673   0.353  0.00  0.00    +0.050 A 
ATOM     30  C   UNL     1       0.372  -4.043   0.502  0.00  0.00    +0.007 A 
ATOM     31  C   UNL     1       1.024  -4.570   1.602  0.00  0.00    -0.042 A 
ATOM     32  C   UNL     1       1.566  -3.730   2.557  0.00  0.00    +0.053 A 
ATOM     33  C   UNL     1       1.462  -2.356   2.410  0.00  0.00    +0.162 A 
BRANCH  28  34
ATOM     34  O   UNL     1       0.693  -0.477   1.160  0.00  0.00    -0.489 OA
BRANCH  34  36
ATOM     35  C   UNL     1      -0.019   1.526   0.010  0.00  0.00    +0.048 C 
ATOM     36  C   UNL     1       0.002  -0.004   0.002  0.00  0.00    +0.226 C 
ENDBRANCH  34  36
ENDBRANCH  28  34
BRANCH  33  37
ATOM     37  O   UNL     1       2.000  -1.528   3.345  0.00  0.00    -0.489 OA
BRANCH  37  38
ATOM     38  C   UNL     1       2.664  -2.143   4.451  0.00  0.00    +0.226 C 
ATOM     39  C   UNL     1       3.200  -1.060   5.390  0.00  0.00    +0.048 C 
ENDBRANCH  37  38
ENDBRANCH  33  37
ENDBRANCH  27  31
ENDBRANCH  26  27
ENDBRANCH   1  26
TORSDOF 9
