REMARK  Name = ZINC59819681
REMARK  9 active torsions:
REMARK  status: ('A' for Active; 'I' for Inactive)
REMARK    1  A    between atoms: C_1  and  C_2
REMARK    2  A    between atoms: C_2  and  C_4
REMARK    3  A    between atoms: C_2  and  S_9
REMARK    4  A    between atoms: N_6  and  C_7
REMARK    5  A    between atoms: N_6  and  C_8
REMARK    6  A    between atoms: S_9  and  C_10
REMARK    7  A    between atoms: N_15  and  N_16
REMARK    8  A    between atoms: C_17  and  C_18
REMARK    9  A    between atoms: C_17  and  C_19
REMARK                            x       y       z     vdW  Elec       q    Type
REMARK                         _______ _______ _______ _____ _____    ______ ____
ROOT
ATOM      1  C   UNL     1      -2.365  -0.093  -1.525  0.00  0.00    +0.211 A 
ATOM      2  N   UNL     1      -3.609  -0.323  -1.957  0.00  0.00    -0.186 NA
ATOM      3  C   UNL     1      -3.772   0.219  -3.146  0.00  0.00    +0.232 A 
ATOM      4  N   UNL     1      -2.612   0.813  -3.496  0.00  0.00    -0.245 N 
ATOM      5  N   UNL     1      -1.720   0.602  -2.432  0.00  0.00    -0.144 NA
ATOM      6  N   UNL     1      -4.929   0.186  -3.903  0.00  0.00    -0.205 N 
ATOM      7  H   UNL     1      -4.953   0.616  -4.772  0.00  0.00    +0.177 HD
ATOM      8  H   UNL     1      -2.431   1.294  -4.319  0.00  0.00    +0.192 HD
ENDROOT
BRANCH   6   9
ATOM      9  N   UNL     1      -6.067  -0.469  -3.414  0.00  0.00    -0.184 NA
ATOM     10  C   UNL     1      -7.154  -0.500  -4.124  0.00  0.00    +0.063 C 
ATOM     11  C   UNL     1      -7.190   0.168  -5.475  0.00  0.00    +0.068 C 
BRANCH  10  12
ATOM     12  C   UNL     1      -8.351  -1.190  -3.610  0.00  0.00    -0.002 A 
ATOM     13  C   UNL     1      -9.520  -1.230  -4.375  0.00  0.00    +0.011 A 
ATOM     14  C   UNL     1     -10.636  -1.877  -3.888  0.00  0.00    +0.016 A 
ATOM     15  C   UNL     1     -10.601  -2.486  -2.645  0.00  0.00    +0.018 A 
ATOM     16  C   UNL     1      -9.446  -2.449  -1.882  0.00  0.00    +0.016 A 
ATOM     17  C   UNL     1      -8.320  -1.810  -2.359  0.00  0.00    +0.011 A 
ATOM     18 BR   UNL     1     -12.137  -3.370  -1.985  0.00  0.00    -0.050 Br
ENDBRANCH  10  12
ENDBRANCH   6   9
BRANCH   1  19
ATOM     19  S   UNL     1      -1.700  -0.632   0.015  0.00  0.00    -0.072 S 
BRANCH  19  21
ATOM     20  C   UNL     1      -0.019   1.526   0.010  0.00  0.00    +0.029 C 
ATOM     21  C   UNL     1       0.002  -0.004   0.002  0.00  0.00    +0.137 C 
BRANCH  21  22
ATOM     22  C   UNL     1       0.731  -0.503   1.223  0.00  0.00    +0.228 C 
ATOM     23  O   UNL     1       0.105  -0.891   2.187  0.00  0.00    -0.274 OA
ATOM     24  N   UNL     1       2.079  -0.519   1.244  0.00  0.00    -0.307 N 
ATOM     25  C   UNL     1       2.787  -1.004   2.431  0.00  0.00    +0.131 C 
ATOM     26  C   UNL     1       2.835  -0.050   0.080  0.00  0.00    +0.131 C 
ENDBRANCH  21  22
ENDBRANCH  19  21
ENDBRANCH   1  19
TORSDOF 5
