REMARK  Name = ZINC23826711
REMARK  10 active torsions:
REMARK  status: ('A' for Active; 'I' for Inactive)
REMARK    1  A    between atoms: C_1  and  C_2
REMARK    2  A    between atoms: C_7  and  N_8
REMARK    3  A    between atoms: C_9  and  C_11
REMARK    4  A    between atoms: C_11  and  N_12
REMARK    5  A    between atoms: N_12  and  C_13
REMARK    6  A    between atoms: N_12  and  C_14
REMARK    7  A    between atoms: C_14  and  C_15
REMARK    8  A    between atoms: C_22  and  C_26
REMARK    9  A    between atoms: C_26  and  O_28
REMARK   10  A    between atoms: O_28  and  C_29
REMARK                            x       y       z     vdW  Elec       q    Type
REMARK                         _______ _______ _______ _____ _____    ______ ____
ROOT
ATOM      1  C   UNL     1      -2.463   0.807   0.046  0.00  0.00    +0.159 C 
ENDROOT
BRANCH   1   2
ATOM      2  C   UNL     1      -1.197   1.624   0.045  0.00  0.00    +0.126 A 
ATOM      3  N   UNL     1      -0.007   0.968   0.046  0.00  0.00    -0.194 NA
ATOM      4  C   UNL     1       1.159   1.656   0.040  0.00  0.00    +0.281 A 
ATOM      5  O   UNL     1       2.232   1.081   0.035  0.00  0.00    -0.265 OA
ATOM      6  C   UNL     1       1.079   3.126   0.039  0.00  0.00    +0.065 A 
ATOM      7  C   UNL     1       2.221   3.924   0.032  0.00  0.00    +0.016 A 
ATOM      8  C   UNL     1       2.101   5.285   0.031  0.00  0.00    +0.016 A 
ATOM      9  C   UNL     1       0.837   5.888   0.036  0.00  0.00    +0.061 A 
ATOM     10  C   UNL     1      -0.315   5.110   0.043  0.00  0.00    +0.041 A 
ATOM     11  C   UNL     1      -0.203   3.719   0.044  0.00  0.00    +0.054 A 
ATOM     12  N   UNL     1      -1.299   2.918   0.050  0.00  0.00    -0.342 N 
ATOM     13  H   UNL     1      -2.292   3.392   0.059  0.00  0.00    +0.167 HD
BRANCH   9  14
ATOM     14  C   UNL     1       0.728   7.363   0.035  0.00  0.00    +0.339 C 
ATOM     15  O   UNL     1      -0.366   7.891   0.040  0.00  0.00    -0.245 OA
BRANCH  14  16
ATOM     16  O   UNL     1       1.841   8.121   0.029  0.00  0.00    -0.464 OA
ATOM     17  C   UNL     1       1.658   9.562   0.028  0.00  0.00    +0.280 C 
ENDBRANCH  14  16
ENDBRANCH   9  14
ENDBRANCH   1   2
BRANCH   1  18
ATOM     18  N   UNL     1      -3.625   1.706   0.045  0.00  0.00    -0.290 NA
ATOM     19  C   UNL     1      -3.701   2.467  -1.209  0.00  0.00    +0.105 C 
BRANCH  18  20
ATOM     20  C   UNL     1      -4.868   0.959   0.283  0.00  0.00    +0.181 C 
BRANCH  20  22
ATOM     21  N   UNL     1      -7.241   1.466   0.762  0.00  0.00    -0.284 N 
ATOM     22  C   UNL     1      -5.998   1.928   0.520  0.00  0.00    +0.231 C 
ATOM     23  O   UNL     1      -5.789   3.122   0.492  0.00  0.00    -0.274 OA
ATOM     24  H   UNL     1      -7.450   0.388   0.698  0.00  0.00    +0.155 HD
BRANCH  21  31
ATOM     25  C   UNL     1      -9.925   0.698   0.209  0.00  0.00    +0.046 C 
ATOM     26  C   UNL     1      -9.590   2.024   0.843  0.00  0.00    -0.028 A 
ATOM     27  C   UNL     1     -10.600   2.905   1.178  0.00  0.00    +0.020 A 
ATOM     28  C   UNL     1     -10.293   4.125   1.754  0.00  0.00    +0.018 A 
ATOM     29  C   UNL     1      -8.974   4.463   2.002  0.00  0.00    +0.017 A 
ATOM     30  C   UNL     1      -7.961   3.584   1.674  0.00  0.00    +0.024 A 
ATOM     31  C   UNL     1      -8.266   2.359   1.095  0.00  0.00    +0.036 A 
ATOM     32 BR   UNL     1     -11.678   5.331   2.204  0.00  0.00    -0.050 Br
ENDBRANCH  21  31
ENDBRANCH  20  22
ENDBRANCH  18  20
ENDBRANCH   1  18
TORSDOF 7
