REMARK  Name = ZINC09518355
REMARK  6 active torsions:
REMARK  status: ('A' for Active; 'I' for Inactive)
REMARK    1  A    between atoms: C_7  and  N_24
REMARK    2  A    between atoms: C_8  and  C_10
REMARK    3  A    between atoms: N_12  and  C_13
REMARK    4  A    between atoms: C_16  and  O_19
REMARK    5  A    between atoms: O_19  and  C_20
REMARK    6  A    between atoms: C_25  and  C_27
REMARK                            x       y       z     vdW  Elec       q    Type
REMARK                         _______ _______ _______ _____ _____    ______ ____
ROOT
ATOM      1  C   UNL     1      -0.949   2.793   1.499  0.00  0.00    +0.001 A 
ATOM      2  C   UNL     1      -0.943   1.428   1.248  0.00  0.00    +0.004 A 
ATOM      3  C   UNL     1       0.154   0.822   0.677  0.00  0.00    +0.047 A 
ATOM      4  C   UNL     1       1.268   1.583   0.338  0.00  0.00    +0.138 A 
ATOM      5  C   UNL     1       1.254   2.966   0.591  0.00  0.00    +0.042 A 
ATOM      6  C   UNL     1       0.135   3.560   1.175  0.00  0.00    +0.013 A 
ATOM      7  C   UNL     1       2.553   3.469   0.128  0.00  0.00    +0.092 A 
ATOM      8  C   UNL     1       3.226   2.381  -0.354  0.00  0.00    +0.212 A 
ATOM      9  O   UNL     1       2.455   1.278  -0.222  0.00  0.00    -0.448 OA
ENDROOT
BRANCH   8  10
ATOM     10  C   UNL     1       4.572   2.405  -0.923  0.00  0.00    +0.285 C 
ATOM     11  O   UNL     1       5.147   3.467  -1.080  0.00  0.00    -0.266 OA
ATOM     12  N   UNL     1       5.177   1.253  -1.273  0.00  0.00    -0.279 N 
ATOM     13  H   UNL     1       4.751   0.404  -1.080  0.00  0.00    +0.155 HD
BRANCH  12  14
ATOM     14  C   UNL     1       6.421   1.282  -1.915  0.00  0.00    +0.034 A 
ATOM     15  C   UNL     1       6.777   2.379  -2.690  0.00  0.00    +0.027 A 
ATOM     16  C   UNL     1       8.005   2.409  -3.320  0.00  0.00    +0.048 A 
ATOM     17  C   UNL     1       8.880   1.340  -3.187  0.00  0.00    +0.130 A 
ATOM     18  C   UNL     1       8.523   0.242  -2.417  0.00  0.00    +0.048 A 
ATOM     19  C   UNL     1       7.296   0.213  -1.783  0.00  0.00    +0.027 A 
BRANCH  17  20
ATOM     20  O   UNL     1      10.087   1.368  -3.812  0.00  0.00    -0.406 OA
BRANCH  20  21
ATOM     21  C   UNL     1      10.389   2.530  -4.587  0.00  0.00    +0.575 C 
ATOM     22  F   UNL     1      10.366   3.660  -3.763  0.00  0.00    -0.133 F 
ATOM     23  F   UNL     1      11.660   2.393  -5.156  0.00  0.00    -0.133 F 
ATOM     24  F   UNL     1       9.438   2.673  -5.603  0.00  0.00    -0.133 F 
ENDBRANCH  20  21
ENDBRANCH  17  20
ENDBRANCH  12  14
ENDBRANCH   8  10
BRANCH   7  25
ATOM     25  N   UNL     1       3.005   4.783   0.171  0.00  0.00    -0.280 N 
ATOM     26  C   UNL     1       2.132   5.801   0.040  0.00  0.00    +0.246 C 
ATOM     27  O   UNL     1       0.943   5.575  -0.028  0.00  0.00    -0.273 OA
ATOM     28  H   UNL     1       3.950   4.967   0.295  0.00  0.00    +0.155 HD
BRANCH  26  29
ATOM     29  C   UNL     1       2.634   7.221  -0.024  0.00  0.00    +0.204 C 
ATOM     30  C   UNL     1       3.263   7.630   1.327  0.00  0.00    +0.043 C 
ATOM     31  C   UNL     1       2.853   9.109   1.500  0.00  0.00    +0.031 C 
ATOM     32  C   UNL     1       2.025   9.419   0.233  0.00  0.00    +0.161 C 
ATOM     33  O   UNL     1       1.533   8.136  -0.212  0.00  0.00    -0.367 OA
ENDBRANCH  26  29
ENDBRANCH   7  25
TORSDOF 6
