REMARK  Name = ZINC29040018
REMARK  9 active torsions:
REMARK  status: ('A' for Active; 'I' for Inactive)
REMARK    1  A    between atoms: C_1  and  C_2
REMARK    2  A    between atoms: C_2  and  C_3
REMARK    3  A    between atoms: C_3  and  C_5
REMARK    4  A    between atoms: C_3  and  O_32
REMARK    5  A    between atoms: C_5  and  N_7
REMARK    6  A    between atoms: C_5  and  O_31
REMARK    7  A    between atoms: C_14  and  C_25
REMARK    8  A    between atoms: C_15  and  C_18
REMARK    9  A    between atoms: C_23  and  C_24
REMARK                            x       y       z     vdW  Elec       q    Type
REMARK                         _______ _______ _______ _____ _____    ______ ____
ROOT
ATOM      1  N   UNL     1      -1.177  -0.720   0.010  0.00  0.00    -0.279 N 
ATOM      2  C   UNL     1      -0.001  -0.005   0.103  0.00  0.00    +0.055 A 
ATOM      3  C   UNL     1       1.220  -0.669   0.189  0.00  0.00    +0.026 A 
ATOM      4  C   UNL     1       2.389   0.052   0.283  0.00  0.00    +0.002 A 
ATOM      5  C   UNL     1       2.365   1.440   0.293  0.00  0.00    +0.001 A 
ATOM      6  C   UNL     1       1.179   2.113   0.210  0.00  0.00    +0.010 A 
ATOM      7  C   UNL     1      -0.020   1.401   0.114  0.00  0.00    +0.007 A 
ATOM      8  C   UNL     1      -1.306   2.108   0.030  0.00  0.00    +0.004 A 
ATOM      9  C   UNL     1      -2.470   1.352  -0.070  0.00  0.00    +0.055 A 
ATOM     10  C   UNL     1      -2.371  -0.109  -0.074  0.00  0.00    +0.262 A 
ATOM     11  O   UNL     1      -3.385  -0.779  -0.155  0.00  0.00    -0.267 OA
ENDROOT
BRANCH   9  12
ATOM     12  C   UNL     1      -3.789   2.014  -0.164  0.00  0.00    -0.009 A 
ATOM     13  C   UNL     1      -4.185   2.622  -1.357  0.00  0.00    +0.009 A 
ATOM     14  C   UNL     1      -5.418   3.233  -1.440  0.00  0.00    +0.001 A 
ATOM     15  C   UNL     1      -6.258   3.255  -0.340  0.00  0.00    +0.000 A 
ATOM     16  C   UNL     1      -5.870   2.659   0.847  0.00  0.00    +0.004 A 
ATOM     17  C   UNL     1      -4.641   2.040   0.941  0.00  0.00    -0.043 A 
ATOM     18  C   UNL     1      -4.219   1.392   2.235  0.00  0.00    +0.044 C 
ENDBRANCH   9  12
BRANCH   8  19
ATOM     19  C   UNL     1      -1.361   3.586   0.039  0.00  0.00    -0.014 A 
ATOM     20  C   UNL     1      -1.812   4.296  -1.080  0.00  0.00    +0.028 A 
ATOM     21  C   UNL     1      -1.851   5.675  -1.026  0.00  0.00    +0.111 A 
ATOM     22  N   UNL     1      -1.462   6.322   0.055  0.00  0.00    -0.263 NA
ATOM     23  C   UNL     1      -1.026   5.692   1.129  0.00  0.00    +0.111 A 
ATOM     24  C   UNL     1      -0.958   4.314   1.165  0.00  0.00    +0.028 A 
ENDBRANCH   8  19
BRANCH   1  25
ATOM     25  C   UNL     1      -1.123  -2.184   0.001  0.00  0.00    +0.247 C 
BRANCH  25  26
ATOM     26  O   UNL     1      -1.981  -2.687  -1.025  0.00  0.00    -0.369 OA
ATOM     27  H   UNL     1      -1.805  -2.408  -2.075  0.00  0.00    +0.212 HD
ENDBRANCH  25  26
BRANCH  25  28
ATOM     28  C   UNL     1      -1.584  -2.720   1.359  0.00  0.00    +0.164 C 
BRANCH  28  30
ATOM     29  C   UNL     1      -1.752  -4.760   2.791  0.00  0.00    +0.006 C 
ATOM     30  C   UNL     1      -1.410  -4.239   1.393  0.00  0.00    +0.032 C 
ENDBRANCH  28  30
BRANCH  28  31
ATOM     31  O   UNL     1      -2.961  -2.393   1.557  0.00  0.00    -0.387 OA
ATOM     32  H   UNL     1      -3.281  -1.341   1.563  0.00  0.00    +0.210 HD
ENDBRANCH  28  31
ENDBRANCH  25  28
ENDBRANCH   1  25
TORSDOF 7
