REMARK  Name = ZINC63302963
REMARK  8 active torsions:
REMARK  status: ('A' for Active; 'I' for Inactive)
REMARK    1  A    between atoms: C_1  and  C_2
REMARK    2  A    between atoms: C_2  and  N_3
REMARK    3  A    between atoms: C_5  and  C_24
REMARK    4  A    between atoms: C_11  and  N_15
REMARK    5  A    between atoms: C_21  and  C_23
REMARK    6  A    between atoms: N_26  and  C_27
REMARK    7  A    between atoms: C_27  and  C_28
REMARK    8  A    between atoms: C_28  and  C_29
REMARK                            x       y       z     vdW  Elec       q    Type
REMARK                         _______ _______ _______ _____ _____    ______ ____
ROOT
ATOM      1  N   UNL     1      -2.135  -1.330  -0.586  0.00  0.00    -0.325 N 
ATOM      2  C   UNL     1      -2.915  -1.674   0.609  0.00  0.00    +0.149 C 
ATOM      3  C   UNL     1      -3.772  -2.881   0.331  0.00  0.00    +0.078 C 
ATOM      4  C   UNL     1      -4.218  -3.139  -0.934  0.00  0.00    +0.198 C 
ATOM      5  O   UNL     1      -5.005  -4.212  -1.176  0.00  0.00    -0.287 OA
ATOM      6  C   UNL     1      -3.834  -2.238  -2.030  0.00  0.00    +0.046 A 
ATOM      7  C   UNL     1      -2.773  -1.330  -1.824  0.00  0.00    +0.043 A 
ATOM      8  C   UNL     1      -2.388  -0.472  -2.835  0.00  0.00    +0.049 A 
ATOM      9  C   UNL     1      -3.054  -0.500  -4.054  0.00  0.00    +0.067 A 
ATOM     10  C   UNL     1      -4.108  -1.391  -4.262  0.00  0.00    +0.145 A 
ATOM     11  C   UNL     1      -4.498  -2.263  -3.258  0.00  0.00    +0.053 A 
ATOM     12  F   UNL     1      -4.750  -1.408  -5.450  0.00  0.00    -0.204 F 
ENDROOT
BRANCH   9  13
ATOM     13  N   UNL     1      -2.667   0.364  -5.076  0.00  0.00    -0.325 N 
ATOM     14  C   UNL     1      -3.271   1.699  -5.195  0.00  0.00    +0.124 C 
ATOM     15  C   UNL     1      -2.150   2.745  -5.197  0.00  0.00    +0.126 C 
ATOM     16  N   UNL     1      -1.130   2.340  -6.174  0.00  0.00    -0.299 N 
ATOM     17  C   UNL     1      -0.526   1.005  -6.055  0.00  0.00    +0.126 C 
ATOM     18  C   UNL     1      -1.643  -0.039  -6.050  0.00  0.00    +0.124 C 
ATOM     19  C   UNL     1      -0.756   3.176  -7.162  0.00  0.00    +0.213 C 
ATOM     20  O   UNL     1      -1.327   4.237  -7.308  0.00  0.00    -0.276 OA
ATOM     21  C   UNL     1       0.372   2.795  -8.085  0.00  0.00    +0.109 C 
ENDBRANCH   9  13
BRANCH   3  22
ATOM     22  C   UNL     1      -4.116  -3.750   1.383  0.00  0.00    +0.245 C 
ATOM     23  O   UNL     1      -4.809  -4.729   1.164  0.00  0.00    -0.270 OA
ATOM     24  N   UNL     1      -3.680  -3.501   2.634  0.00  0.00    -0.311 N 
ATOM     25  H   UNL     1      -3.128  -2.722   2.808  0.00  0.00    +0.149 HD
BRANCH  24  26
ATOM     26  C   UNL     1      -4.038  -4.405   3.729  0.00  0.00    +0.110 C 
BRANCH  26  27
ATOM     27  C   UNL     1      -3.419  -3.897   5.033  0.00  0.00    +0.073 C 
BRANCH  27  28
ATOM     28  C   UNL     1      -3.788  -4.828   6.159  0.00  0.00    +0.035 A 
ATOM     29  H   UNL     1      -5.479  -3.957   7.037  0.00  0.00    +0.166 HD
ATOM     30  C   UNL     1      -3.148  -5.961   6.507  0.00  0.00    +0.105 A 
ATOM     31  N   UNL     1      -3.788  -6.494   7.558  0.00  0.00    -0.352 N 
ATOM     32  C   UNL     1      -4.801  -5.734   7.875  0.00  0.00    +0.171 A 
ATOM     33  N   UNL     1      -4.833  -4.681   7.030  0.00  0.00    -0.350 N 
ATOM     34  H   UNL     1      -3.539  -7.314   8.011  0.00  0.00    +0.166 HD
ENDBRANCH  27  28
ENDBRANCH  26  27
ENDBRANCH  24  26
ENDBRANCH   3  22
BRANCH   1  36
ATOM     35  C   UNL     1      -0.569   0.520  -0.261  0.00  0.00    +0.024 C 
ATOM     36  C   UNL     1      -0.715  -0.987  -0.478  0.00  0.00    +0.102 C 
ENDBRANCH   1  36
TORSDOF 6
