REMARK  Name = ZINC39938704
REMARK  11 active torsions:
REMARK  status: ('A' for Active; 'I' for Inactive)
REMARK    1  A    between atoms: C_1  and  C_2
REMARK    2  A    between atoms: C_2  and  C_4
REMARK    3  A    between atoms: C_2  and  O_35
REMARK    4  A    between atoms: C_4  and  C_6
REMARK    5  A    between atoms: C_4  and  N_21
REMARK    6  A    between atoms: C_6  and  O_8
REMARK    7  A    between atoms: O_8  and  C_9
REMARK    8  A    between atoms: C_9  and  C_10
REMARK    9  A    between atoms: C_10  and  C_12
REMARK   10  A    between atoms: N_21  and  S_22
REMARK   11  A    between atoms: S_22  and  C_25
REMARK                            x       y       z     vdW  Elec       q    Type
REMARK                         _______ _______ _______ _____ _____    ______ ____
ROOT
ATOM      1  C   UNL     1       0.769  -0.530   1.072  0.00  0.00    +0.213 C 
ENDROOT
BRANCH   1   3
ATOM      2  C   UNL     1       0.152   1.391  -0.402  0.00  0.00    +0.040 C 
ATOM      3  C   UNL     1      -0.069  -0.099  -0.133  0.00  0.00    +0.141 C 
BRANCH   3   4
ATOM      4  O   UNL     1       0.323  -0.854  -1.282  0.00  0.00    -0.390 OA
ATOM      5  H   UNL     1       0.136  -1.800  -1.213  0.00  0.00    +0.210 HD
ENDBRANCH   3   4
ENDBRANCH   1   3
BRANCH   1   6
ATOM      6  C   UNL     1       0.246   0.144   2.314  0.00  0.00    +0.329 C 
ATOM      7  O   UNL     1      -0.157  -0.522   3.238  0.00  0.00    -0.249 OA
BRANCH   6   8
ATOM      8  O   UNL     1       0.229   1.484   2.394  0.00  0.00    -0.455 OA
BRANCH   8   9
ATOM      9  C   UNL     1      -0.280   2.055   3.601  0.00  0.00    +0.311 C 
BRANCH   9  10
ATOM     10  C   UNL     1      -0.221   3.558   3.508  0.00  0.00    +0.199 C 
ATOM     11  O   UNL     1       0.214   4.088   2.506  0.00  0.00    -0.289 OA
BRANCH  10  12
ATOM     12  C   UNL     1      -0.672   4.349   4.586  0.00  0.00    +0.026 C 
ATOM     13  C   UNL     1      -0.692   5.731   4.659  0.00  0.00    +0.006 A 
ATOM     14  C   UNL     1      -0.300   6.748   3.757  0.00  0.00    +0.010 A 
ATOM     15  C   UNL     1      -0.434   8.049   4.098  0.00  0.00    +0.001 A 
ATOM     16  C   UNL     1      -0.957   8.454   5.336  0.00  0.00    +0.002 A 
ATOM     17  C   UNL     1      -1.359   7.563   6.268  0.00  0.00    +0.026 A 
ATOM     18  C   UNL     1      -1.248   6.124   5.977  0.00  0.00    +0.043 A 
ATOM     19  N   UNL     1      -1.554   5.069   6.677  0.00  0.00    -0.380 N 
ATOM     20  C   UNL     1      -1.241   3.865   5.902  0.00  0.00    +0.152 C 
ATOM     21  H   UNL     1      -1.932   5.079   7.570  0.00  0.00    +0.160 HD
ENDBRANCH  10  12
ENDBRANCH   9  10
ENDBRANCH   8   9
ENDBRANCH   6   8
ENDBRANCH   1   6
BRANCH   1  22
ATOM     22  N   UNL     1       0.682  -1.984   1.232  0.00  0.00    -0.174 NA
ATOM     23  H   UNL     1      -0.185  -2.413   1.308  0.00  0.00    +0.149 HD
BRANCH  22  24
ATOM     24  S   UNL     1       2.064  -2.895   1.282  0.00  0.00    +0.059 S 
ATOM     25  O   UNL     1       1.654  -4.246   1.450  0.00  0.00    -0.153 OA
ATOM     26  O   UNL     1       2.869  -2.473   0.190  0.00  0.00    -0.153 OA
BRANCH  24  27
ATOM     27  C   UNL     1       2.931  -2.446   2.749  0.00  0.00    +0.106 A 
ATOM     28  C   UNL     1       3.856  -1.405   2.708  0.00  0.00    +0.029 A 
ATOM     29  C   UNL     1       4.543  -1.033   3.823  0.00  0.00    +0.010 A 
ATOM     30  C   UNL     1       4.318  -1.708   5.035  0.00  0.00    -0.018 A 
ATOM     31  C   UNL     1       5.007  -1.352   6.207  0.00  0.00    +0.008 A 
ATOM     32  C   UNL     1       4.763  -2.028   7.363  0.00  0.00    +0.001 A 
ATOM     33  C   UNL     1       3.838  -3.069   7.404  0.00  0.00    +0.001 A 
ATOM     34  C   UNL     1       3.151  -3.441   6.289  0.00  0.00    +0.008 A 
ATOM     35  C   UNL     1       3.377  -2.767   5.077  0.00  0.00    -0.016 A 
ATOM     36  C   UNL     1       2.683  -3.119   3.906  0.00  0.00    +0.037 A 
ENDBRANCH  24  27
ENDBRANCH  22  24
ENDBRANCH   1  22
TORSDOF 10
