REMARK  Name = ZINC39445454
REMARK  5 active torsions:
REMARK  status: ('A' for Active; 'I' for Inactive)
REMARK    1  A    between atoms: C_7  and  C_10
REMARK    2  A    between atoms: C_10  and  C_11
REMARK    3  A    between atoms: C_11  and  C_12
REMARK    4  A    between atoms: N_14  and  C_15
REMARK    5  A    between atoms: N_26  and  C_27
REMARK                            x       y       z     vdW  Elec       q    Type
REMARK                         _______ _______ _______ _____ _____    ______ ____
ROOT
ATOM      1  C   UNL     1      -3.962   5.481  -1.915  0.00  0.00    +0.214 C 
ATOM      2  O   UNL     1      -3.343   6.364  -1.360  0.00  0.00    -0.276 OA
ATOM      3  N   UNL     1      -5.135   5.758  -2.519  0.00  0.00    -0.312 N 
ATOM      4  H   UNL     1      -5.631   5.052  -2.962  0.00  0.00    +0.149 HD
ENDROOT
BRANCH   3   5
ATOM      5  C   UNL     1      -5.660   7.126  -2.507  0.00  0.00    +0.083 C 
ATOM      6  C   UNL     1      -7.195   7.105  -2.659  0.00  0.00    +0.023 C 
ATOM      7  C   UNL     1      -7.626   6.491  -3.986  0.00  0.00    +0.004 C 
ATOM      8  C   UNL     1      -6.935   7.162  -5.187  0.00  0.00    +0.025 C 
ATOM      9  C   UNL     1      -5.448   7.044  -4.955  0.00  0.00    +0.108 C 
ATOM     10  C   UNL     1      -5.127   7.897  -3.692  0.00  0.00    +0.074 C 
ATOM     11  C   UNL     1      -3.663   8.120  -3.845  0.00  0.00    +0.110 C 
ATOM     12  N   UNL     1      -3.372   7.965  -5.096  0.00  0.00    -0.191 NA
ATOM     13  N   UNL     1      -4.511   7.638  -5.896  0.00  0.00    -0.218 N 
BRANCH  13  14
ATOM     14  C   UNL     1      -4.689   7.844  -7.267  0.00  0.00    +0.087 A 
ATOM     15  C   UNL     1      -5.785   8.564  -7.726  0.00  0.00    +0.028 A 
ATOM     16  C   UNL     1      -5.958   8.767  -9.081  0.00  0.00    +0.002 A 
ATOM     17  C   UNL     1      -5.043   8.254  -9.982  0.00  0.00    +0.003 A 
ATOM     18  C   UNL     1      -3.950   7.536  -9.530  0.00  0.00    +0.040 A 
ATOM     19  C   UNL     1      -3.767   7.333  -8.175  0.00  0.00    +0.146 A 
ATOM     20  F   UNL     1      -2.697   6.637  -7.733  0.00  0.00    -0.203 F 
ENDBRANCH  13  14
ENDBRANCH   3   5
BRANCH   1  21
ATOM     21  C   UNL     1      -3.422   4.075  -1.927  0.00  0.00    +0.100 C 
BRANCH  21  22
ATOM     22  C   UNL     1      -2.089   4.034  -1.177  0.00  0.00    +0.046 C 
BRANCH  22  29
ATOM     23  C   UNL     1       0.476   1.611  -4.263  0.00  0.00    +0.001 A 
ATOM     24  C   UNL     1       0.745   0.315  -3.844  0.00  0.00    +0.002 A 
ATOM     25  C   UNL     1       0.273  -0.144  -2.634  0.00  0.00    +0.026 A 
ATOM     26  C   UNL     1      -0.480   0.698  -1.821  0.00  0.00    +0.047 A 
ATOM     27  N   UNL     1      -1.078   0.542  -0.591  0.00  0.00    -0.360 N 
ATOM     28  C   UNL     1      -1.709   1.702  -0.231  0.00  0.00    +0.087 A 
ATOM     29  C   UNL     1      -1.548   2.627  -1.190  0.00  0.00    -0.022 A 
ATOM     30  C   UNL     1      -0.748   2.011  -2.250  0.00  0.00    +0.003 A 
ATOM     31  C   UNL     1      -0.256   2.457  -3.478  0.00  0.00    +0.010 A 
ATOM     32  H   UNL     1      -1.055  -0.268  -0.059  0.00  0.00    +0.165 HD
ENDBRANCH  22  29
ENDBRANCH  21  22
ENDBRANCH   1  21
TORSDOF 5
