REMARK  Name = ZINC36204615
REMARK  10 active torsions:
REMARK  status: ('A' for Active; 'I' for Inactive)
REMARK    1  A    between atoms: C_1  and  C_2
REMARK    2  A    between atoms: C_3  and  C_29
REMARK    3  A    between atoms: C_11  and  C_13
REMARK    4  A    between atoms: C_13  and  N_14
REMARK    5  A    between atoms: N_14  and  C_15
REMARK    6  A    between atoms: N_14  and  C_26
REMARK    7  A    between atoms: C_15  and  C_16
REMARK    8  A    between atoms: C_16  and  C_18
REMARK    9  A    between atoms: C_16  and  O_25
REMARK   10  A    between atoms: C_18  and  C_19
REMARK                            x       y       z     vdW  Elec       q    Type
REMARK                         _______ _______ _______ _____ _____    ______ ____
ROOT
ATOM      1  N   UNL     1       0.142  -4.771   3.945  0.00  0.00    +0.388 N 
ATOM      2  H   UNL     1       0.957  -5.004   3.397  0.00  0.00    -0.081 HD
ENDROOT
BRANCH   1   3
ATOM      3  C   UNL     1      -1.068  -4.995   3.143  0.00  0.00    -0.068 C 
ATOM      4  C   UNL     1      -0.888  -5.585   1.743  0.00  0.00    -0.017 C 
ATOM      5  C   UNL     1      -1.271  -4.113   1.910  0.00  0.00    -0.017 C 
ENDBRANCH   1   3
BRANCH   1   6
ATOM      6  C   UNL     1       0.210  -3.359   4.346  0.00  0.00    -0.003 C 
BRANCH   6  17
ATOM      7  C   UNL     1       5.727  -1.296   7.549  0.00  0.00    +0.045 C 
ATOM      8  C   UNL     1       5.250  -2.554   6.869  0.00  0.00    -0.026 A 
ATOM      9  C   UNL     1       6.040  -3.639   6.817  0.00  0.00    -0.008 A 
ATOM     10  S   UNL     1       5.048  -4.829   5.933  0.00  0.00    -0.073 S 
ATOM     11  C   UNL     1       3.604  -3.834   5.660  0.00  0.00    +0.116 A 
ATOM     12  C   UNL     1       3.931  -2.609   6.267  0.00  0.00    +0.075 A 
ATOM     13  C   UNL     1       2.920  -1.595   6.200  0.00  0.00    +0.260 A 
ATOM     14  O   UNL     1       3.110  -0.497   6.693  0.00  0.00    -0.267 OA
ATOM     15  N   UNL     1       1.757  -1.875   5.583  0.00  0.00    -0.312 N 
ATOM     16  H   UNL     1       1.069  -1.194   5.534  0.00  0.00    +0.170 HD
ATOM     17  C   UNL     1       1.528  -3.093   5.027  0.00  0.00    +0.094 A 
ATOM     18  N   UNL     1       2.433  -4.034   5.063  0.00  0.00    -0.229 NA
ATOM     19  C   UNL     1       7.430  -3.810   7.372  0.00  0.00    +0.052 C 
ENDBRANCH   6  17
ENDBRANCH   1   6
BRANCH   1  20
ATOM     20  C   UNL     1       0.100  -5.619   5.144  0.00  0.00    -0.046 C 
BRANCH  20  21
ATOM     21  C   UNL     1       0.155  -7.091   4.730  0.00  0.00    +0.102 C 
BRANCH  21  22
ATOM     22  O   UNL     1      -0.963  -7.393   3.893  0.00  0.00    -0.393 OA
ATOM     23  H   UNL     1      -1.821  -7.247   4.315  0.00  0.00    +0.210 HD
ENDBRANCH  21  22
BRANCH  21  24
ATOM     24  C   UNL     1       0.110  -7.973   5.979  0.00  0.00    +0.064 C 
BRANCH  24  25
ATOM     25  C   UNL     1       0.288  -9.416   5.581  0.00  0.00    -0.045 A 
ATOM     26  C   UNL     1      -0.815 -10.189   5.271  0.00  0.00    +0.004 A 
ATOM     27  C   UNL     1      -0.652 -11.512   4.906  0.00  0.00    +0.000 A 
ATOM     28  C   UNL     1       0.615 -12.062   4.850  0.00  0.00    +0.000 A 
ATOM     29  C   UNL     1       1.718 -11.290   5.160  0.00  0.00    +0.000 A 
ATOM     30  C   UNL     1       1.556  -9.965   5.521  0.00  0.00    +0.004 A 
ENDBRANCH  24  25
ENDBRANCH  21  24
ENDBRANCH  20  21
ENDBRANCH   1  20
TORSDOF 8
