REMARK  Name = ZINC63617924
REMARK  4 active torsions:
REMARK  status: ('A' for Active; 'I' for Inactive)
REMARK    1  A    between atoms: C_4  and  N_7
REMARK    2  A    between atoms: N_10  and  C_11
REMARK    3  A    between atoms: C_15  and  C_17
REMARK    4  A    between atoms: C_20  and  C_23
REMARK                            x       y       z     vdW  Elec       q    Type
REMARK                         _______ _______ _______ _____ _____    ______ ____
ROOT
ATOM      1  C   UNL     1       4.952  -4.042   0.103  0.00  0.00    +0.035 A 
ATOM      2  C   UNL     1       3.763  -4.761   0.103  0.00  0.00    +0.023 A 
ATOM      3  C   UNL     1       3.787  -6.143   0.091  0.00  0.00    +0.002 A 
ATOM      4  C   UNL     1       4.992  -6.817   0.078  0.00  0.00    +0.011 A 
ATOM      5  C   UNL     1       6.190  -6.104   0.078  0.00  0.00    +0.020 A 
ATOM      6  C   UNL     1       6.167  -4.710   0.085  0.00  0.00    +0.034 A 
ENDROOT
BRANCH   1  10
ATOM      7  N   UNL     1       3.850  -0.652   0.693  0.00  0.00    -0.269 N 
ATOM      8  C   UNL     1       3.938  -1.994   0.767  0.00  0.00    +0.308 C 
ATOM      9  O   UNL     1       3.128  -2.621   1.422  0.00  0.00    -0.252 OA
ATOM     10  N   UNL     1       4.924  -2.643   0.115  0.00  0.00    -0.269 N 
ATOM     11  H   UNL     1       4.449  -0.158   0.111  0.00  0.00    +0.156 HD
ATOM     12  H   UNL     1       5.613  -2.139  -0.346  0.00  0.00    +0.156 HD
BRANCH   7  16
ATOM     13  C   UNL     1       1.008   1.380   2.962  0.00  0.00    +0.000 A 
ATOM     14  C   UNL     1       1.588   0.226   3.455  0.00  0.00    +0.002 A 
ATOM     15  C   UNL     1       2.531  -0.450   2.705  0.00  0.00    +0.023 A 
ATOM     16  C   UNL     1       2.895   0.030   1.455  0.00  0.00    +0.035 A 
ATOM     17  C   UNL     1       2.311   1.190   0.962  0.00  0.00    +0.023 A 
ATOM     18  C   UNL     1       1.369   1.861   1.717  0.00  0.00    +0.002 A 
ENDBRANCH   7  16
ENDBRANCH   1  10
BRANCH   5  19
ATOM     19  C   UNL     1       7.483  -6.825   0.065  0.00  0.00    +0.168 C 
ATOM     20  N   UNL     1       8.640  -6.248   0.069  0.00  0.00    -0.067 NA
ATOM     21  O   UNL     1       9.682  -7.206   0.053  0.00  0.00    -0.367 OA
ATOM     22  C   UNL     1       9.052  -8.496   0.038  0.00  0.00    +0.318 C 
ATOM     23  N   UNL     1       7.610  -8.202   0.052  0.00  0.00    -0.288 N 
ATOM     24  H   UNL     1       6.888  -8.849   0.051  0.00  0.00    +0.151 HD
BRANCH  22  25
ATOM     25  C   UNL     1       9.443  -9.296   1.282  0.00  0.00    +0.165 C 
ATOM     26  C   UNL     1       8.986  -8.575   2.531  0.00  0.00    +0.012 C 
ATOM     27  C   UNL     1      10.107  -8.307   3.240  0.00  0.00    -0.004 A 
ATOM     28  C   UNL     1      10.333  -7.636   4.525  0.00  0.00    +0.010 A 
ATOM     29  C   UNL     1      11.598  -7.516   4.988  0.00  0.00    +0.001 A 
ATOM     30  C   UNL     1      12.696  -8.014   4.273  0.00  0.00    +0.002 A 
ATOM     31  C   UNL     1      12.567  -8.643   3.085  0.00  0.00    +0.026 A 
ATOM     32  C   UNL     1      11.282  -8.825   2.504  0.00  0.00    +0.043 A 
ATOM     33  N   UNL     1      10.903  -9.393   1.383  0.00  0.00    -0.373 N 
ATOM     34  H   UNL     1      11.490  -9.806   0.730  0.00  0.00    +0.160 HD
ENDBRANCH  22  25
ENDBRANCH   5  19
TORSDOF 4
