REMARK  Name = ZINC12194792
REMARK  12 active torsions:
REMARK  status: ('A' for Active; 'I' for Inactive)
REMARK    1  A    between atoms: C_1  and  C_2
REMARK    2  A    between atoms: C_2  and  C_3
REMARK    3  A    between atoms: C_2  and  C_4
REMARK    4  A    between atoms: C_4  and  C_5
REMARK    5  A    between atoms: C_5  and  C_7
REMARK    6  A    between atoms: C_5  and  N_30
REMARK    7  A    between atoms: C_17  and  C_19
REMARK    8  A    between atoms: C_19  and  C_20
REMARK    9  A    between atoms: C_31  and  C_33
REMARK   10  A    between atoms: C_33  and  N_71
REMARK   11  A    between atoms: C_34  and  N_71
REMARK   12  A    between atoms: C_35  and  N_71
REMARK                            x       y       z     vdW  Elec       q    Type
REMARK                         _______ _______ _______ _____ _____    ______ ____
ROOT
ATOM      1  C   UNL     1       1.874   0.925   0.537  0.00  0.00    +0.154 A 
ATOM      2  N   UNL     1       1.041  -0.069   0.386  0.00  0.00    -0.132 NA
ATOM      3  N   UNL     1      -0.167   0.357   0.502  0.00  0.00    -0.134 NA
ATOM      4  C   UNL     1      -0.157   1.639   0.742  0.00  0.00    +0.135 A 
ATOM      5  N   UNL     1       1.134   2.041   0.747  0.00  0.00    -0.312 N 
ATOM      6  C   UNL     1       1.653   3.399   0.913  0.00  0.00    +0.143 C 
ATOM      7  C   UNL     1       0.689   4.227   1.767  0.00  0.00    +0.129 C 
ATOM      8  N   UNL     1      -0.388   4.744   0.908  0.00  0.00    -0.299 N 
ATOM      9  C   UNL     1      -1.225   3.798   0.168  0.00  0.00    +0.115 C 
ATOM     10  C   UNL     1      -1.355   2.515   0.997  0.00  0.00    +0.095 C 
ATOM     11  C   UNL     1      -0.601   6.071   0.804  0.00  0.00    +0.220 C 
ATOM     12  O   UNL     1       0.098   6.848   1.420  0.00  0.00    -0.275 OA
ENDROOT
BRANCH   1  13
ATOM     13  C   UNL     1       3.378   0.846   0.489  0.00  0.00    +0.141 C 
BRANCH  13  14
ATOM     14  N   UNL     1       3.832  -0.306   1.272  0.00  0.00    -0.307 N 
ATOM     15  C   UNL     1       5.091  -0.342   1.751  0.00  0.00    +0.197 C 
ATOM     16  O   UNL     1       5.821   0.617   1.611  0.00  0.00    -0.278 OA
ATOM     17  H   UNL     1       3.226  -1.043   1.446  0.00  0.00    +0.149 HD
BRANCH  15  18
ATOM     18  C   UNL     1       5.593  -1.574   2.459  0.00  0.00    +0.018 C 
BRANCH  18  21
ATOM     19  C   UNL     1       7.473  -2.396   3.745  0.00  0.00    -0.096 C 
ATOM     20  C   UNL     1       7.815  -1.570   1.495  0.00  0.00    -0.096 C 
ATOM     21  N   UNL     1       7.035  -1.405   2.740  0.00  0.00    +0.382 N 
ATOM     22  H   UNL     1       7.194  -0.461   3.111  0.00  0.00    -0.082 HD
ENDBRANCH  18  21
ENDBRANCH  15  18
ENDBRANCH  13  14
BRANCH  13  23
ATOM     23  C   UNL     1       3.835   0.688  -0.962  0.00  0.00    +0.033 C 
BRANCH  23  25
ATOM     24  C   UNL     1       4.317   3.126  -1.220  0.00  0.00    +0.007 C 
ATOM     25  C   UNL     1       3.486   1.954  -1.747  0.00  0.00    -0.015 C 
ATOM     26  C   UNL     1       3.794   1.736  -3.230  0.00  0.00    +0.007 C 
ENDBRANCH  23  25
ENDBRANCH  13  23
ENDBRANCH   1  13
BRANCH  11  27
ATOM     27  C   UNL     1      -1.707   6.589  -0.079  0.00  0.00    +0.131 C 
BRANCH  27  28
ATOM     28  C   UNL     1      -1.733   8.095  -0.020  0.00  0.00    -0.038 A 
ATOM     29  C   UNL     1      -2.519   8.731   0.939  0.00  0.00    +0.005 A 
ATOM     30  C   UNL     1      -2.561  10.088   1.023  0.00  0.00    +0.009 A 
ATOM     31  C   UNL     1      -1.810  10.864   0.123  0.00  0.00    -0.018 A 
ATOM     32  C   UNL     1      -1.833  12.268   0.175  0.00  0.00    +0.008 A 
ATOM     33  C   UNL     1      -1.093  12.987  -0.713  0.00  0.00    +0.001 A 
ATOM     34  C   UNL     1      -0.310  12.351  -1.675  0.00  0.00    +0.001 A 
ATOM     35  C   UNL     1      -0.264  10.993  -1.755  0.00  0.00    +0.008 A 
ATOM     36  C   UNL     1      -1.015  10.217  -0.855  0.00  0.00    -0.018 A 
ATOM     37  C   UNL     1      -0.992   8.813  -0.907  0.00  0.00    +0.012 A 
ENDBRANCH  27  28
ENDBRANCH  11  27
TORSDOF 8
