REMARK  Name = ZINC36052729
REMARK  13 active torsions:
REMARK  status: ('A' for Active; 'I' for Inactive)
REMARK    1  A    between atoms: C_1  and  C_2
REMARK    2  A    between atoms: C_3  and  C_30
REMARK    3  A    between atoms: C_4  and  C_21
REMARK    4  A    between atoms: C_7  and  C_12
REMARK    5  A    between atoms: C_13  and  N_15
REMARK    6  A    between atoms: C_24  and  C_27
REMARK    7  A    between atoms: C_27  and  C_28
REMARK    8  A    between atoms: C_27  and  C_29
REMARK    9  A    between atoms: C_30  and  O_32
REMARK   10  A    between atoms: O_32  and  C_33
REMARK   11  A    between atoms: C_33  and  C_34
REMARK   12  A    between atoms: C_34  and  O_35
REMARK   13  A    between atoms: O_35  and  C_36
REMARK                            x       y       z     vdW  Elec       q    Type
REMARK                         _______ _______ _______ _____ _____    ______ ____
ROOT
ATOM      1  C   UNL     1       0.471   0.826   1.427  0.00  0.00    +0.066 C 
ATOM      2  C   UNL     1       0.447  -0.578   0.879  0.00  0.00    +0.053 C 
ATOM      3  C   UNL     1      -0.760  -1.233   0.723  0.00  0.00    +0.082 C 
ATOM      4  C   UNL     1      -0.732  -2.640   0.169  0.00  0.00    +0.150 C 
ATOM      5  N   UNL     1       0.601  -3.209  -0.165  0.00  0.00    -0.267 N 
ATOM      6  C   UNL     1       0.864  -4.463  -0.679  0.00  0.00    +0.048 C 
ATOM      7  C   UNL     1       2.155  -4.787  -0.914  0.00  0.00    +0.072 C 
ATOM      8  S   UNL     1       3.004  -3.306  -0.404  0.00  0.00    -0.060 S 
ATOM      9  C   UNL     1       1.675  -2.395   0.064  0.00  0.00    +0.166 C 
ATOM     10  N   UNL     1       1.581  -1.173   0.546  0.00  0.00    -0.230 NA
ENDROOT
BRANCH   4  11
ATOM     11  C   UNL     1      -1.384  -3.549   1.178  0.00  0.00    -0.022 A 
ATOM     12  C   UNL     1      -0.722  -3.870   2.349  0.00  0.00    +0.006 A 
ATOM     13  C   UNL     1      -1.320  -4.704   3.275  0.00  0.00    +0.004 A 
ATOM     14  C   UNL     1      -2.580  -5.216   3.031  0.00  0.00    -0.045 A 
ATOM     15  C   UNL     1      -3.242  -4.895   1.861  0.00  0.00    +0.004 A 
ATOM     16  C   UNL     1      -2.646  -4.058   0.937  0.00  0.00    +0.006 A 
BRANCH  14  17
ATOM     17  C   UNL     1      -3.232  -6.126   4.040  0.00  0.00    +0.013 C 
ATOM     18  C   UNL     1      -4.589  -5.550   4.445  0.00  0.00    +0.012 C 
ATOM     19  C   UNL     1      -3.430  -7.513   3.424  0.00  0.00    +0.012 C 
ENDBRANCH  14  17
ENDBRANCH   4  11
BRANCH   6  20
ATOM     20  C   UNL     1      -0.222  -5.413  -0.961  0.00  0.00    +0.091 C 
ATOM     21  C   UNL     1       0.067  -6.673  -1.341  0.00  0.00    +0.241 C 
ATOM     22  O   UNL     1       1.352  -7.103  -1.340  0.00  0.00    -0.271 OA
BRANCH  21  23
ATOM     23  N   UNL     1      -0.949  -7.528  -1.732  0.00  0.00    -0.294 N 
ATOM     24  C   UNL     1      -2.183  -7.009  -2.343  0.00  0.00    +0.136 C 
ATOM     25  C   UNL     1      -2.447  -7.790  -3.636  0.00  0.00    +0.179 C 
ATOM     26  O   UNL     1      -2.419  -9.191  -3.353  0.00  0.00    -0.377 OA
ATOM     27  C   UNL     1      -1.158  -9.668  -2.879  0.00  0.00    +0.179 C 
ATOM     28  C   UNL     1      -0.825  -8.983  -1.553  0.00  0.00    +0.136 C 
ENDBRANCH  21  23
ENDBRANCH   6  20
BRANCH   3  29
ATOM     29  C   UNL     1      -1.968  -0.615   1.066  0.00  0.00    +0.339 C 
ATOM     30  O   UNL     1      -1.967   0.520   1.511  0.00  0.00    -0.245 OA
BRANCH  29  31
ATOM     31  O   UNL     1      -3.135  -1.276   0.904  0.00  0.00    -0.459 OA
BRANCH  31  32
ATOM     32  C   UNL     1      -4.330  -0.585   1.275  0.00  0.00    +0.260 C 
BRANCH  32  33
ATOM     33  C   UNL     1      -5.540  -1.486   1.023  0.00  0.00    +0.200 C 
BRANCH  33  34
ATOM     34  O   UNL     1      -5.477  -2.622   1.887  0.00  0.00    -0.380 OA
ATOM     35  C   UNL     1      -6.567  -3.533   1.731  0.00  0.00    +0.194 C 
ENDBRANCH  33  34
ENDBRANCH  32  33
ENDBRANCH  31  32
ENDBRANCH  29  31
ENDBRANCH   3  29
TORSDOF 9
