REMARK  Name = ZINC39576652
REMARK  9 active torsions:
REMARK  status: ('A' for Active; 'I' for Inactive)
REMARK    1  A    between atoms: C_1  and  C_2
REMARK    2  A    between atoms: C_2  and  C_3
REMARK    3  A    between atoms: C_2  and  C_4
REMARK    4  A    between atoms: C_2  and  C_5
REMARK    5  A    between atoms: C_5  and  C_6
REMARK    6  A    between atoms: C_13  and  C_17
REMARK    7  A    between atoms: N_19  and  N_20
REMARK    8  A    between atoms: C_21  and  C_22
REMARK    9  A    between atoms: C_25  and  O_28
REMARK                            x       y       z     vdW  Elec       q    Type
REMARK                         _______ _______ _______ _____ _____    ______ ____
ROOT
ATOM      1  C   UNL     1       1.648  -0.097  -1.932  0.00  0.00    -0.006 C 
ATOM      2  C   UNL     1       1.362   1.314  -2.453  0.00  0.00    +0.010 C 
ATOM      3  C   UNL     1       2.683   2.047  -2.711  0.00  0.00    +0.057 C 
ATOM      4  C   UNL     1       3.568   1.159  -3.558  0.00  0.00    +0.065 C 
ATOM      5  C   UNL     1       3.359  -0.154  -3.700  0.00  0.00    -0.012 C 
ATOM      6  C   UNL     1       2.252  -0.942  -3.063  0.00  0.00    +0.039 C 
ATOM      7  C   UNL     1       4.460  -0.626  -4.614  0.00  0.00    +0.243 C 
ATOM      8  N   UNL     1       5.210   0.617  -4.883  0.00  0.00    -0.170 NA
ATOM      9  N   UNL     1       4.654   1.533  -4.269  0.00  0.00    -0.158 NA
ENDROOT
BRANCH   7  10
ATOM     10  C   UNL     1       5.331  -1.642  -3.921  0.00  0.00    +0.263 C 
ATOM     11  O   UNL     1       6.396  -1.305  -3.448  0.00  0.00    -0.271 OA
ATOM     12  N   UNL     1       4.928  -2.924  -3.828  0.00  0.00    -0.205 N 
ATOM     13  H   UNL     1       4.076  -3.193  -4.207  0.00  0.00    +0.177 HD
BRANCH  12  14
ATOM     14  N   UNL     1       5.737  -3.869  -3.184  0.00  0.00    -0.188 NA
ATOM     15  C   UNL     1       5.349  -5.104  -3.094  0.00  0.00    +0.138 C 
BRANCH  15  16
ATOM     16  C   UNL     1       6.201  -6.097  -2.417  0.00  0.00    -0.005 A 
ATOM     17  C   UNL     1       7.425  -5.711  -1.865  0.00  0.00    +0.013 A 
ATOM     18  C   UNL     1       8.219  -6.643  -1.232  0.00  0.00    +0.046 A 
ATOM     19  C   UNL     1       7.803  -7.965  -1.142  0.00  0.00    +0.117 A 
ATOM     20  C   UNL     1       6.587  -8.354  -1.689  0.00  0.00    +0.046 A 
ATOM     21  C   UNL     1       5.784  -7.428  -2.319  0.00  0.00    +0.013 A 
BRANCH  19  22
ATOM     22  O   UNL     1       8.588  -8.881  -0.517  0.00  0.00    -0.507 OA
ATOM     23  H   UNL     1       8.414  -8.967   0.430  0.00  0.00    +0.292 HD
ENDBRANCH  19  22
ENDBRANCH  15  16
ENDBRANCH  12  14
ENDBRANCH   7  10
BRANCH   1  24
ATOM     24  C   UNL     1       0.344  -0.740  -1.455  0.00  0.00    +0.010 C 
BRANCH  24  26
ATOM     25  C   UNL     1       1.602  -1.538   0.551  0.00  0.00    +0.010 C 
ATOM     26  C   UNL     1       0.663  -1.956  -0.583  0.00  0.00    -0.037 C 
ATOM     27  C   UNL     1       1.341  -3.030  -1.436  0.00  0.00    +0.010 C 
ATOM     28  C   UNL     1      -0.633  -2.515   0.007  0.00  0.00    +0.010 C 
ENDBRANCH  24  26
ENDBRANCH   1  24
TORSDOF 6
