REMARK  Name = ZINC67638325
REMARK  7 active torsions:
REMARK  status: ('A' for Active; 'I' for Inactive)
REMARK    1  A    between atoms: C_1  and  C_2
REMARK    2  A    between atoms: C_3  and  C_11
REMARK    3  A    between atoms: C_7  and  N_8
REMARK    4  A    between atoms: C_11  and  O_13
REMARK    5  A    between atoms: O_13  and  C_14
REMARK    6  A    between atoms: C_17  and  O_20
REMARK    7  A    between atoms: O_20  and  C_21
REMARK                            x       y       z     vdW  Elec       q    Type
REMARK                         _______ _______ _______ _____ _____    ______ ____
ROOT
ATOM      1  C   UNL     1       0.464   1.152  -3.586  0.00  0.00    +0.132 A 
ATOM      2  C   UNL     1       0.677   2.414  -3.049  0.00  0.00    +0.050 A 
ATOM      3  C   UNL     1       0.265   3.537  -3.740  0.00  0.00    +0.049 A 
ATOM      4  C   UNL     1      -0.361   3.403  -4.970  0.00  0.00    +0.122 A 
ATOM      5  C   UNL     1      -0.574   2.142  -5.507  0.00  0.00    +0.049 A 
ATOM      6  C   UNL     1      -0.157   1.019  -4.819  0.00  0.00    +0.050 A 
ENDROOT
BRANCH   1   7
ATOM      7  O   UNL     1       0.870   0.047  -2.906  0.00  0.00    -0.422 OA
BRANCH   7   8
ATOM      8  C   UNL     1       2.000  -0.565  -3.310  0.00  0.00    +0.345 C 
ATOM      9  O   UNL     1       2.574  -0.181  -4.310  0.00  0.00    -0.245 OA
BRANCH   8  12
ATOM     10  C   UNL     1       4.574  -1.681  -4.021  0.00  0.00    +0.047 C 
ATOM     11  C   UNL     1       3.781  -2.250  -2.872  0.00  0.00    -0.006 A 
ATOM     12  C   UNL     1       2.540  -1.703  -2.539  0.00  0.00    +0.064 A 
ATOM     13  C   UNL     1       1.812  -2.237  -1.474  0.00  0.00    +0.015 A 
ATOM     14  C   UNL     1       2.323  -3.300  -0.757  0.00  0.00    +0.003 A 
ATOM     15  C   UNL     1       3.553  -3.837  -1.093  0.00  0.00    +0.033 A 
ATOM     16  C   UNL     1       4.278  -3.316  -2.151  0.00  0.00    +0.130 A 
BRANCH  16  17
ATOM     17  N   UNL     1       5.590  -3.900  -2.506  0.00  0.00    +0.057 N 
ATOM     18  O   UNL     1       6.090  -4.741  -1.795  0.00  0.00    -0.126 OA
ATOM     19  O   UNL     1       6.163  -3.537  -3.506  0.00  0.00    -0.126 OA
ENDBRANCH  16  17
ENDBRANCH   8  12
ENDBRANCH   7   8
ENDBRANCH   1   7
BRANCH   4  20
ATOM     20  O   UNL     1      -0.767   4.508  -5.650  0.00  0.00    -0.480 OA
BRANCH  20  21
ATOM     21  C   UNL     1      -0.624   5.766  -4.987  0.00  0.00    +0.259 C 
ATOM     22  C   UNL     1      -1.574   6.789  -5.615  0.00  0.00    +0.054 C 
ATOM     23  C   UNL     1      -1.712   6.549  -7.108  0.00  0.00    +0.006 C 
ATOM     24  C   UNL     1      -0.438   6.810  -7.891  0.00  0.00    +0.019 C 
ATOM     25  C   UNL     1       0.642   5.789  -7.531  0.00  0.00    +0.104 C 
ATOM     26  N   UNL     1       1.374   6.274  -6.349  0.00  0.00    -0.312 N 
ATOM     27  C   UNL     1       0.797   6.265  -5.143  0.00  0.00    +0.254 C 
ATOM     28  O   UNL     1       1.409   6.662  -4.174  0.00  0.00    -0.272 OA
ATOM     29  H   UNL     1       2.282   6.600  -6.446  0.00  0.00    +0.149 HD
ENDBRANCH  20  21
ENDBRANCH   4  20
TORSDOF 6
