REMARK  Name = ZINC46552213
REMARK  9 active torsions:
REMARK  status: ('A' for Active; 'I' for Inactive)
REMARK    1  A    between atoms: C_1  and  C_2
REMARK    2  A    between atoms: C_2  and  O_3
REMARK    3  A    between atoms: O_3  and  C_4
REMARK    4  A    between atoms: C_11  and  C_18
REMARK    5  A    between atoms: C_13  and  O_14
REMARK    6  A    between atoms: C_18  and  N_19
REMARK    7  A    between atoms: N_22  and  C_25
REMARK    8  A    between atoms: C_29  and  C_32
REMARK    9  A    between atoms: C_30  and  C_31
REMARK                            x       y       z     vdW  Elec       q    Type
REMARK                         _______ _______ _______ _____ _____    ______ ____
ROOT
ATOM      1  C   UNL     1       0.612  -1.848   1.428  0.00  0.00    +0.405 C 
ATOM      2  O   UNL     1      -0.180  -2.593   0.876  0.00  0.00    -0.226 OA
ATOM      3  N   UNL     1       1.431  -2.321   2.357  0.00  0.00    -0.251 N 
ATOM      4  C   UNL     1       1.491  -3.659   2.593  0.00  0.00    +0.040 A 
ATOM      5  C   UNL     1       2.079  -4.135   3.779  0.00  0.00    +0.024 A 
ATOM      6  C   UNL     1       2.145  -5.469   4.026  0.00  0.00    +0.013 A 
ATOM      7  C   UNL     1       1.622  -6.382   3.092  0.00  0.00    +0.019 A 
ATOM      8  C   UNL     1       1.680  -7.771   3.330  0.00  0.00    -0.047 A 
ATOM      9  C   UNL     1       1.152  -8.625   2.383  0.00  0.00    +0.090 A 
ATOM     10  C   UNL     1       0.581  -8.110   1.228  0.00  0.00    +0.285 A 
ATOM     11  O   UNL     1       0.528  -6.792   1.006  0.00  0.00    -0.425 OA
ATOM     12  C   UNL     1       1.029  -5.913   1.898  0.00  0.00    +0.141 A 
ATOM     13  C   UNL     1       0.962  -4.553   1.659  0.00  0.00    +0.070 A 
ATOM     14  H   UNL     1       1.988  -1.713   2.869  0.00  0.00    +0.158 HD
ENDROOT
BRANCH  10  15
ATOM     15  O   UNL     1       0.069  -8.955   0.312  0.00  0.00    -0.480 OA
ATOM     16  H   UNL     1      -0.308  -8.514  -0.461  0.00  0.00    +0.295 HD
ENDBRANCH  10  15
BRANCH   1  17
ATOM     17  O   UNL     1       0.655  -0.539   1.093  0.00  0.00    -0.450 OA
BRANCH  17  19
ATOM     18  C   UNL     1      -0.061   1.401  -0.158  0.00  0.00    +0.048 C 
ATOM     19  C   UNL     1      -0.256  -0.097   0.085  0.00  0.00    +0.230 C 
ENDBRANCH  17  19
ENDBRANCH   1  17
BRANCH   8  20
ATOM     20  C   UNL     1       2.305  -8.310   4.591  0.00  0.00    -0.042 C 
BRANCH  20  21
ATOM     21  N   UNL     1       1.258  -8.541   5.596  0.00  0.00    +0.384 N 
ATOM     22  C   UNL     1       0.650  -7.258   5.971  0.00  0.00    -0.059 C 
ATOM     23  C   UNL     1      -0.517  -7.508   6.932  0.00  0.00    +0.086 C 
ATOM     24  N   UNL     1      -0.023  -8.300   8.069  0.00  0.00    -0.333 N 
ATOM     25  C   UNL     1       0.743  -9.523   7.781  0.00  0.00    +0.086 C 
ATOM     26  C   UNL     1       1.851  -9.178   6.779  0.00  0.00    -0.059 C 
ATOM     27  H   UNL     1       0.550  -9.146   5.210  0.00  0.00    -0.081 HD
BRANCH  24  28
ATOM     28  C   UNL     1      -0.275  -7.903   9.384  0.00  0.00    +0.033 A 
ATOM     29  C   UNL     1      -1.416  -8.348  10.039  0.00  0.00    +0.023 A 
ATOM     30  C   UNL     1      -1.661  -7.954  11.339  0.00  0.00    +0.002 A 
ATOM     31  C   UNL     1      -0.773  -7.117  11.990  0.00  0.00    +0.004 A 
ATOM     32  C   UNL     1       0.364  -6.672  11.340  0.00  0.00    -0.046 A 
ATOM     33  C   UNL     1       0.619  -7.067  10.041  0.00  0.00    -0.027 A 
ATOM     34  C   UNL     1       1.861  -6.587   9.337  0.00  0.00    +0.046 C 
ATOM     35  C   UNL     1       1.328  -5.759  12.052  0.00  0.00    +0.044 C 
ENDBRANCH  24  28
ENDBRANCH  20  21
ENDBRANCH   8  20
TORSDOF 6
