REMARK  Name = ZINC06593893
REMARK  6 active torsions:
REMARK  status: ('A' for Active; 'I' for Inactive)
REMARK    1  A    between atoms: C_1  and  C_2
REMARK    2  A    between atoms: C_2  and  C_3
REMARK    3  A    between atoms: C_3  and  N_4
REMARK    4  A    between atoms: N_9  and  C_10
REMARK    5  A    between atoms: C_10  and  N_12
REMARK    6  A    between atoms: C_13  and  C_15
REMARK                            x       y       z     vdW  Elec       q    Type
REMARK                         _______ _______ _______ _____ _____    ______ ____
ROOT
ATOM      1  C   UNL     1       1.534  -6.404   0.790  0.00  0.00    +0.143 C 
ATOM      2  S   UNL     1       0.064  -6.525   1.659  0.00  0.00    -0.018 S 
ENDROOT
BRANCH   1   8
ATOM      3  N   UNL     1       0.762  -1.976   1.234  0.00  0.00    -0.162 N 
ATOM      4  N   UNL     1       1.746  -2.794   0.655  0.00  0.00    -0.114 NA
ATOM      5  C   UNL     1       1.365  -4.034   0.883  0.00  0.00    +0.261 A 
ATOM      6  N   UNL     1       0.217  -3.982   1.561  0.00  0.00    -0.092 NA
ATOM      7  N   UNL     1      -0.118  -2.757   1.761  0.00  0.00    -0.044 NA
ATOM      8  N   UNL     1       2.040  -5.193   0.487  0.00  0.00    -0.263 N 
ATOM      9  H   UNL     1       2.873  -5.124  -0.005  0.00  0.00    +0.157 HD
BRANCH   3  10
ATOM     10  C   UNL     1       0.742  -0.511   1.242  0.00  0.00    +0.168 C 
BRANCH  10  12
ATOM     11  C   UNL     1      -0.019   1.526   0.010  0.00  0.00    +0.006 C 
ATOM     12  C   UNL     1       0.002  -0.004   0.002  0.00  0.00    +0.022 C 
ENDBRANCH  10  12
ENDBRANCH   3  10
ENDBRANCH   1   8
BRANCH   1  13
ATOM     13  N   UNL     1       2.184  -7.521   0.408  0.00  0.00    -0.263 N 
ATOM     14  C   UNL     1       1.678  -8.733   0.711  0.00  0.00    +0.251 C 
ATOM     15  O   UNL     1       0.634  -8.819   1.328  0.00  0.00    -0.270 OA
ATOM     16  H   UNL     1       3.017  -7.453  -0.085  0.00  0.00    +0.157 HD
BRANCH  14  17
ATOM     17  C   UNL     1       2.391  -9.956   0.292  0.00  0.00    +0.055 A 
ATOM     18  C   UNL     1       3.590  -9.862  -0.417  0.00  0.00    +0.016 A 
ATOM     19  C   UNL     1       4.251 -11.007  -0.805  0.00  0.00    +0.021 A 
ATOM     20  C   UNL     1       3.728 -12.252  -0.492  0.00  0.00    +0.042 A 
ATOM     21  C   UNL     1       2.540 -12.354   0.210  0.00  0.00    +0.040 A 
ATOM     22  C   UNL     1       1.871 -11.215   0.610  0.00  0.00    +0.054 A 
ATOM     23 CL   UNL     1       0.385 -11.344   1.497  0.00  0.00    -0.083 Cl
ATOM     24 CL   UNL     1       4.568 -13.690  -0.985  0.00  0.00    -0.083 Cl
ENDBRANCH  14  17
ENDBRANCH   1  13
TORSDOF 5
