REMARK  Name = ZINC52445900
REMARK  7 active torsions:
REMARK  status: ('A' for Active; 'I' for Inactive)
REMARK    1  A    between atoms: C_1  and  C_2
REMARK    2  A    between atoms: C_2  and  C_3
REMARK    3  A    between atoms: C_3  and  S_4
REMARK    4  A    between atoms: S_4  and  N_7
REMARK    5  A    between atoms: C_11  and  C_14
REMARK    6  A    between atoms: N_16  and  C_17
REMARK    7  A    between atoms: C_20  and  C_23
REMARK                            x       y       z     vdW  Elec       q    Type
REMARK                         _______ _______ _______ _____ _____    ______ ____
ROOT
ATOM      1  C   UNL     1       5.072  -2.276  -3.877  0.00  0.00    +0.222 C 
ATOM      2  O   UNL     1       5.598  -3.088  -3.145  0.00  0.00    -0.275 OA
ATOM      3  N   UNL     1       5.811  -1.608  -4.785  0.00  0.00    -0.285 N 
ATOM      4  H   UNL     1       5.381  -1.009  -5.414  0.00  0.00    +0.155 HD
ENDROOT
BRANCH   1   9
ATOM      5  N   UNL     1       1.534  -2.727  -2.670  0.00  0.00    -0.180 NA
ATOM      6  C   UNL     1       0.797  -2.927  -3.926  0.00  0.00    +0.109 C 
ATOM      7  C   UNL     1       1.420  -2.042  -5.010  0.00  0.00    +0.018 C 
ATOM      8  C   UNL     1       2.919  -2.339  -5.106  0.00  0.00    +0.015 C 
ATOM      9  C   UNL     1       3.592  -2.014  -3.771  0.00  0.00    +0.091 C 
ATOM     10  C   UNL     1       2.994  -2.893  -2.674  0.00  0.00    +0.121 C 
BRANCH   5  11
ATOM     11  S   UNL     1       0.735  -2.316  -1.279  0.00  0.00    +0.032 S 
ATOM     12  O   UNL     1       1.567  -2.791  -0.230  0.00  0.00    -0.158 OA
ATOM     13  O   UNL     1      -0.579  -2.829  -1.450  0.00  0.00    -0.158 OA
BRANCH  11  14
ATOM     14  C   UNL     1       0.702  -0.502  -1.279  0.00  0.00    +0.185 C 
BRANCH  14  16
ATOM     15  C   UNL     1      -0.048   1.524  -0.025  0.00  0.00    +0.005 C 
ATOM     16  C   UNL     1      -0.020  -0.006  -0.025  0.00  0.00    +0.021 C 
ENDBRANCH  14  16
ENDBRANCH  11  14
ENDBRANCH   5  11
ENDBRANCH   1   9
BRANCH   3  17
ATOM     17  C   UNL     1       7.199  -1.779  -4.819  0.00  0.00    +0.033 A 
ATOM     18  C   UNL     1       7.752  -3.022  -4.536  0.00  0.00    +0.024 A 
ATOM     19  C   UNL     1       9.120  -3.193  -4.569  0.00  0.00    +0.012 A 
ATOM     20  C   UNL     1       9.948  -2.118  -4.888  0.00  0.00    +0.002 A 
ATOM     21  C   UNL     1       9.391  -0.872  -5.172  0.00  0.00    +0.012 A 
ATOM     22  C   UNL     1       8.022  -0.707  -5.142  0.00  0.00    +0.024 A 
BRANCH  20  23
ATOM     23  C   UNL     1      11.420  -2.299  -4.923  0.00  0.00    +0.092 A 
ATOM     24  C   UNL     1      12.371  -1.304  -5.223  0.00  0.00    +0.049 A 
ATOM     25  C   UNL     1      13.597  -1.866  -5.150  0.00  0.00    +0.105 A 
ATOM     26  N   UNL     1      13.440  -3.166  -4.819  0.00  0.00    -0.284 N 
ATOM     27  H   UNL     1      14.152  -3.812  -4.697  0.00  0.00    +0.188 HD
ATOM     28  N   UNL     1      12.069  -3.417  -4.676  0.00  0.00    -0.174 NA
ENDBRANCH  20  23
ENDBRANCH   3  17
TORSDOF 6
