REMARK  Name = ZINC44606392
REMARK  13 active torsions:
REMARK  status: ('A' for Active; 'I' for Inactive)
REMARK    1  A    between atoms: C_1  and  C_2
REMARK    2  A    between atoms: C_3  and  C_4
REMARK    3  A    between atoms: C_5  and  C_6
REMARK    4  A    between atoms: C_7  and  C_8
REMARK    5  A    between atoms: N_10  and  C_11
REMARK    6  A    between atoms: C_11  and  C_13
REMARK    7  A    between atoms: C_11  and  C_17
REMARK    8  A    between atoms: C_13  and  C_15
REMARK    9  A    between atoms: C_13  and  N_16
REMARK   10  A    between atoms: C_17  and  O_19
REMARK   11  A    between atoms: O_19  and  C_20
REMARK   12  A    between atoms: C_20  and  C_22
REMARK   13  A    between atoms: C_20  and  C_33
REMARK                            x       y       z     vdW  Elec       q    Type
REMARK                         _______ _______ _______ _____ _____    ______ ____
ROOT
ATOM      1  C   UNK A   2     -10.260  -5.359   2.020  0.00  0.00    +0.238 C 
ENDROOT
BRANCH   1   2
ATOM      2  C   UNK A   2     -10.310  -4.487   3.248  0.00  0.00    +0.020 A 
ATOM      3  C   UNK A   2     -10.010  -3.180   3.312  0.00  0.00    +0.091 A 
ATOM      4  N   UNK A   2     -10.172  -2.726   4.593  0.00  0.00    -0.360 N 
ATOM      5  H   UNK A   2     -10.015  -1.815   4.885  0.00  0.00    +0.165 HD
ATOM      6  C   UNK A   2     -10.591  -3.756   5.405  0.00  0.00    +0.048 A 
ATOM      7  C   UNK A   2     -10.701  -4.903   4.597  0.00  0.00    +0.006 A 
ATOM      8  C   UNK A   2     -11.116  -6.113   5.157  0.00  0.00    +0.012 A 
ATOM      9  C   UNK A   2     -11.416  -6.176   6.489  0.00  0.00    +0.021 A 
ATOM     10  C   UNK A   2     -11.312  -5.047   7.290  0.00  0.00    +0.043 A 
ATOM     11  C   UNK A   2     -10.897  -3.844   6.758  0.00  0.00    +0.046 A 
ATOM     12 CL   UNK A   2     -11.700  -5.153   8.979  0.00  0.00    -0.083 Cl
ENDBRANCH   1   2
BRANCH   1  13
ATOM     13  C   UNK A   2     -11.649  -5.418   1.380  0.00  0.00    +0.205 C 
ATOM     14  C   UNK A   2     -11.573  -6.220   0.116  0.00  0.00    +0.238 C 
ATOM     15  O   UNK A   2     -11.561  -7.430   0.195  0.00  0.00    -0.274 OA
ATOM     16  N   GLY A   1     -11.519  -5.657  -1.095  0.00  0.00    -0.305 N 
ATOM     17  CA  GLY A   1     -11.526  -4.214  -1.297  0.00  0.00    +0.200 C 
ATOM     18  C   GLY A   1     -12.061  -3.499  -0.093  0.00  0.00    +0.231 C 
ATOM     19  O   GLY A   1     -12.466  -2.363  -0.224  0.00  0.00    -0.274 OA
ATOM     20  N   UNK A   2     -12.111  -4.061   1.117  0.00  0.00    -0.299 N 
ATOM     21  H   GLY A   1     -11.472  -6.234  -1.874  0.00  0.00    +0.149 HD
ATOM     22  H   UNK A   2     -12.471  -3.543   1.854  0.00  0.00    +0.150 HD
ENDBRANCH   1  13
BRANCH   1  23
ATOM     23  O   UNK A   2      -9.328  -4.813   1.085  0.00  0.00    -0.453 OA
BRANCH  23  24
ATOM     24  C   UNK A   2      -8.052  -5.218   1.189  0.00  0.00    +0.327 C 
ATOM     25  O   UNK A   2      -7.754  -6.075   1.988  0.00  0.00    -0.249 OA
BRANCH  24  26
ATOM     26  C   UNK A   2      -6.993  -4.606   0.310  0.00  0.00    +0.167 C 
BRANCH  26  29
ATOM     27  C   UNK A   2      -4.637  -4.055   0.602  0.00  0.00    +0.237 C 
ATOM     28  O   UNK A   2      -4.803  -3.091  -0.124  0.00  0.00    -0.271 OA
ATOM     29  N   UNK A   2      -5.670  -4.874   0.880  0.00  0.00    -0.300 N 
ATOM     30  H   UNK A   2      -5.538  -5.642   1.457  0.00  0.00    +0.150 HD
BRANCH  27  32
ATOM     31  C   UNK A   2      -2.350  -3.423   0.977  0.00  0.00    +0.005 C 
ATOM     32  C   UNK A   2      -3.358  -4.314   1.152  0.00  0.00    +0.067 C 
BRANCH  31  34
ATOM     33  C   UNK A   2      -1.604  -1.292   0.174  0.00  0.00    -0.000 C 
ATOM     34  C   UNK A   2      -2.623  -2.144   0.448  0.00  0.00    +0.000 C 
BRANCH  33  37
ATOM     35  C   UNK A   2      -1.176   2.239  -1.208  0.00  0.00    +0.035 C 
ATOM     36  C   UNK A   2      -0.884   0.873  -0.643  0.00  0.00    -0.030 C 
ATOM     37  C   UNK A   2      -1.887   0.033  -0.373  0.00  0.00    -0.005 C 
ENDBRANCH  33  37
ENDBRANCH  31  34
ENDBRANCH  27  32
ENDBRANCH  26  29
BRANCH  26  38
ATOM     38  C   UNK A   2      -7.078  -5.214  -1.091  0.00  0.00    -0.047 C 
ATOM     39  C   UNK A   2      -6.078  -4.513  -2.013  0.00  0.00    -0.012 C 
BRANCH  38  40
ATOM     40  N   UNK A   2      -6.759  -6.647  -1.023  0.00  0.00    +0.381 N 
ATOM     41  H   UNK A   2      -7.460  -7.122  -0.474  0.00  0.00    -0.090 HD
ATOM     42  H   UNK A   2      -6.743  -7.033  -1.955  0.00  0.00    -0.090 HD
ATOM     43  H   UNK A   2      -5.855  -6.770  -0.592  0.00  0.00    -0.090 HD
ENDBRANCH  38  40
ENDBRANCH  26  38
ENDBRANCH  24  26
ENDBRANCH  23  24
ENDBRANCH   1  23
TORSDOF 11
