REMARK  Name = ZINC11838007
REMARK  6 active torsions:
REMARK  status: ('A' for Active; 'I' for Inactive)
REMARK    1  A    between atoms: C_4  and  C_7
REMARK    2  A    between atoms: C_10  and  C_12
REMARK    3  A    between atoms: C_12  and  C_13
REMARK    4  A    between atoms: N_15  and  N_16
REMARK    5  A    between atoms: C_17  and  C_19
REMARK    6  A    between atoms: C_19  and  N_20
REMARK                            x       y       z     vdW  Elec       q    Type
REMARK                         _______ _______ _______ _____ _____    ______ ____
ROOT
ATOM      1  N   UNL     1      -0.360   7.274  -1.624  0.00  0.00    -0.233 N 
ATOM      2  C   UNL     1      -0.258   5.952  -1.385  0.00  0.00    +0.249 C 
ATOM      3  O   UNL     1      -0.207   5.171  -2.312  0.00  0.00    -0.272 OA
ATOM      4  H   UNL     1      -0.400   7.899  -0.883  0.00  0.00    +0.173 HD
ENDROOT
BRANCH   1   7
ATOM      5  C   UNL     1      -0.509   9.070  -3.180  0.00  0.00    +0.235 C 
ATOM      6  O   UNL     1      -0.560   9.851  -2.253  0.00  0.00    -0.274 OA
ATOM      7  N   UNL     1      -0.407   7.747  -2.942  0.00  0.00    -0.234 N 
ATOM      8  H   UNL     1      -0.366   7.122  -3.683  0.00  0.00    +0.173 HD
BRANCH   5   9
ATOM      9  C   UNL     1      -0.560   9.578  -4.598  0.00  0.00    +0.160 C 
BRANCH   9  13
ATOM     10  C   UNL     1       0.017  13.273  -4.583  0.00  0.00    +0.078 A 
ATOM     11  C   UNL     1      -1.297  13.657  -4.569  0.00  0.00    +0.075 A 
ATOM     12  S   UNL     1      -2.105  12.063  -4.578  0.00  0.00    -0.079 S 
ATOM     13  C   UNL     1      -0.673  11.081  -4.588  0.00  0.00    +0.088 A 
ATOM     14  N   UNL     1       0.284  11.976  -4.593  0.00  0.00    -0.244 NA
BRANCH  10  18
ATOM     15  C   UNL     1       3.143  16.155  -4.596  0.00  0.00    +0.000 A 
ATOM     16  C   UNL     1       3.450  14.806  -4.606  0.00  0.00    +0.001 A 
ATOM     17  C   UNL     1       2.439  13.866  -4.602  0.00  0.00    +0.010 A 
ATOM     18  C   UNL     1       1.108  14.278  -4.587  0.00  0.00    +0.001 A 
ATOM     19  C   UNL     1       0.805  15.639  -4.582  0.00  0.00    +0.010 A 
ATOM     20  C   UNL     1       1.824  16.570  -4.581  0.00  0.00    +0.001 A 
ENDBRANCH  10  18
ENDBRANCH   9  13
ENDBRANCH   5   9
ENDBRANCH   1   7
BRANCH   2  21
ATOM     21  C   UNL     1      -0.207   5.443   0.032  0.00  0.00    +0.224 C 
BRANCH  21  22
ATOM     22  N   UNL     1      -0.097   3.982   0.023  0.00  0.00    -0.285 N 
ATOM     23  C   UNL     1       1.157   3.388   0.009  0.00  0.00    +0.059 A 
ATOM     24  C   UNL     1       2.319   4.144   0.002  0.00  0.00    +0.027 A 
ATOM     25  C   UNL     1       3.547   3.513  -0.012  0.00  0.00    +0.002 A 
ATOM     26  C   UNL     1       3.631   2.129  -0.019  0.00  0.00    +0.001 A 
ATOM     27  C   UNL     1       2.485   1.361  -0.013  0.00  0.00    +0.015 A 
ATOM     28  C   UNL     1       1.240   1.985   0.001  0.00  0.00    +0.063 A 
ATOM     29  C   UNL     1      -0.014   1.212   0.009  0.00  0.00    +0.262 A 
ATOM     30  O   UNL     1       0.002  -0.004   0.002  0.00  0.00    -0.267 OA
ATOM     31  N   UNL     1      -1.183   1.889   0.018  0.00  0.00    -0.274 N 
ATOM     32  H   UNL     1      -2.044   1.380   0.015  0.00  0.00    +0.173 HD
ATOM     33  C   UNL     1      -1.211   3.231   0.030  0.00  0.00    +0.330 A 
ATOM     34  O   UNL     1      -2.290   3.790   0.043  0.00  0.00    -0.246 OA
ENDBRANCH  21  22
ENDBRANCH   2  21
TORSDOF 6
