REMARK  Name = ZINC27603068
REMARK  11 active torsions:
REMARK  status: ('A' for Active; 'I' for Inactive)
REMARK    1  A    between atoms: C_1  and  C_2
REMARK    2  A    between atoms: C_3  and  C_34
REMARK    3  A    between atoms: C_11  and  C_13
REMARK    4  A    between atoms: C_13  and  S_14
REMARK    5  A    between atoms: S_14  and  C_15
REMARK    6  A    between atoms: C_15  and  C_17
REMARK    7  A    between atoms: C_15  and  C_18
REMARK    8  A    between atoms: N_20  and  C_21
REMARK    9  A    between atoms: C_21  and  C_22
REMARK   10  A    between atoms: C_22  and  C_24
REMARK   11  A    between atoms: C_22  and  N_29
REMARK                            x       y       z     vdW  Elec       q    Type
REMARK                         _______ _______ _______ _____ _____    ______ ____
ROOT
ATOM      1  C   UNL     1      -0.263  -6.240   5.598  0.00  0.00    +0.129 C 
ATOM      2  C   UNL     1      -1.470  -6.174   6.537  0.00  0.00    +0.029 C 
ENDROOT
BRANCH   1   3
ATOM      3  C   UNL     1      -0.023  -7.671   5.190  0.00  0.00    +0.226 C 
ATOM      4  O   UNL     1      -0.409  -8.066   4.110  0.00  0.00    -0.275 OA
ATOM      5  N   UNL     1       0.622  -8.511   6.024  0.00  0.00    -0.316 N 
ATOM      6  H   UNL     1       0.931  -8.194   6.887  0.00  0.00    +0.149 HD
BRANCH   5   7
ATOM      7  C   UNL     1       0.856  -9.901   5.627  0.00  0.00    +0.094 C 
BRANCH   7   8
ATOM      8  C   UNL     1       1.485 -10.666   6.793  0.00  0.00    -0.013 C 
BRANCH   8   9
ATOM      9  N   UNL     1       1.841 -12.022   6.354  0.00  0.00    +0.386 N 
ATOM     10  C   UNL     1       2.361 -12.796   7.502  0.00  0.00    -0.078 C 
ATOM     11  C   UNL     1       3.477 -13.688   6.905  0.00  0.00    -0.020 C 
ATOM     12  C   UNL     1       4.108 -12.738   5.853  0.00  0.00    -0.020 C 
ATOM     13  C   UNL     1       2.892 -11.949   5.323  0.00  0.00    -0.078 C 
ATOM     14  H   UNL     1       1.027 -12.483   5.977  0.00  0.00    -0.081 HD
ENDBRANCH   8   9
BRANCH   8  15
ATOM     15  C   UNL     1       0.498 -10.749   7.929  0.00  0.00    -0.022 A 
ATOM     16  C   UNL     1       0.426  -9.996   9.054  0.00  0.00    +0.009 A 
ATOM     17  C   UNL     1      -0.576 -10.253   9.970  0.00  0.00    +0.008 A 
ATOM     18  C   UNL     1      -1.458 -11.250   9.716  0.00  0.00    +0.045 A 
ATOM     19  S   UNL     1      -0.884 -11.859   8.139  0.00  0.00    -0.103 S 
ENDBRANCH   8  15
ENDBRANCH   7   8
ENDBRANCH   5   7
ENDBRANCH   1   3
BRANCH   1  20
ATOM     20  S   UNL     1      -0.589  -5.237   4.123  0.00  0.00    -0.141 S 
BRANCH  20  21
ATOM     21  C   UNL     1      -0.703  -3.542   4.761  0.00  0.00    +0.144 C 
BRANCH  21  32
ATOM     22  C   UNL     1      -1.905   1.369   0.359  0.00  0.00    +0.045 C 
ATOM     23  C   UNL     1      -1.730  -0.127   0.323  0.00  0.00    -0.026 A 
ATOM     24  C   UNL     1      -1.807  -0.792  -0.841  0.00  0.00    -0.008 A 
ATOM     25  S   UNL     1      -1.539  -2.490  -0.365  0.00  0.00    -0.073 S 
ATOM     26  C   UNL     1      -1.332  -2.256   1.381  0.00  0.00    +0.116 A 
ATOM     27  C   UNL     1      -1.471  -0.866   1.545  0.00  0.00    +0.075 A 
ATOM     28  C   UNL     1      -1.342  -0.384   2.888  0.00  0.00    +0.260 A 
ATOM     29  O   UNL     1      -1.452   0.805   3.133  0.00  0.00    -0.267 OA
ATOM     30  N   UNL     1      -1.099  -1.266   3.876  0.00  0.00    -0.310 N 
ATOM     31  H   UNL     1      -1.011  -0.946   4.787  0.00  0.00    +0.170 HD
ATOM     32  C   UNL     1      -0.975  -2.594   3.622  0.00  0.00    +0.121 A 
ATOM     33  N   UNL     1      -1.096  -3.065   2.410  0.00  0.00    -0.226 NA
ATOM     34  C   UNL     1      -2.060  -0.237  -2.219  0.00  0.00    +0.052 C 
ENDBRANCH  21  32
ENDBRANCH  20  21
ENDBRANCH   1  20
TORSDOF 8
