REMARK  Name = ZINC58948917
REMARK  12 active torsions:
REMARK  status: ('A' for Active; 'I' for Inactive)
REMARK    1  A    between atoms: C_1  and  C_2
REMARK    2  A    between atoms: N_7  and  C_9
REMARK    3  A    between atoms: C_9  and  C_10
REMARK    4  A    between atoms: C_13  and  C_16
REMARK    5  A    between atoms: C_16  and  N_17
REMARK    6  A    between atoms: C_18  and  C_20
REMARK    7  A    between atoms: C_23  and  S_26
REMARK    8  A    between atoms: S_26  and  N_29
REMARK    9  A    between atoms: N_29  and  C_30
REMARK   10  A    between atoms: C_30  and  C_31
REMARK   11  A    between atoms: C_30  and  C_32
REMARK   12  A    between atoms: C_30  and  C_33
REMARK                            x       y       z     vdW  Elec       q    Type
REMARK                         _______ _______ _______ _____ _____    ______ ____
ROOT
ATOM      1  N   UNL     1       1.570 -11.345   1.887  0.00  0.00    -0.307 N 
ATOM      2  C   UNL     1       0.706 -12.304   1.501  0.00  0.00    +0.244 C 
ATOM      3  O   UNL     1       0.550 -13.295   2.188  0.00  0.00    -0.270 OA
ATOM      4  H   UNL     1       1.694 -10.554   1.338  0.00  0.00    +0.149 HD
ENDROOT
BRANCH   2   5
ATOM      5  C   UNL     1      -0.053 -12.152   0.241  0.00  0.00    +0.037 A 
ATOM      6  C   UNL     1       0.128 -11.019  -0.554  0.00  0.00    +0.015 A 
ATOM      7  C   UNL     1      -0.583 -10.884  -1.728  0.00  0.00    +0.029 A 
ATOM      8  C   UNL     1      -1.473 -11.868  -2.119  0.00  0.00    +0.105 A 
ATOM      9  C   UNL     1      -1.657 -12.994  -1.336  0.00  0.00    +0.029 A 
ATOM     10  C   UNL     1      -0.948 -13.144  -0.162  0.00  0.00    +0.015 A 
BRANCH   8  11
ATOM     11  S   UNL     1      -2.377 -11.687  -3.621  0.00  0.00    +0.059 S 
ATOM     12  O   UNL     1      -3.418 -12.654  -3.587  0.00  0.00    -0.153 OA
ATOM     13  O   UNL     1      -2.633 -10.298  -3.776  0.00  0.00    -0.153 OA
BRANCH  11  14
ATOM     14  N   UNL     1      -1.366 -12.124  -4.857  0.00  0.00    -0.185 NA
ATOM     15  H   UNL     1      -1.061 -11.457  -5.493  0.00  0.00    +0.149 HD
BRANCH  14  16
ATOM     16  C   UNL     1      -0.931 -13.517  -4.991  0.00  0.00    +0.032 C 
ATOM     17  C   UNL     1      -2.135 -14.396  -5.334  0.00  0.00    +0.029 C 
ATOM     18  C   UNL     1       0.111 -13.621  -6.106  0.00  0.00    +0.029 C 
ATOM     19  C   UNL     1      -0.315 -13.988  -3.672  0.00  0.00    +0.029 C 
ENDBRANCH  14  16
ENDBRANCH  11  14
ENDBRANCH   8  11
ENDBRANCH   2   5
BRANCH   1  20
ATOM     20  C   UNL     1       2.321 -11.495   3.135  0.00  0.00    +0.139 C 
BRANCH  20  24
ATOM     21  C   UNL     1       4.840  -8.092   3.702  0.00  0.00    -0.064 A 
ATOM     22  C   UNL     1       3.553  -8.091   4.206  0.00  0.00    +0.002 A 
ATOM     23  C   UNL     1       2.738  -9.192   4.022  0.00  0.00    +0.005 A 
ATOM     24  C   UNL     1       3.210 -10.294   3.335  0.00  0.00    -0.030 A 
ATOM     25  C   UNL     1       4.497 -10.296   2.830  0.00  0.00    +0.005 A 
ATOM     26  C   UNL     1       5.311  -9.193   3.010  0.00  0.00    +0.002 A 
BRANCH  21  27
ATOM     27  C   UNL     1       5.729  -6.892   3.902  0.00  0.00    -0.043 C 
BRANCH  27  33
ATOM     28  C   UNL     1       6.871  -2.450   2.189  0.00  0.00    +0.005 C 
ATOM     29  C   UNL     1       6.069  -3.724   1.918  0.00  0.00    -0.031 C 
ATOM     30  C   UNL     1       6.512  -4.334   0.585  0.00  0.00    -0.001 C 
ATOM     31  C   UNL     1       5.759  -5.649   0.361  0.00  0.00    -0.018 C 
ATOM     32  C   UNL     1       6.019  -6.586   1.542  0.00  0.00    -0.078 C 
ATOM     33  N   UNL     1       5.550  -5.957   2.783  0.00  0.00    +0.383 N 
ATOM     34  C   UNL     1       6.316  -4.733   3.042  0.00  0.00    -0.075 C 
ATOM     35  H   UNL     1       4.571  -5.728   2.693  0.00  0.00    -0.081 HD
ENDBRANCH  27  33
ENDBRANCH  21  27
ENDBRANCH  20  24
ENDBRANCH   1  20
TORSDOF 8
