REMARK  Name = ZINC08623002
REMARK  11 active torsions:
REMARK  status: ('A' for Active; 'I' for Inactive)
REMARK    1  A    between atoms: C_1  and  C_2
REMARK    2  A    between atoms: C_2  and  C_3
REMARK    3  A    between atoms: C_3  and  C_4
REMARK    4  A    between atoms: C_3  and  C_6
REMARK    5  A    between atoms: C_4  and  C_5
REMARK    6  A    between atoms: C_8  and  C_18
REMARK    7  A    between atoms: C_10  and  C_12
REMARK    8  A    between atoms: C_26  and  C_28
REMARK    9  A    between atoms: C_28  and  N_29
REMARK   10  A    between atoms: C_30  and  C_32
REMARK   11  A    between atoms: C_35  and  C_38
REMARK                            x       y       z     vdW  Elec       q    Type
REMARK                         _______ _______ _______ _____ _____    ______ ____
ROOT
ATOM      1  C   UNL     1      -3.709   3.205  -0.135  0.00  0.00    +0.024 C 
ATOM      2  C   UNL     1      -3.617   1.696   0.111  0.00  0.00    -0.068 C 
ATOM      3  C   UNL     1      -3.877   2.012   2.497  0.00  0.00    -0.078 C 
ATOM      4  C   UNL     1      -3.977   3.530   2.321  0.00  0.00    -0.015 C 
ATOM      5  C   UNL     1      -3.156   3.941   1.092  0.00  0.00    -0.007 C 
ATOM      6  C   UNL     1      -1.701   3.506   1.308  0.00  0.00    -0.010 C 
ATOM      7  C   UNL     1      -1.663   1.989   1.513  0.00  0.00    -0.051 C 
ATOM      8  N   UNL     1      -3.028   1.424   1.439  0.00  0.00    +0.383 N 
ATOM      9  H   UNL     1      -2.976   0.408   1.579  0.00  0.00    -0.081 HD
ENDROOT
BRANCH   1  12
ATOM     10  C   UNL     1      -2.091   3.091  -3.543  0.00  0.00    +0.048 A 
ATOM     11  C   UNL     1      -2.846   2.715  -2.442  0.00  0.00    +0.047 A 
ATOM     12  C   UNL     1      -2.897   3.569  -1.351  0.00  0.00    +0.047 A 
ATOM     13  N   UNL     1      -2.221   4.705  -1.388  0.00  0.00    -0.232 NA
ATOM     14  C   UNL     1      -1.505   5.032  -2.454  0.00  0.00    +0.160 A 
ATOM     15  N   UNL     1      -1.439   4.240  -3.516  0.00  0.00    -0.232 NA
BRANCH  14  16
ATOM     16  C   UNL     1      -0.758   6.314  -2.460  0.00  0.00    +0.022 A 
ATOM     17  C   UNL     1      -0.808   7.178  -1.362  0.00  0.00    +0.031 A 
ATOM     18  C   UNL     1      -0.094   8.359  -1.407  0.00  0.00    +0.111 A 
ATOM     19  N   UNL     1       0.618   8.680  -2.470  0.00  0.00    -0.263 NA
ATOM     20  C   UNL     1       0.686   7.896  -3.528  0.00  0.00    +0.111 A 
ATOM     21  C   UNL     1       0.008   6.694  -3.565  0.00  0.00    +0.031 A 
ENDBRANCH  14  16
BRANCH  10  22
ATOM     22  C   UNL     1      -2.010   2.197  -4.754  0.00  0.00    +0.037 C 
BRANCH  22  24
ATOM     23  C   UNL     1      -0.745   0.322  -5.815  0.00  0.00    +0.004 C 
ATOM     24  C   UNL     1      -0.930   1.136  -4.533  0.00  0.00    +0.006 C 
ENDBRANCH  22  24
BRANCH  22  25
ATOM     25  C   UNL     1      -3.360   1.512  -4.973  0.00  0.00    +0.006 C 
ATOM     26  C   UNL     1      -4.415   2.565  -5.320  0.00  0.00    +0.004 C 
ENDBRANCH  22  25
ENDBRANCH  10  22
ENDBRANCH   1  12
BRANCH   7  27
ATOM     27  C   UNL     1      -0.800   1.348   0.424  0.00  0.00    +0.089 C 
BRANCH  27  28
ATOM     28  N   UNL     1      -0.859  -0.110   0.550  0.00  0.00    -0.313 N 
ATOM     29  C   UNL     1      -0.254  -0.891  -0.366  0.00  0.00    +0.244 C 
ATOM     30  O   UNL     1       0.417  -0.387  -1.246  0.00  0.00    -0.270 OA
ATOM     31  H   UNL     1      -1.333  -0.514   1.294  0.00  0.00    +0.149 HD
BRANCH  29  32
ATOM     32  C   UNL     1      -0.406  -2.360  -0.303  0.00  0.00    +0.037 A 
ATOM     33  C   UNL     1      -1.171  -2.942   0.709  0.00  0.00    +0.013 A 
ATOM     34  C   UNL     1      -1.313  -4.314   0.760  0.00  0.00    +0.004 A 
ATOM     35  C   UNL     1      -0.690  -5.112  -0.183  0.00  0.00    -0.050 A 
ATOM     36  C   UNL     1       0.074  -4.542  -1.185  0.00  0.00    +0.004 A 
ATOM     37  C   UNL     1       0.220  -3.171  -1.251  0.00  0.00    +0.013 A 
ATOM     38  C   UNL     1      -0.845  -6.610  -0.118  0.00  0.00    +0.044 C 
ENDBRANCH  29  32
ENDBRANCH  27  28
ENDBRANCH   7  27
TORSDOF 8
