REMARK  Name = ZINC08635762
REMARK  8 active torsions:
REMARK  status: ('A' for Active; 'I' for Inactive)
REMARK    1  A    between atoms: C_1  and  O_2
REMARK    2  A    between atoms: O_2  and  C_3
REMARK    3  A    between atoms: C_3  and  C_5
REMARK    4  A    between atoms: C_11  and  C_13
REMARK    5  A    between atoms: C_21  and  C_23
REMARK    6  A    between atoms: C_23  and  N_24
REMARK    7  A    between atoms: C_26  and  C_29
REMARK    8  A    between atoms: C_33  and  N_35
REMARK                            x       y       z     vdW  Elec       q    Type
REMARK                         _______ _______ _______ _____ _____    ______ ____
ROOT
ATOM      1  C   UNL     1       0.699  -0.509   1.268  0.00  0.00    +0.062 C 
ATOM      2  C   UNL     1       0.002  -0.004   0.002  0.00  0.00    -0.065 C 
ATOM      3  C   UNL     1      -0.781   1.976   1.157  0.00  0.00    -0.078 C 
ATOM      4  C   UNL     1      -0.106   1.527   2.456  0.00  0.00    -0.015 C 
ATOM      5  C   UNL     1       1.136   0.697   2.108  0.00  0.00    -0.004 C 
ATOM      6  C   UNL     1       2.082   1.563   1.266  0.00  0.00    -0.010 C 
ATOM      7  C   UNL     1       1.346   2.011   0.000  0.00  0.00    -0.046 C 
ATOM      8  N   UNL     1      -0.031   1.474  -0.014  0.00  0.00    +0.383 N 
ATOM      9  H   UNL     1      -0.502   1.788  -0.871  0.00  0.00    -0.081 HD
ENDROOT
BRANCH   1  16
ATOM     10  C   UNL     1      -0.984  -5.210   0.832  0.00  0.00    +0.101 C 
ATOM     11  C   UNL     1      -1.199  -4.756   2.278  0.00  0.00    +0.033 C 
ATOM     12  C   UNL     1      -1.715  -3.313   2.284  0.00  0.00    +0.108 C 
ATOM     13  N   UNL     1      -0.783  -2.474   1.519  0.00  0.00    -0.301 N 
ATOM     14  C   UNL     1      -0.441  -2.868   0.146  0.00  0.00    +0.108 C 
ATOM     15  C   UNL     1       0.066  -4.318   0.166  0.00  0.00    +0.033 C 
ATOM     16  C   UNL     1      -0.256  -1.360   2.065  0.00  0.00    +0.217 C 
ATOM     17  O   UNL     1      -0.550  -1.043   3.198  0.00  0.00    -0.275 OA
BRANCH  10  18
ATOM     18  C   UNL     1      -0.508  -6.640   0.821  0.00  0.00    +0.310 C 
ATOM     19  O   UNL     1      -0.356  -7.234   1.862  0.00  0.00    -0.251 OA
BRANCH  18  21
ATOM     20  C   UNL     1       0.202  -8.631  -0.280  0.00  0.00    +0.280 C 
ATOM     21  O   UNL     1      -0.253  -7.254  -0.345  0.00  0.00    -0.468 OA
ENDBRANCH  18  21
ENDBRANCH  10  18
ENDBRANCH   1  16
BRANCH   7  22
ATOM     22  C   UNL     1       1.283   3.540  -0.040  0.00  0.00    +0.130 C 
BRANCH  22  23
ATOM     23  N   UNL     1       0.684   3.971  -1.305  0.00  0.00    -0.253 N 
ATOM     24  C   UNL     1      -0.394   4.777  -1.434  0.00  0.00    +0.138 A 
ATOM     25  C   UNL     1      -0.602   4.917  -2.775  0.00  0.00    +0.113 A 
ATOM     26  N   UNL     1       0.351   4.186  -3.381  0.00  0.00    -0.130 NA
ATOM     27  N   UNL     1       1.091   3.643  -2.480  0.00  0.00    -0.065 NA
BRANCH  25  28
ATOM     28  C   UNL     1      -1.668   5.713  -3.434  0.00  0.00    +0.005 A 
ATOM     29  C   UNL     1      -2.523   6.505  -2.669  0.00  0.00    +0.010 A 
ATOM     30  C   UNL     1      -3.514   7.244  -3.282  0.00  0.00    +0.002 A 
ATOM     31  C   UNL     1      -3.663   7.203  -4.656  0.00  0.00    +0.023 A 
ATOM     32  C   UNL     1      -2.815   6.416  -5.426  0.00  0.00    +0.025 A 
ATOM     33  C   UNL     1      -1.814   5.674  -4.817  0.00  0.00    +0.032 A 
BRANCH  32  34
ATOM     34  N   UNL     1      -2.969   6.377  -6.814  0.00  0.00    -0.358 N 
ATOM     35  H   UNL     1      -3.666   6.899  -7.240  0.00  0.00    +0.142 HD
ATOM     36  H   UNL     1      -2.377   5.827  -7.352  0.00  0.00    +0.142 HD
ENDBRANCH  32  34
ENDBRANCH  25  28
ENDBRANCH  22  23
ENDBRANCH   7  22
TORSDOF 7
