REMARK  Name = ZINC12321067
REMARK  6 active torsions:
REMARK  status: ('A' for Active; 'I' for Inactive)
REMARK    1  A    between atoms: C_1  and  C_2
REMARK    2  A    between atoms: C_2  and  N_3
REMARK    3  A    between atoms: C_5  and  C_17
REMARK    4  A    between atoms: C_6  and  C_11
REMARK    5  A    between atoms: N_21  and  N_22
REMARK    6  A    between atoms: C_23  and  C_24
REMARK                            x       y       z     vdW  Elec       q    Type
REMARK                         _______ _______ _______ _____ _____    ______ ____
ROOT
ATOM      1  N   UNL     1       0.685  -0.459  -1.214  0.00  0.00    -0.262 N 
ATOM      2  C   UNL     1      -0.059  -0.745  -2.345  0.00  0.00    +0.087 C 
ATOM      3  C   UNL     1       0.531  -1.171  -3.470  0.00  0.00    +0.015 C 
ATOM      4  C   UNL     1       2.037  -1.330  -3.464  0.00  0.00    +0.138 C 
ATOM      5  N   UNL     1       2.742  -1.001  -2.214  0.00  0.00    -0.288 N 
ATOM      6  C   UNL     1       2.018  -0.578  -1.159  0.00  0.00    +0.307 C 
ATOM      7  O   UNL     1       2.592  -0.300  -0.124  0.00  0.00    -0.252 OA
ATOM      8  H   UNL     1       3.706  -1.085  -2.152  0.00  0.00    +0.151 HD
ENDROOT
BRANCH   3   9
ATOM      9  C   UNL     1      -0.260  -1.476  -4.673  0.00  0.00    +0.054 A 
ATOM     10  C   UNL     1      -1.242  -2.406  -4.625  0.00  0.00    +0.074 A 
ATOM     11  S   UNL     1      -1.861  -2.382  -6.300  0.00  0.00    -0.056 S 
ATOM     12  C   UNL     1      -0.765  -1.131  -6.952  0.00  0.00    +0.192 A 
ATOM     13  N   UNL     1      -0.700  -0.632  -8.177  0.00  0.00    -0.124 NA
ATOM     14  N   UNL     1      -0.011  -0.818  -5.845  0.00  0.00    -0.332 N 
ATOM     15  H   UNL     1       0.687  -0.146  -5.896  0.00  0.00    +0.168 HD
BRANCH  13  16
ATOM     16  N   UNL     1       0.171   0.278  -8.457  0.00  0.00    -0.152 NA
ATOM     17  C   UNL     1       0.235   0.771  -9.669  0.00  0.00    +0.181 C 
BRANCH  17  18
ATOM     18  C   UNL     1       1.222   1.802  -9.986  0.00  0.00    +0.147 A 
ATOM     19  C   UNL     1       1.392   2.404 -11.203  0.00  0.00    +0.051 A 
ATOM     20  C   UNL     1       2.445   3.326 -11.053  0.00  0.00    +0.042 A 
ATOM     21  C   UNL     1       2.863   3.248  -9.774  0.00  0.00    +0.196 A 
ATOM     22  O   UNL     1       2.119   2.332  -9.130  0.00  0.00    -0.462 OA
ENDBRANCH  17  18
ENDBRANCH  13  16
ENDBRANCH   3   9
BRANCH   4  23
ATOM     23  C   UNL     1       2.354  -2.762  -3.811  0.00  0.00    -0.023 A 
ATOM     24  C   UNL     1       2.147  -3.761  -2.878  0.00  0.00    +0.006 A 
ATOM     25  C   UNL     1       2.437  -5.075  -3.196  0.00  0.00    +0.000 A 
ATOM     26  C   UNL     1       2.934  -5.389  -4.447  0.00  0.00    +0.000 A 
ATOM     27  C   UNL     1       3.140  -4.390  -5.380  0.00  0.00    +0.000 A 
ATOM     28  C   UNL     1       2.846  -3.077  -5.064  0.00  0.00    +0.006 A 
ENDBRANCH   4  23
BRANCH   1  30
ATOM     29  C   UNL     1      -0.126   1.530  -0.045  0.00  0.00    +0.025 C 
ATOM     30  C   UNL     1      -0.021   0.004  -0.017  0.00  0.00    +0.111 C 
ENDBRANCH   1  30
TORSDOF 5
