REMARK  Name = ZINC22893014
REMARK  8 active torsions:
REMARK  status: ('A' for Active; 'I' for Inactive)
REMARK    1  A    between atoms: C_1  and  N_2
REMARK    2  A    between atoms: N_2  and  C_3
REMARK    3  A    between atoms: N_2  and  C_19
REMARK    4  A    between atoms: C_3  and  C_4
REMARK    5  A    between atoms: C_7  and  C_9
REMARK    6  A    between atoms: N_11  and  C_12
REMARK    7  A    between atoms: C_19  and  C_20
REMARK    8  A    between atoms: N_22  and  C_23
REMARK                            x       y       z     vdW  Elec       q    Type
REMARK                         _______ _______ _______ _____ _____    ______ ____
ROOT
ATOM      1  C   UNL     1       3.321  -8.219  -0.628  0.00  0.00    -0.013 C 
ENDROOT
BRANCH   1   2
ATOM      2  C   UNL     1       2.875  -6.785  -0.491  0.00  0.00    +0.086 A 
ATOM      3  N   UNL     1       1.653  -6.291  -0.395  0.00  0.00    -0.148 NA
ATOM      4  N   UNL     1       1.439  -5.051  -0.285  0.00  0.00    -0.137 NA
ATOM      5  C   UNL     1       2.457  -4.195  -0.261  0.00  0.00    +0.187 A 
ATOM      6  S   UNL     1       3.828  -5.332  -0.424  0.00  0.00    -0.048 S 
BRANCH   5   7
ATOM      7  C   UNL     1       2.455  -2.727  -0.142  0.00  0.00    +0.275 C 
ATOM      8  O   UNL     1       3.506  -2.116  -0.141  0.00  0.00    -0.268 OA
ATOM      9  N   UNL     1       1.288  -2.061  -0.035  0.00  0.00    -0.280 N 
ATOM     10  H   UNL     1       0.343  -2.618   0.048  0.00  0.00    +0.155 HD
BRANCH   9  11
ATOM     11  C   UNL     1       1.279  -0.662  -0.029  0.00  0.00    +0.034 A 
ATOM     12  C   UNL     1       2.214   0.043  -0.776  0.00  0.00    +0.026 A 
ATOM     13  C   UNL     1       2.203   1.423  -0.769  0.00  0.00    +0.040 A 
ATOM     14  C   UNL     1       1.260   2.106  -0.018  0.00  0.00    +0.124 A 
ATOM     15  C   UNL     1       0.327   1.405   0.727  0.00  0.00    +0.040 A 
ATOM     16  C   UNL     1       0.334   0.024   0.723  0.00  0.00    +0.026 A 
ATOM     17  F   UNL     1       1.251   3.457  -0.013  0.00  0.00    -0.205 F 
ENDBRANCH   9  11
ENDBRANCH   5   7
ENDBRANCH   1   2
BRANCH   1  19
ATOM     18  C   UNL     1       4.463  -7.810  -2.723  0.00  0.00    -0.095 C 
ATOM     19  N   UNL     1       3.402  -8.572  -2.051  0.00  0.00    +0.388 N 
ATOM     20  H   UNL     1       2.444  -8.304  -2.522  0.00  0.00    -0.081 HD
BRANCH  19  21
ATOM     21  C   UNL     1       3.601 -10.017  -2.224  0.00  0.00    +0.019 C 
BRANCH  21  22
ATOM     22  C   UNL     1       3.435 -10.377  -3.678  0.00  0.00    +0.201 C 
ATOM     23  O   UNL     1       3.176  -9.514  -4.491  0.00  0.00    -0.278 OA
ATOM     24  N   UNL     1       3.574 -11.657  -4.076  0.00  0.00    -0.287 N 
ATOM     25  H   UNL     1       3.733 -12.450  -3.331  0.00  0.00    +0.155 HD
BRANCH  24  26
ATOM     26  C   UNL     1       3.516 -11.977  -5.438  0.00  0.00    +0.035 A 
ATOM     27  C   UNL     1       2.654 -11.285  -6.278  0.00  0.00    +0.025 A 
ATOM     28  C   UNL     1       2.602 -11.598  -7.622  0.00  0.00    +0.023 A 
ATOM     29  C   UNL     1       3.400 -12.609  -8.130  0.00  0.00    +0.059 A 
ATOM     30  C   UNL     1       4.256 -13.305  -7.293  0.00  0.00    +0.061 A 
ATOM     31  C   UNL     1       4.315 -12.991  -5.948  0.00  0.00    +0.044 A 
ATOM     32 CL   UNL     1       5.255 -14.572  -7.933  0.00  0.00    -0.082 Cl
ATOM     33 CL   UNL     1       3.327 -13.005  -9.819  0.00  0.00    -0.082 Cl
ENDBRANCH  24  26
ENDBRANCH  21  22
ENDBRANCH  19  21
ENDBRANCH   1  19
TORSDOF 7
