REMARK  Name = ZINC58114093
REMARK  8 active torsions:
REMARK  status: ('A' for Active; 'I' for Inactive)
REMARK    1  A    between atoms: C_1  and  C_2
REMARK    2  A    between atoms: C_5  and  C_8
REMARK    3  A    between atoms: C_11  and  C_13
REMARK    4  A    between atoms: C_13  and  C_14
REMARK    5  A    between atoms: C_14  and  C_15
REMARK    6  A    between atoms: N_17  and  C_18
REMARK    7  A    between atoms: C_22  and  C_24
REMARK    8  A    between atoms: N_26  and  C_27
REMARK                            x       y       z     vdW  Elec       q    Type
REMARK                         _______ _______ _______ _____ _____    ______ ____
ROOT
ATOM      1  C   UNL     1       1.570  -9.235   2.538  0.00  0.00    +0.218 C 
ATOM      2  O   UNL     1       0.527  -9.750   2.880  0.00  0.00    -0.275 OA
ATOM      3  N   UNL     1       2.745  -9.781   2.909  0.00  0.00    -0.285 N 
ATOM      4  H   UNL     1       3.578  -9.409   2.582  0.00  0.00    +0.155 HD
ENDROOT
BRANCH   3   5
ATOM      5  C   UNL     1       2.762 -10.887   3.767  0.00  0.00    +0.034 A 
ATOM      6  C   UNL     1       3.777 -11.021   4.707  0.00  0.00    +0.023 A 
ATOM      7  C   UNL     1       3.799 -12.111   5.557  0.00  0.00    +0.003 A 
ATOM      8  C   UNL     1       2.813 -13.074   5.477  0.00  0.00    +0.013 A 
ATOM      9  C   UNL     1       1.790 -12.949   4.536  0.00  0.00    +0.038 A 
ATOM     10  C   UNL     1       1.764 -11.845   3.683  0.00  0.00    +0.036 A 
BRANCH   9  11
ATOM     11  C   UNL     1       0.732 -13.979   4.448  0.00  0.00    +0.244 C 
ATOM     12  O   UNL     1      -0.158 -13.867   3.628  0.00  0.00    -0.270 OA
ATOM     13  N   UNL     1       0.756 -15.041   5.277  0.00  0.00    -0.314 N 
ATOM     14  C   UNL     1      -0.291 -16.062   5.190  0.00  0.00    +0.128 C 
ATOM     15  H   UNL     1       1.466 -15.130   5.932  0.00  0.00    +0.149 HD
ENDBRANCH   9  11
ENDBRANCH   3   5
BRANCH   1  16
ATOM     16  C   UNL     1       1.553  -7.982   1.700  0.00  0.00    +0.105 C 
BRANCH  16  17
ATOM     17  C   UNL     1       0.105  -7.575   1.421  0.00  0.00    +0.107 C 
BRANCH  17  21
ATOM     18  C   UNL     1       0.063  -4.261  -0.043  0.00  0.00    +0.248 A 
ATOM     19  N   UNL     1       0.067  -5.039  -1.099  0.00  0.00    -0.107 NA
ATOM     20  N   UNL     1       0.082  -6.269  -0.720  0.00  0.00    -0.112 NA
ATOM     21  C   UNL     1       0.088  -6.323   0.583  0.00  0.00    +0.218 A 
ATOM     22  O   UNL     1       0.081  -5.060   1.043  0.00  0.00    -0.420 OA
BRANCH  18  27
ATOM     23  C   UNL     1       0.003   1.494  -0.045  0.00  0.00    +0.044 C 
ATOM     24  C   UNL     1       0.019  -0.013  -0.044  0.00  0.00    -0.050 A 
ATOM     25  C   UNL     1       0.015  -0.703  -1.244  0.00  0.00    +0.004 A 
ATOM     26  C   UNL     1       0.030  -2.082  -1.250  0.00  0.00    +0.013 A 
ATOM     27  C   UNL     1       0.048  -2.782  -0.043  0.00  0.00    +0.038 A 
ATOM     28  C   UNL     1       0.051  -2.081   1.163  0.00  0.00    +0.013 A 
ATOM     29  C   UNL     1       0.042  -0.701   1.156  0.00  0.00    +0.004 A 
ENDBRANCH  18  27
ENDBRANCH  17  21
ENDBRANCH  16  17
ENDBRANCH   1  16
TORSDOF 6
