REMARK  Name = ZINC05343945
REMARK  11 active torsions:
REMARK  status: ('A' for Active; 'I' for Inactive)
REMARK    1  A    between atoms: C_1  and  C_2
REMARK    2  A    between atoms: C_2  and  O_3
REMARK    3  A    between atoms: O_3  and  C_4
REMARK    4  A    between atoms: C_8  and  C_10
REMARK    5  A    between atoms: C_13  and  C_24
REMARK    6  A    between atoms: N_20  and  C_21
REMARK    7  A    between atoms: C_21  and  C_22
REMARK    8  A    between atoms: C_22  and  O_23
REMARK    9  A    between atoms: C_26  and  C_32
REMARK   10  A    between atoms: C_28  and  C_31
REMARK   11  A    between atoms: C_29  and  O_30
REMARK                            x       y       z     vdW  Elec       q    Type
REMARK                         _______ _______ _______ _____ _____    ______ ____
ROOT
ATOM      1  C   UNL     1      -3.847  -4.455  -0.165  0.00  0.00    +0.141 C 
ATOM      2  C   UNL     1      -4.538  -4.737  -1.470  0.00  0.00    +0.035 A 
ATOM      3  C   UNL     1      -5.011  -4.235  -2.688  0.00  0.00    +0.102 A 
ATOM      4  N   UNL     1      -5.554  -5.241  -3.345  0.00  0.00    -0.173 NA
ATOM      5  N   UNL     1      -5.472  -6.328  -2.663  0.00  0.00    -0.272 N 
ATOM      6  H   UNL     1      -5.805  -7.192  -2.951  0.00  0.00    +0.189 HD
ATOM      7  C   UNL     1      -4.845  -6.085  -1.474  0.00  0.00    +0.126 A 
ATOM      8  C   UNL     1      -4.373  -6.674  -0.216  0.00  0.00    +0.266 C 
ATOM      9  O   UNL     1      -4.491  -7.846   0.088  0.00  0.00    -0.268 OA
ATOM     10  N   UNL     1      -3.792  -5.735   0.553  0.00  0.00    -0.283 N 
ENDROOT
BRANCH   3  11
ATOM     11  C   UNL     1      -4.918  -2.829  -3.153  0.00  0.00    +0.044 A 
ATOM     12  C   UNL     1      -4.425  -1.842  -2.304  0.00  0.00    +0.017 A 
ATOM     13  C   UNL     1      -4.340  -0.536  -2.741  0.00  0.00    -0.049 A 
ATOM     14  C   UNL     1      -4.744  -0.203  -4.022  0.00  0.00    +0.010 A 
ATOM     15  C   UNL     1      -5.235  -1.174  -4.873  0.00  0.00    -0.008 A 
ATOM     16  C   UNL     1      -5.319  -2.491  -4.449  0.00  0.00    +0.129 A 
ATOM     17  C   UNL     1      -5.673  -0.803  -6.267  0.00  0.00    +0.047 C 
ATOM     18  C   UNL     1      -3.807   0.531  -1.821  0.00  0.00    +0.044 C 
BRANCH  16  19
ATOM     19  O   UNL     1      -5.796  -3.448  -5.287  0.00  0.00    -0.506 OA
ATOM     20  H   UNL     1      -6.753  -3.574  -5.236  0.00  0.00    +0.292 HD
ENDBRANCH  16  19
ENDBRANCH   3  11
BRANCH   1  25
ATOM     21  C   UNL     1      -0.856  -2.154  -0.361  0.00  0.00    +0.121 A 
ATOM     22  C   UNL     1       0.110  -3.003  -0.883  0.00  0.00    +0.045 A 
ATOM     23  C   UNL     1      -0.209  -4.316  -1.170  0.00  0.00    +0.004 A 
ATOM     24  C   UNL     1      -1.489  -4.785  -0.937  0.00  0.00    +0.006 A 
ATOM     25  C   UNL     1      -2.453  -3.941  -0.417  0.00  0.00    -0.019 A 
ATOM     26  C   UNL     1      -2.137  -2.628  -0.123  0.00  0.00    +0.051 A 
BRANCH  21  27
ATOM     27  O   UNL     1      -0.544  -0.862  -0.077  0.00  0.00    -0.492 OA
BRANCH  27  29
ATOM     28  C   UNL     1       0.955   1.030   0.033  0.00  0.00    +0.048 C 
ATOM     29  C   UNL     1       0.795  -0.443  -0.348  0.00  0.00    +0.225 C 
ENDBRANCH  27  29
ENDBRANCH  21  27
ENDBRANCH   1  25
BRANCH  10  30
ATOM     30  C   UNL     1      -3.204  -5.951   1.878  0.00  0.00    +0.137 C 
BRANCH  30  31
ATOM     31  C   UNL     1      -4.273  -5.738   2.951  0.00  0.00    +0.175 C 
BRANCH  31  32
ATOM     32  O   UNL     1      -5.286  -6.737   2.819  0.00  0.00    -0.393 OA
ATOM     33  H   UNL     1      -5.999  -6.663   3.469  0.00  0.00    +0.209 HD
ENDBRANCH  31  32
ENDBRANCH  30  31
ENDBRANCH  10  30
TORSDOF 8
