REMARK  Name = ZINC64746352
REMARK  7 active torsions:
REMARK  status: ('A' for Active; 'I' for Inactive)
REMARK    1  A    between atoms: C_1  and  C_2
REMARK    2  A    between atoms: C_7  and  C_12
REMARK    3  A    between atoms: C_12  and  C_13
REMARK    4  A    between atoms: C_13  and  N_14
REMARK    5  A    between atoms: C_15  and  C_17
REMARK    6  A    between atoms: C_20  and  C_23
REMARK    7  A    between atoms: C_26  and  N_29
REMARK                            x       y       z     vdW  Elec       q    Type
REMARK                         _______ _______ _______ _____ _____    ______ ____
ROOT
ATOM      1  N   UNL     1       2.584  -7.178   1.698  0.00  0.00    -0.311 N 
ATOM      2  C   UNL     1       2.805  -8.411   1.202  0.00  0.00    +0.275 C 
ATOM      3  O   UNL     1       2.005  -8.911   0.440  0.00  0.00    -0.270 OA
ATOM      4  H   UNL     1       3.224  -6.778   2.307  0.00  0.00    +0.149 HD
ENDROOT
BRANCH   2   5
ATOM      5  C   UNL     1       4.046  -9.170   1.595  0.00  0.00    +0.378 C 
ATOM      6  N   UNL     1       5.234  -8.575   0.964  0.00  0.00    -0.282 N 
ATOM      7  C   UNL     1       5.788  -9.550   0.154  0.00  0.00    +0.168 C 
ATOM      8  N   UNL     1       5.104 -10.646   0.209  0.00  0.00    -0.066 NA
ATOM      9  O   UNL     1       3.997 -10.511   1.083  0.00  0.00    -0.360 OA
ATOM     10  H   UNL     1       5.564  -7.671   1.090  0.00  0.00    +0.152 HD
BRANCH   7  11
ATOM     11  C   UNL     1       7.004  -9.363  -0.666  0.00  0.00    +0.018 A 
ATOM     12  C   UNL     1       7.676  -8.139  -0.653  0.00  0.00    +0.013 A 
ATOM     13  C   UNL     1       8.808  -7.968  -1.418  0.00  0.00    +0.024 A 
ATOM     14  C   UNL     1       9.282  -9.013  -2.204  0.00  0.00    +0.030 A 
ATOM     15  C   UNL     1       8.614 -10.233  -2.220  0.00  0.00    +0.024 A 
ATOM     16  C   UNL     1       7.485 -10.412  -1.452  0.00  0.00    +0.013 A 
BRANCH  14  17
ATOM     17  N   UNL     1      10.428  -8.837  -2.978  0.00  0.00    -0.330 N 
ATOM     18  C   UNL     1      11.011  -9.963  -3.719  0.00  0.00    +0.105 C 
ATOM     19  C   UNL     1      11.163  -9.561  -5.189  0.00  0.00    +0.019 C 
ATOM     20  C   UNL     1      11.971  -8.264  -5.278  0.00  0.00    +0.003 C 
ATOM     21  C   UNL     1      11.227  -7.146  -4.545  0.00  0.00    +0.019 C 
ATOM     22  C   UNL     1      11.072  -7.520  -3.073  0.00  0.00    +0.105 C 
ENDBRANCH  14  17
ENDBRANCH   7  11
ENDBRANCH   2   5
BRANCH   1  23
ATOM     23  C   UNL     1       1.378  -6.439   1.315  0.00  0.00    +0.108 C 
BRANCH  23  24
ATOM     24  C   UNL     1       1.371  -5.077   2.012  0.00  0.00    +0.065 C 
BRANCH  24  31
ATOM     25  C   UNL     1       0.068   1.549   0.149  0.00  0.00    +0.044 C 
ATOM     26  C   UNL     1       0.077   0.042   0.123  0.00  0.00    -0.048 A 
ATOM     27  C   UNL     1       0.073  -0.612  -1.121  0.00  0.00    +0.005 A 
ATOM     28  C   UNL     1       0.079  -1.955  -1.237  0.00  0.00    +0.027 A 
ATOM     29  C   UNL     1       0.092  -2.787  -0.026  0.00  0.00    +0.060 A 
ATOM     30  N   UNL     1       0.100  -4.074   0.163  0.00  0.00    -0.363 N 
ATOM     31  C   UNL     1       0.111  -4.307   1.613  0.00  0.00    +0.175 C 
ATOM     32  N   UNL     1       0.108  -2.981   2.245  0.00  0.00    -0.363 N 
ATOM     33  C   UNL     1       0.097  -2.095   1.292  0.00  0.00    +0.060 A 
ATOM     34  C   UNL     1       0.094  -0.625   1.295  0.00  0.00    +0.030 A 
ATOM     35  H   UNL     1       0.099  -4.756  -0.527  0.00  0.00    +0.162 HD
ATOM     36  H   UNL     1       0.113  -2.800   3.198  0.00  0.00    +0.162 HD
ENDBRANCH  24  31
ENDBRANCH  23  24
ENDBRANCH   1  23
TORSDOF 6
