REMARK  Name = ZINC67488213
REMARK  10 active torsions:
REMARK  status: ('A' for Active; 'I' for Inactive)
REMARK    1  A    between atoms: C_1  and  C_2
REMARK    2  A    between atoms: C_2  and  C_3
REMARK    3  A    between atoms: C_3  and  C_4
REMARK    4  A    between atoms: C_4  and  C_5
REMARK    5  A    between atoms: C_5  and  N_6
REMARK    6  A    between atoms: N_6  and  C_7
REMARK    7  A    between atoms: C_7  and  C_8
REMARK    8  A    between atoms: C_7  and  C_9
REMARK    9  A    between atoms: N_12  and  C_13
REMARK   10  A    between atoms: C_13  and  C_14
REMARK                            x       y       z     vdW  Elec       q    Type
REMARK                         _______ _______ _______ _____ _____    ______ ____
ROOT
ATOM      1  N   UNL     1      -2.690  -4.114  -0.016  0.00  0.00    -0.283 N 
ATOM      2  C   UNL     1      -2.617  -4.643  -1.253  0.00  0.00    +0.303 C 
ATOM      3  O   UNL     1      -2.443  -3.919  -2.215  0.00  0.00    -0.253 OA
ATOM      4  N   UNL     1      -2.736  -5.974  -1.425  0.00  0.00    -0.295 N 
ATOM      5  H   UNL     1      -2.950  -6.544  -0.669  0.00  0.00    +0.151 HD
ENDROOT
BRANCH   1   6
ATOM      6  C   UNL     1      -2.782  -4.993   1.152  0.00  0.00    +0.071 C 
ATOM      7  C   UNL     1      -1.527  -4.831   2.013  0.00  0.00    +0.028 C 
ATOM      8  C   UNL     1      -4.016  -4.620   1.975  0.00  0.00    +0.028 C 
ENDBRANCH   1   6
BRANCH   1   9
ATOM      9  C   UNL     1      -2.677  -2.660   0.161  0.00  0.00    +0.109 C 
BRANCH   9  10
ATOM     10  C   UNL     1      -1.234  -2.177   0.318  0.00  0.00    +0.019 C 
BRANCH  10  11
ATOM     11  C   UNL     1      -1.220  -0.659   0.502  0.00  0.00    +0.001 C 
BRANCH  11  13
ATOM     12  C   UNL     1       0.236   1.342   0.844  0.00  0.00    +0.004 C 
ATOM     13  C   UNL     1       0.223  -0.177   0.659  0.00  0.00    -0.003 C 
ENDBRANCH  11  13
ENDBRANCH  10  11
ENDBRANCH   9  10
ENDBRANCH   1   9
BRANCH   4  14
ATOM     14  C   UNL     1      -2.543  -6.562  -2.753  0.00  0.00    +0.141 C 
BRANCH  14  15
ATOM     15  C   UNL     1      -2.731  -8.055  -2.674  0.00  0.00    -0.027 A 
ATOM     16  C   UNL     1      -1.649  -8.872  -2.403  0.00  0.00    +0.009 A 
ATOM     17  C   UNL     1      -1.813 -10.243  -2.329  0.00  0.00    +0.050 A 
ATOM     18  C   UNL     1      -3.067 -10.796  -2.526  0.00  0.00    +0.162 A 
ATOM     19  C   UNL     1      -4.153  -9.976  -2.798  0.00  0.00    +0.162 A 
ATOM     20  C   UNL     1      -3.986  -8.604  -2.868  0.00  0.00    +0.054 A 
ATOM     21  O   UNL     1      -5.385 -10.531  -2.990  0.00  0.00    -0.488 OA
ATOM     22  C   UNL     1      -5.541 -11.309  -4.178  0.00  0.00    +0.232 C 
ATOM     23  C   UNL     1      -5.057 -12.734  -3.957  0.00  0.00    +0.082 C 
ATOM     24  C   UNL     1      -3.563 -12.802  -3.683  0.00  0.00    +0.232 C 
ATOM     25  O   UNL     1      -3.243 -12.147  -2.454  0.00  0.00    -0.488 OA
ENDBRANCH  14  15
ENDBRANCH   4  14
TORSDOF 7
