REMARK  Name = ZINC59822733
REMARK  9 active torsions:
REMARK  status: ('A' for Active; 'I' for Inactive)
REMARK    1  A    between atoms: C_1  and  C_2
REMARK    2  A    between atoms: N_4  and  C_5
REMARK    3  A    between atoms: C_8  and  N_11
REMARK    4  A    between atoms: C_12  and  C_14
REMARK    5  A    between atoms: C_14  and  S_15
REMARK    6  A    between atoms: S_15  and  C_16
REMARK    7  A    between atoms: C_19  and  C_24
REMARK    8  A    between atoms: N_20  and  C_21
REMARK    9  A    between atoms: C_21  and  C_22
REMARK                            x       y       z     vdW  Elec       q    Type
REMARK                         _______ _______ _______ _____ _____    ______ ____
ROOT
ATOM      1  C   UNL     1       1.182  -8.662  -1.924  0.00  0.00    +0.173 C 
ENDROOT
BRANCH   1   3
ATOM      2  N   UNL     1       1.621  -6.437  -0.936  0.00  0.00    -0.285 N 
ATOM      3  C   UNL     1       1.505  -7.195  -2.045  0.00  0.00    +0.227 C 
ATOM      4  O   UNL     1       1.661  -6.696  -3.139  0.00  0.00    -0.275 OA
ATOM      5  H   UNL     1       1.432  -6.820  -0.065  0.00  0.00    +0.155 HD
BRANCH   2   9
ATOM      6  C   UNL     1       2.792  -2.447  -1.251  0.00  0.00    +0.033 A 
ATOM      7  C   UNL     1       3.202  -3.208  -0.164  0.00  0.00    +0.025 A 
ATOM      8  C   UNL     1       2.814  -4.528  -0.059  0.00  0.00    +0.025 A 
ATOM      9  C   UNL     1       2.014  -5.097  -1.042  0.00  0.00    +0.034 A 
ATOM     10  C   UNL     1       1.604  -4.337  -2.129  0.00  0.00    +0.025 A 
ATOM     11  C   UNL     1       1.987  -3.014  -2.231  0.00  0.00    +0.025 A 
BRANCH   6  15
ATOM     12  C   UNL     1       2.723   1.261  -1.903  0.00  0.00    +0.109 C 
ATOM     13  C   UNL     1       2.341  -0.197  -1.882  0.00  0.00    +0.214 C 
ATOM     14  O   UNL     1       1.274  -0.550  -2.337  0.00  0.00    -0.276 OA
ATOM     15  N   UNL     1       3.185  -1.107  -1.357  0.00  0.00    -0.286 N 
ATOM     16  H   UNL     1       4.065  -0.835  -1.053  0.00  0.00    +0.155 HD
ENDBRANCH   6  15
ENDBRANCH   2   9
ENDBRANCH   1   3
BRANCH   1  17
ATOM     17  S   UNL     1       1.095  -9.400  -3.579  0.00  0.00    -0.077 S 
BRANCH  17  18
ATOM     18  C   UNL     1       0.714 -11.093  -3.271  0.00  0.00    +0.193 A 
ATOM     19  N   UNL     1       0.536 -11.650  -2.095  0.00  0.00    -0.122 NA
ATOM     20  N   UNL     1       0.273 -12.900  -2.234  0.00  0.00    -0.128 NA
ATOM     21  C   UNL     1       0.266 -13.218  -3.508  0.00  0.00    +0.165 A 
ATOM     22  N   UNL     1       0.544 -12.068  -4.212  0.00  0.00    -0.298 N 
BRANCH  21  23
ATOM     23  C   UNL     1       0.005 -14.556  -4.079  0.00  0.00    +0.019 A 
ATOM     24  C   UNL     1       0.407 -14.852  -5.382  0.00  0.00    +0.013 A 
ATOM     25  C   UNL     1       0.160 -16.103  -5.909  0.00  0.00    +0.021 A 
ATOM     26  C   UNL     1      -0.485 -17.063  -5.148  0.00  0.00    +0.041 A 
ATOM     27  C   UNL     1      -0.886 -16.775  -3.855  0.00  0.00    +0.021 A 
ATOM     28  C   UNL     1      -0.640 -15.530  -3.314  0.00  0.00    +0.013 A 
ATOM     29 CL   UNL     1      -0.792 -18.635  -5.819  0.00  0.00    -0.084 Cl
ENDBRANCH  21  23
BRANCH  22  30
ATOM     30  C   UNL     1       0.640 -11.922  -5.666  0.00  0.00    +0.152 C 
BRANCH  30  31
ATOM     31  C   UNL     1       2.083 -12.025  -6.088  0.00  0.00    -0.013 C 
ATOM     32  C   UNL     1       2.436 -12.883  -7.012  0.00  0.00    +0.005 C 
ENDBRANCH  30  31
ENDBRANCH  22  30
ENDBRANCH  17  18
ENDBRANCH   1  17
TORSDOF 8
