REMARK  Name = ZINC09464925
REMARK  9 active torsions:
REMARK  status: ('A' for Active; 'I' for Inactive)
REMARK    1  A    between atoms: C_1  and  C_2
REMARK    2  A    between atoms: C_2  and  C_3
REMARK    3  A    between atoms: C_3  and  C_4
REMARK    4  A    between atoms: C_4  and  N_5
REMARK    5  A    between atoms: C_15  and  C_33
REMARK    6  A    between atoms: C_16  and  C_17
REMARK    7  A    between atoms: N_19  and  N_20
REMARK    8  A    between atoms: C_24  and  C_32
REMARK    9  A    between atoms: N_28  and  C_31
REMARK                            x       y       z     vdW  Elec       q    Type
REMARK                         _______ _______ _______ _____ _____    ______ ____
ROOT
ATOM      1  N   UNL     1       1.454  -2.704  -2.349  0.00  0.00    -0.309 N 
ATOM      2  C   UNL     1       0.822  -2.977  -3.556  0.00  0.00    +0.069 A 
ATOM      3  C   UNL     1      -0.508  -2.953  -3.955  0.00  0.00    +0.028 A 
ATOM      4  C   UNL     1      -0.842  -3.281  -5.253  0.00  0.00    +0.002 A 
ATOM      5  C   UNL     1       0.143  -3.633  -6.160  0.00  0.00    +0.002 A 
ATOM      6  C   UNL     1       1.468  -3.660  -5.774  0.00  0.00    +0.028 A 
ATOM      7  C   UNL     1       1.815  -3.332  -4.471  0.00  0.00    +0.074 A 
ATOM      8  N   UNL     1       3.034  -3.269  -3.802  0.00  0.00    -0.272 N 
ATOM      9  C   UNL     1       2.806  -2.882  -2.521  0.00  0.00    +0.217 A 
ATOM     10  N   UNL     1       3.960  -2.812  -1.879  0.00  0.00    -0.211 NA
ATOM     11  C   UNL     1       4.961  -3.140  -2.703  0.00  0.00    +0.104 A 
ATOM     12  C   UNL     1       4.404  -3.446  -3.943  0.00  0.00    +0.139 A 
ENDROOT
BRANCH  11  13
ATOM     13  C   UNL     1       6.401  -3.180  -2.357  0.00  0.00    +0.003 A 
ATOM     14  C   UNL     1       7.204  -4.222  -2.822  0.00  0.00    +0.010 A 
ATOM     15  C   UNL     1       8.544  -4.254  -2.497  0.00  0.00    +0.001 A 
ATOM     16  C   UNL     1       9.092  -3.257  -1.710  0.00  0.00    +0.000 A 
ATOM     17  C   UNL     1       8.300  -2.221  -1.245  0.00  0.00    +0.001 A 
ATOM     18  C   UNL     1       6.960  -2.175  -1.569  0.00  0.00    +0.010 A 
ENDBRANCH  11  13
BRANCH  12  19
ATOM     19  C   UNL     1       5.095  -3.841  -5.112  0.00  0.00    +0.282 C 
ATOM     20  O   UNL     1       5.646  -3.005  -5.805  0.00  0.00    -0.267 OA
ATOM     21  N   UNL     1       5.144  -5.142  -5.458  0.00  0.00    -0.201 N 
ATOM     22  H   UNL     1       4.644  -5.799  -4.948  0.00  0.00    +0.178 HD
BRANCH  21  23
ATOM     23  N   UNL     1       5.916  -5.547  -6.554  0.00  0.00    -0.174 NA
ATOM     24  C   UNL     1       6.044  -6.823  -6.832  0.00  0.00    +0.153 C 
ATOM     25  C   UNL     1       6.907  -7.439  -7.866  0.00  0.00    +0.029 A 
ATOM     26  C   UNL     1       7.790  -6.916  -8.805  0.00  0.00    +0.015 A 
ATOM     27  C   UNL     1       8.467  -7.767  -9.655  0.00  0.00    -0.050 A 
ATOM     28  C   UNL     1       8.268  -9.135  -9.573  0.00  0.00    +0.005 A 
ATOM     29  C   UNL     1       7.394  -9.663  -8.645  0.00  0.00    +0.024 A 
ATOM     30  C   UNL     1       6.702  -8.822  -7.779  0.00  0.00    +0.046 A 
ATOM     31  N   UNL     1       5.782  -9.088  -6.772  0.00  0.00    -0.269 N 
ATOM     32  C   UNL     1       5.365  -7.957  -6.176  0.00  0.00    +0.271 C 
ATOM     33  O   UNL     1       4.566  -7.882  -5.261  0.00  0.00    -0.268 OA
ATOM     34  C   UNL     1       5.329 -10.431  -6.401  0.00  0.00    +0.138 C 
ATOM     35  C   UNL     1       9.425  -7.206 -10.675  0.00  0.00    +0.044 C 
ENDBRANCH  21  23
ENDBRANCH  12  19
BRANCH   1  36
ATOM     36  C   UNL     1       0.793  -2.292  -1.108  0.00  0.00    +0.125 C 
BRANCH  36  37
ATOM     37  C   UNL     1       0.696  -0.765  -1.064  0.00  0.00    +0.021 C 
BRANCH  37  39
ATOM     38  C   UNL     1      -0.091   1.192   0.275  0.00  0.00    +0.004 C 
ATOM     39  C   UNL     1       0.006  -0.335   0.232  0.00  0.00    -0.002 C 
ENDBRANCH  37  39
ENDBRANCH  36  37
ENDBRANCH   1  36
TORSDOF 6
