REMARK  Name = ZINC66349336
REMARK  9 active torsions:
REMARK  status: ('A' for Active; 'I' for Inactive)
REMARK    1  A    between atoms: C_13  and  C_14
REMARK    2  A    between atoms: C_14  and  O_15
REMARK    3  A    between atoms: O_15  and  C_16
REMARK    4  A    between atoms: C_16  and  C_18
REMARK    5  A    between atoms: C_18  and  C_19
REMARK    6  A    between atoms: C_18  and  C_23
REMARK    7  A    between atoms: C_18  and  N_32
REMARK    8  A    between atoms: C_19  and  C_20
REMARK    9  A    between atoms: C_27  and  N_29
REMARK                            x       y       z     vdW  Elec       q    Type
REMARK                         _______ _______ _______ _____ _____    ______ ____
ROOT
ATOM      1  C   UNL     1       6.636  -1.364   1.948  0.00  0.00    +0.332 C 
ATOM      2  O   UNL     1       6.566  -0.538   2.827  0.00  0.00    -0.248 OA
ENDROOT
BRANCH   1   3
ATOM      3  O   UNL     1       5.816  -1.287   0.888  0.00  0.00    -0.462 OA
BRANCH   3   4
ATOM      4  C   UNL     1       4.885  -0.203   0.866  0.00  0.00    +0.245 C 
BRANCH   4  17
ATOM      5  C   UNL     1       1.049   2.731  -0.678  0.00  0.00    +0.001 A 
ATOM      6  C   UNL     1       2.358   3.180  -0.672  0.00  0.00    +0.000 A 
ATOM      7  C   UNL     1       3.401   2.275  -0.587  0.00  0.00    +0.005 A 
ATOM      8  C   UNL     1       3.138   0.924  -0.508  0.00  0.00    -0.029 A 
ATOM      9  C   UNL     1       1.824   0.463  -0.514  0.00  0.00    -0.014 A 
ATOM     10  C   UNL     1       0.777   1.382  -0.600  0.00  0.00    +0.009 A 
ATOM     11  C   UNL     1       1.820  -1.018  -0.421  0.00  0.00    -0.014 A 
ATOM     12  C   UNL     1       0.767  -1.935  -0.390  0.00  0.00    +0.009 A 
ATOM     13  C   UNL     1       1.032  -3.285  -0.298  0.00  0.00    +0.001 A 
ATOM     14  C   UNL     1       2.338  -3.737  -0.236  0.00  0.00    +0.000 A 
ATOM     15  C   UNL     1       3.386  -2.835  -0.265  0.00  0.00    +0.005 A 
ATOM     16  C   UNL     1       3.131  -1.483  -0.357  0.00  0.00    -0.029 A 
ATOM     17  C   UNL     1       4.042  -0.281  -0.409  0.00  0.00    +0.088 C 
ENDBRANCH   4  17
ENDBRANCH   3   4
ENDBRANCH   1   3
BRANCH   1  18
ATOM     18  C   UNL     1       7.644  -2.480   2.040  0.00  0.00    +0.150 C 
BRANCH  18  19
ATOM     19  C   UNL     1       7.989  -2.727   3.486  0.00  0.00    -0.014 A 
ATOM     20  C   UNL     1       8.762  -1.814   4.179  0.00  0.00    +0.006 A 
ATOM     21  C   UNL     1       9.078  -2.040   5.505  0.00  0.00    +0.003 A 
ATOM     22  C   UNL     1       8.620  -3.180   6.140  0.00  0.00    +0.033 A 
ATOM     23  C   UNL     1       7.846  -4.092   5.448  0.00  0.00    +0.127 A 
ATOM     24  C   UNL     1       7.527  -3.863   4.122  0.00  0.00    +0.038 A 
BRANCH  23  25
ATOM     25  N   UNL     1       7.356  -5.313   6.127  0.00  0.00    +0.056 N 
ATOM     26  O   UNL     1       7.633  -5.511   7.287  0.00  0.00    -0.126 OA
ATOM     27  O   UNL     1       6.679  -6.111   5.522  0.00  0.00    -0.126 OA
ENDBRANCH  23  25
ENDBRANCH  18  19
BRANCH  18  28
ATOM     28  N   UNL     1       7.077  -3.702   1.456  0.00  0.00    -0.312 NA
ATOM     29  H   UNL     1       6.240  -3.982   1.945  0.00  0.00    +0.120 HD
ATOM     30  H   UNL     1       6.898  -3.583   0.471  0.00  0.00    +0.120 HD
ENDBRANCH  18  28
BRANCH  18  31
ATOM     31  C   UNL     1       8.910  -2.088   1.274  0.00  0.00    +0.163 C 
BRANCH  31  32
ATOM     32  C   UNL     1       9.874  -3.246   1.272  0.00  0.00    +0.359 C 
ATOM     33  O   UNL     1       9.563  -4.299   1.802  0.00  0.00    -0.246 OA
ATOM     34  O   UNL     1      10.965  -3.130   0.740  0.00  0.00    -0.246 OA
ENDBRANCH  31  32
ENDBRANCH  18  31
ENDBRANCH   1  18
TORSDOF 9
