REMARK  Name = ZINC09088311
REMARK  6 active torsions:
REMARK  status: ('A' for Active; 'I' for Inactive)
REMARK    1  A    between atoms: C_1  and  C_2
REMARK    2  A    between atoms: C_2  and  C_24
REMARK    3  A    between atoms: N_3  and  N_4
REMARK    4  A    between atoms: C_10  and  C_13
REMARK    5  A    between atoms: N_15  and  C_16
REMARK    6  A    between atoms: C_19  and  C_22
REMARK                            x       y       z     vdW  Elec       q    Type
REMARK                         _______ _______ _______ _____ _____    ______ ____
ROOT
ATOM      1  N   UNL     1      -0.230  -3.198   1.952  0.00  0.00    -0.126 NA
ATOM      2  C   UNL     1       0.358  -2.330   1.154  0.00  0.00    +0.183 C 
ATOM      3  N   UNL     1       1.015  -2.748   0.016  0.00  0.00    -0.264 N 
ATOM      4  C   UNL     1       1.335  -1.950  -0.995  0.00  0.00    +0.220 C 
ATOM      5  O   UNL     1       1.839  -2.481  -1.962  0.00  0.00    -0.275 OA
ATOM      6  C   UNL     1       1.145  -0.472  -1.072  0.00  0.00    +0.120 C 
ATOM      7  C   UNL     1       0.013   0.010  -0.165  0.00  0.00    +0.149 C 
ATOM      8  S   UNL     1       0.325  -0.600   1.517  0.00  0.00    -0.075 S 
ATOM      9  H   UNL     1       1.258  -3.685  -0.050  0.00  0.00    +0.157 HD
ENDROOT
BRANCH   7  10
ATOM     10  C   UNL     1      -0.024   1.516  -0.159  0.00  0.00    +0.231 C 
ATOM     11  O   UNL     1       0.998   2.149  -0.320  0.00  0.00    -0.274 OA
ATOM     12  N   UNL     1      -1.195   2.161   0.019  0.00  0.00    -0.285 N 
ATOM     13  H   UNL     1      -2.022   1.658   0.070  0.00  0.00    +0.155 HD
BRANCH  12  14
ATOM     14  C   UNL     1      -1.215   3.550   0.132  0.00  0.00    +0.033 A 
ATOM     15  C   UNL     1      -0.155   4.213   0.744  0.00  0.00    +0.024 A 
ATOM     16  C   UNL     1      -0.170   5.585   0.852  0.00  0.00    +0.017 A 
ATOM     17  C   UNL     1      -1.256   6.312   0.357  0.00  0.00    +0.063 A 
ATOM     18  C   UNL     1      -2.322   5.642  -0.252  0.00  0.00    +0.017 A 
ATOM     19  C   UNL     1      -2.298   4.271  -0.362  0.00  0.00    +0.024 A 
BRANCH  17  20
ATOM     20  C   UNL     1      -1.279   7.781   0.477  0.00  0.00    +0.387 C 
ATOM     21  O   UNL     1      -2.224   8.412   0.047  0.00  0.00    -0.241 OA
ATOM     22  O   UNL     1      -0.251   8.425   1.064  0.00  0.00    -0.241 OA
ENDBRANCH  17  20
ENDBRANCH  12  14
ENDBRANCH   7  10
BRANCH   1  25
ATOM     23  C   UNL     1      -1.492  -4.840   3.701  0.00  0.00    +0.068 C 
ATOM     24  C   UNL     1      -0.779  -5.317   2.462  0.00  0.00    +0.068 C 
ATOM     25  N   UNL     1      -0.196  -4.457   1.672  0.00  0.00    -0.152 NA
BRANCH  24  26
ATOM     26  C   UNL     1      -0.740  -6.753   2.143  0.00  0.00    -0.002 A 
ATOM     27  C   UNL     1      -1.358  -7.678   2.990  0.00  0.00    +0.011 A 
ATOM     28  C   UNL     1      -1.322  -9.022   2.682  0.00  0.00    +0.020 A 
ATOM     29  C   UNL     1      -0.666  -9.457   1.542  0.00  0.00    +0.041 A 
ATOM     30  C   UNL     1      -0.047  -8.547   0.701  0.00  0.00    +0.020 A 
ATOM     31  C   UNL     1      -0.080  -7.200   0.994  0.00  0.00    +0.011 A 
ATOM     32 CL   UNL     1      -0.621 -11.151   1.166  0.00  0.00    -0.084 Cl
ENDBRANCH  24  26
ENDBRANCH   1  25
TORSDOF 5
