REMARK  Name = ZINC21237547
REMARK  10 active torsions:
REMARK  status: ('A' for Active; 'I' for Inactive)
REMARK    1  A    between atoms: C_1  and  C_2
REMARK    2  A    between atoms: C_2  and  O_3
REMARK    3  A    between atoms: O_3  and  C_4
REMARK    4  A    between atoms: C_6  and  C_11
REMARK    5  A    between atoms: C_9  and  O_10
REMARK    6  A    between atoms: C_16  and  C_21
REMARK    7  A    between atoms: C_24  and  O_27
REMARK    8  A    between atoms: O_27  and  C_28
REMARK    9  A    between atoms: C_28  and  C_29
REMARK   10  A    between atoms: C_28  and  C_30
REMARK                            x       y       z     vdW  Elec       q    Type
REMARK                         _______ _______ _______ _____ _____    ______ ____
ROOT
ATOM      1  C   UNL     1       3.288   3.368  -0.109  0.00  0.00    +0.136 C 
ATOM      2  C   UNL     1       3.618   3.618   1.343  0.00  0.00    +0.036 C 
ATOM      3  C   UNL     1       3.340   4.736   2.033  0.00  0.00    +0.017 C 
ATOM      4  C   UNL     1       3.696   4.837   3.508  0.00  0.00    +0.059 C 
ATOM      5  C   UNL     1       4.974   4.048   3.789  0.00  0.00    +0.032 C 
ATOM      6  C   UNL     1       4.714   2.586   3.406  0.00  0.00    +0.088 C 
ATOM      7  C   UNL     1       4.281   2.538   1.972  0.00  0.00    +0.163 C 
ATOM      8  O   UNL     1       4.507   1.534   1.325  0.00  0.00    -0.292 OA
ATOM      9  N   UNL     1       2.730   5.835   1.521  0.00  0.00    -0.316 N 
ATOM     10  C   UNL     1       1.583   5.811   0.736  0.00  0.00    +0.052 A 
ATOM     11  C   UNL     1       0.406   6.420   1.130  0.00  0.00    +0.025 A 
ATOM     12  C   UNL     1      -0.668   6.454   0.256  0.00  0.00    +0.002 A 
ATOM     13  C   UNL     1      -0.563   5.882  -0.999  0.00  0.00    +0.002 A 
ATOM     14  C   UNL     1       0.608   5.254  -1.387  0.00  0.00    +0.025 A 
ATOM     15  C   UNL     1       1.678   5.204  -0.508  0.00  0.00    +0.049 A 
ATOM     16  N   UNL     1       2.860   4.544  -0.837  0.00  0.00    -0.331 N 
ATOM     17  H   UNL     1       3.143   6.835   1.719  0.00  0.00    +0.152 HD
ATOM     18  H   UNL     1       3.472   4.931  -1.665  0.00  0.00    +0.147 HD
ENDROOT
BRANCH   1  21
ATOM     19  C   UNL     1       1.441   0.144  -0.793  0.00  0.00    +0.162 A 
ATOM     20  C   UNL     1       2.448   1.094  -0.728  0.00  0.00    +0.055 A 
ATOM     21  C   UNL     1       2.192   2.337  -0.180  0.00  0.00    -0.019 A 
ATOM     22  C   UNL     1       0.931   2.636   0.303  0.00  0.00    +0.009 A 
ATOM     23  C   UNL     1      -0.078   1.693   0.240  0.00  0.00    +0.049 A 
ATOM     24  C   UNL     1       0.172   0.445  -0.307  0.00  0.00    +0.158 A 
BRANCH  24  25
ATOM     25  O   UNL     1      -0.820  -0.483  -0.370  0.00  0.00    -0.503 OA
ATOM     26  H   UNL     1      -1.822  -0.244   0.015  0.00  0.00    +0.292 HD
ENDBRANCH  24  25
BRANCH  19  27
ATOM     27  O   UNL     1       1.692  -1.079  -1.331  0.00  0.00    -0.489 OA
BRANCH  27  29
ATOM     28  C   UNL     1       3.107  -2.737  -2.376  0.00  0.00    +0.048 C 
ATOM     29  C   UNL     1       3.017  -1.318  -1.810  0.00  0.00    +0.226 C 
ENDBRANCH  27  29
ENDBRANCH  19  27
ENDBRANCH   1  21
BRANCH   5  30
ATOM     30  C   UNL     1       5.319   4.140   5.253  0.00  0.00    -0.043 A 
ATOM     31  C   UNL     1       4.425   3.679   6.203  0.00  0.00    +0.007 A 
ATOM     32  C   UNL     1       4.741   3.757   7.545  0.00  0.00    +0.046 A 
ATOM     33  C   UNL     1       5.952   4.308   7.941  0.00  0.00    +0.121 A 
ATOM     34  C   UNL     1       6.844   4.774   6.987  0.00  0.00    +0.046 A 
ATOM     35  C   UNL     1       6.525   4.689   5.645  0.00  0.00    +0.007 A 
BRANCH  33  36
ATOM     36  O   UNL     1       6.262   4.390   9.261  0.00  0.00    -0.489 OA
BRANCH  36  37
ATOM     37  C   UNL     1       7.572   4.856   9.592  0.00  0.00    +0.167 C 
ATOM     38  C   UNL     1       7.576   6.386   9.629  0.00  0.00    +0.051 C 
ATOM     39  C   UNL     1       7.976   4.312  10.963  0.00  0.00    +0.051 C 
ENDBRANCH  36  37
ENDBRANCH  33  36
ENDBRANCH   5  30
TORSDOF 7
