REMARK  Name = ZINC09093993
REMARK  12 active torsions:
REMARK  status: ('A' for Active; 'I' for Inactive)
REMARK    1  A    between atoms: C_1  and  C_2
REMARK    2  A    between atoms: C_2  and  N_3
REMARK    3  A    between atoms: C_7  and  C_9
REMARK    4  A    between atoms: C_9  and  C_11
REMARK    5  A    between atoms: C_9  and  O_12
REMARK    6  A    between atoms: O_12  and  C_13
REMARK    7  A    between atoms: C_13  and  C_15
REMARK    8  A    between atoms: C_15  and  C_31
REMARK    9  A    between atoms: C_16  and  C_17
REMARK   10  A    between atoms: C_19  and  C_30
REMARK   11  A    between atoms: N_20  and  C_23
REMARK   12  A    between atoms: C_21  and  C_22
REMARK                            x       y       z     vdW  Elec       q    Type
REMARK                         _______ _______ _______ _____ _____    ______ ____
ROOT
ATOM      1  C   UNL     1       0.982   4.162  -0.090  0.00  0.00    +0.136 C 
ATOM      2  C   UNL     1       1.870   3.107   0.001  0.00  0.00    +0.035 C 
ENDROOT
BRANCH   2   3
ATOM      3  C   UNL     1       1.391   1.773  -0.041  0.00  0.00    -0.003 A 
ATOM      4  C   UNL     1       0.074   1.318  -0.509  0.00  0.00    +0.031 A 
ATOM      5  C   UNL     1       0.061  -0.017  -0.368  0.00  0.00    +0.022 A 
ATOM      6  N   UNL     1       1.260  -0.427   0.149  0.00  0.00    -0.317 N 
ATOM      7  C   UNL     1       2.070   0.630   0.352  0.00  0.00    +0.028 A 
ATOM      8  C   UNL     1       3.469   0.579   0.908  0.00  0.00    +0.064 C 
ATOM      9  C   UNL     1      -1.091  -0.921  -0.722  0.00  0.00    +0.064 C 
BRANCH   6  10
ATOM     10  C   UNL     1       1.597  -1.758   0.428  0.00  0.00    +0.047 A 
ATOM     11  C   UNL     1       1.830  -2.157   1.737  0.00  0.00    +0.027 A 
ATOM     12  C   UNL     1       2.157  -3.471   2.010  0.00  0.00    +0.017 A 
ATOM     13  C   UNL     1       2.263  -4.387   0.978  0.00  0.00    +0.018 A 
ATOM     14  C   UNL     1       2.037  -3.991  -0.328  0.00  0.00    +0.017 A 
ATOM     15  C   UNL     1       1.704  -2.680  -0.606  0.00  0.00    +0.027 A 
ATOM     16 BR   UNL     1       2.719  -6.184   1.354  0.00  0.00    -0.050 Br
ENDBRANCH   6  10
ENDBRANCH   2   3
BRANCH   1  17
ATOM     17  C   UNL     1       1.485   5.537  -0.198  0.00  0.00    +0.350 C 
ATOM     18  O   UNL     1       2.682   5.747  -0.209  0.00  0.00    -0.244 OA
BRANCH  17  19
ATOM     19  O   UNL     1       0.618   6.567  -0.286  0.00  0.00    -0.448 OA
BRANCH  19  20
ATOM     20  C   UNL     1       1.187   7.899  -0.391  0.00  0.00    +0.259 C 
ATOM     21  C   UNL     1       1.378   8.483   1.010  0.00  0.00    +0.062 C 
BRANCH  20  26
ATOM     22  N   UNL     1       0.156  12.089  -2.510  0.00  0.00    -0.299 N 
ATOM     23  C   UNL     1      -0.212  10.830  -2.198  0.00  0.00    +0.306 C 
ATOM     24  O   UNL     1      -1.294  10.407  -2.553  0.00  0.00    -0.252 OA
ATOM     25  N   UNL     1       0.622  10.040  -1.492  0.00  0.00    -0.237 N 
ATOM     26  C   UNL     1       0.255   8.782  -1.180  0.00  0.00    +0.261 C 
ATOM     27  O   UNL     1      -0.826   8.360  -1.534  0.00  0.00    -0.271 OA
ATOM     28  H   UNL     1       1.020  12.426  -2.227  0.00  0.00    +0.150 HD
ATOM     29  H   UNL     1       1.486  10.378  -1.209  0.00  0.00    +0.159 HD
BRANCH  22  31
ATOM     30  C   UNL     1      -0.097  14.313  -3.495  0.00  0.00    +0.024 C 
ATOM     31  C   UNL     1      -0.750  12.947  -3.278  0.00  0.00    +0.102 C 
ENDBRANCH  22  31
ENDBRANCH  20  26
ENDBRANCH  19  20
ENDBRANCH  17  19
ENDBRANCH   1  17
BRANCH   1  32
ATOM     32  C   UNL     1      -0.428   3.915  -0.077  0.00  0.00    +0.106 C 
ATOM     33  N   UNL     1      -1.547   3.718  -0.067  0.00  0.00    -0.191 NA
ENDBRANCH   1  32
TORSDOF 8
