REMARK  Name = ZINC39582390
REMARK  7 active torsions:
REMARK  status: ('A' for Active; 'I' for Inactive)
REMARK    1  A    between atoms: C_1  and  C_2
REMARK    2  A    between atoms: C_2  and  C_3
REMARK    3  A    between atoms: C_10  and  C_15
REMARK    4  A    between atoms: C_15  and  C_17
REMARK    5  A    between atoms: C_15  and  N_29
REMARK    6  A    between atoms: N_22  and  C_23
REMARK    7  A    between atoms: C_34  and  C_36
REMARK                            x       y       z     vdW  Elec       q    Type
REMARK                         _______ _______ _______ _____ _____    ______ ____
ROOT
ATOM      1  C   UNL     1       6.131  -2.066  -3.804  0.00  0.00    -0.009 C 
ENDROOT
BRANCH   1   9
ATOM      2  C   UNL     1       3.799  -6.045  -7.379  0.00  0.00    -0.047 A 
ATOM      3  C   UNL     1       4.777  -6.984  -7.050  0.00  0.00    +0.005 A 
ATOM      4  C   UNL     1       5.625  -6.822  -6.002  0.00  0.00    +0.024 A 
ATOM      5  C   UNL     1       5.548  -5.675  -5.191  0.00  0.00    +0.040 A 
ATOM      6  N   UNL     1       6.386  -5.526  -4.165  0.00  0.00    -0.285 N 
ATOM      7  C   UNL     1       6.367  -4.473  -3.364  0.00  0.00    +0.223 C 
ATOM      8  O   UNL     1       7.158  -4.393  -2.443  0.00  0.00    -0.275 OA
ATOM      9  C   UNL     1       5.359  -3.371  -3.598  0.00  0.00    +0.088 C 
ATOM     10  C   UNL     1       4.404  -3.535  -4.763  0.00  0.00    -0.006 C 
ATOM     11  C   UNL     1       4.524  -4.666  -5.515  0.00  0.00    -0.007 A 
ATOM     12  C   UNL     1       3.646  -4.902  -6.662  0.00  0.00    +0.013 A 
ATOM     13  H   UNL     1       7.041  -6.222  -3.998  0.00  0.00    +0.155 HD
BRANCH   2  15
ATOM     14  C   UNL     1       3.585  -5.824  -9.840  0.00  0.00    +0.009 C 
ATOM     15  C   UNL     1       2.897  -6.301  -8.559  0.00  0.00    +0.032 C 
ENDBRANCH   2  15
ENDBRANCH   1   9
BRANCH   1  16
ATOM     16  N   UNL     1       7.064  -2.221  -4.928  0.00  0.00    +0.386 N 
ATOM     17  C   UNL     1       6.319  -2.171  -6.192  0.00  0.00    -0.078 C 
ATOM     18  C   UNL     1       7.274  -2.413  -7.362  0.00  0.00    -0.019 C 
ATOM     19  C   UNL     1       8.357  -1.330  -7.362  0.00  0.00    -0.003 C 
ATOM     20  C   UNL     1       9.079  -1.343  -6.012  0.00  0.00    -0.016 C 
ATOM     21  C   UNL     1       8.056  -1.140  -4.891  0.00  0.00    -0.071 C 
ATOM     22  C   UNL     1       8.773  -1.152  -3.540  0.00  0.00    -0.013 C 
ATOM     23  H   UNL     1       7.534  -3.111  -4.853  0.00  0.00    -0.081 HD
ENDBRANCH   1  16
BRANCH   1  24
ATOM     24  C   UNL     1       5.147  -0.935  -4.111  0.00  0.00    +0.205 C 
ATOM     25  N   UNL     1       5.860   0.343  -4.243  0.00  0.00    -0.152 NA
ATOM     26  N   UNL     1       5.449   1.120  -3.379  0.00  0.00    -0.070 NA
ATOM     27  N   UNL     1       4.463   0.558  -2.568  0.00  0.00    -0.179 N 
ATOM     28  N   UNL     1       4.224  -0.732  -2.975  0.00  0.00    -0.185 NA
ATOM     29  H   UNL     1       4.016   1.007  -1.834  0.00  0.00    +0.191 HD
BRANCH  28  30
ATOM     30  C   UNL     1       2.827  -0.903  -3.394  0.00  0.00    +0.080 C 
ATOM     31  C   UNL     1       2.449   0.207  -4.376  0.00  0.00    +0.021 C 
ATOM     32  C   UNL     1       0.993   0.029  -4.813  0.00  0.00    +0.002 C 
ATOM     33  C   UNL     1       0.081   0.099  -3.587  0.00  0.00    +0.000 C 
ATOM     34  C   UNL     1       0.459  -1.011  -2.605  0.00  0.00    +0.002 C 
ATOM     35  C   UNL     1       1.914  -0.833  -2.168  0.00  0.00    +0.021 C 
ENDBRANCH  28  30
ENDBRANCH   1  24
TORSDOF 5
