REMARK  Name = ZINC06591013
REMARK  11 active torsions:
REMARK  status: ('A' for Active; 'I' for Inactive)
REMARK    1  A    between atoms: C_1  and  C_2
REMARK    2  A    between atoms: C_2  and  C_3
REMARK    3  A    between atoms: C_3  and  C_20
REMARK    4  A    between atoms: N_4  and  N_5
REMARK    5  A    between atoms: C_6  and  C_8
REMARK    6  A    between atoms: C_8  and  O_9
REMARK    7  A    between atoms: O_9  and  C_10
REMARK    8  A    between atoms: C_13  and  C_17
REMARK    9  A    between atoms: C_17  and  C_18
REMARK   10  A    between atoms: C_17  and  C_19
REMARK   11  A    between atoms: C_23  and  O_26
REMARK                            x       y       z     vdW  Elec       q    Type
REMARK                         _______ _______ _______ _____ _____    ______ ____
ROOT
ATOM      1  N   UNL     1       0.810  -0.611   3.495  0.00  0.00    -0.204 N 
ATOM      2  C   UNL     1       0.147  -0.614   4.668  0.00  0.00    +0.270 C 
ATOM      3  O   UNL     1      -1.053  -0.438   4.688  0.00  0.00    -0.270 OA
ATOM      4  H   UNL     1       1.770  -0.752   3.479  0.00  0.00    +0.177 HD
ENDROOT
BRANCH   1   6
ATOM      5  C   UNL     1       0.763  -0.286   1.180  0.00  0.00    +0.066 C 
ATOM      6  N   UNL     1       0.113  -0.405   2.297  0.00  0.00    -0.184 NA
BRANCH   5   7
ATOM      7  C   UNL     1       2.234  -0.189   1.190  0.00  0.00    -0.002 A 
ATOM      8  C   UNL     1       2.985  -0.817   0.193  0.00  0.00    +0.013 A 
ATOM      9  C   UNL     1       4.360  -0.723   0.206  0.00  0.00    +0.046 A 
ATOM     10  C   UNL     1       4.999  -0.006   1.209  0.00  0.00    +0.117 A 
ATOM     11  C   UNL     1       4.257   0.620   2.202  0.00  0.00    +0.046 A 
ATOM     12  C   UNL     1       2.882   0.537   2.193  0.00  0.00    +0.013 A 
BRANCH  10  13
ATOM     13  O   UNL     1       6.355   0.084   1.218  0.00  0.00    -0.507 OA
ATOM     14  H   UNL     1       6.702   0.841   0.726  0.00  0.00    +0.292 HD
ENDBRANCH  10  13
ENDBRANCH   5   7
BRANCH   5  16
ATOM     15  C   UNL     1      -0.335   1.201  -0.473  0.00  0.00    +0.010 C 
ATOM     16  C   UNL     1       0.014  -0.248  -0.127  0.00  0.00    +0.054 C 
ENDBRANCH   5  16
ENDBRANCH   1   6
BRANCH   2  17
ATOM     17  C   UNL     1       0.897  -0.837   5.957  0.00  0.00    +0.326 C 
BRANCH  17  18
ATOM     18  O   UNL     1      -0.018  -0.796   7.053  0.00  0.00    -0.482 OA
BRANCH  18  19
ATOM     19  C   UNL     1       0.500  -0.980   8.296  0.00  0.00    +0.135 A 
ATOM     20  C   UNL     1       1.862  -1.190   8.457  0.00  0.00    +0.047 A 
ATOM     21  C   UNL     1       2.386  -1.376   9.722  0.00  0.00    +0.007 A 
ATOM     22  C   UNL     1       1.555  -1.355  10.827  0.00  0.00    -0.044 A 
ATOM     23  C   UNL     1       0.198  -1.146  10.670  0.00  0.00    +0.022 A 
ATOM     24  C   UNL     1      -0.331  -0.953   9.407  0.00  0.00    +0.060 A 
ATOM     25 BR   UNL     1      -2.187  -0.659   9.193  0.00  0.00    -0.047 Br
BRANCH  22  26
ATOM     26  C   UNL     1       2.130  -1.559  12.205  0.00  0.00    +0.013 C 
ATOM     27  C   UNL     1       1.843  -0.327  13.065  0.00  0.00    +0.012 C 
ATOM     28  C   UNL     1       1.489  -2.791  12.847  0.00  0.00    +0.012 C 
ENDBRANCH  22  26
ENDBRANCH  18  19
ENDBRANCH  17  18
ENDBRANCH   2  17
TORSDOF 8
