REMARK  Name = ZINC22565681
REMARK  4 active torsions:
REMARK  status: ('A' for Active; 'I' for Inactive)
REMARK    1  A    between atoms: C_1  and  C_2
REMARK    2  A    between atoms: N_5  and  C_11
REMARK    3  A    between atoms: C_7  and  C_10
REMARK    4  A    between atoms: C_16  and  N_18
REMARK                            x       y       z     vdW  Elec       q    Type
REMARK                         _______ _______ _______ _____ _____    ______ ____
ROOT
ATOM      1  C   UNL     1      -0.014   1.521  -0.076  0.00  0.00    +0.039 C 
ATOM      2  C   UNL     1       0.005  -0.008  -0.040  0.00  0.00    +0.130 C 
ATOM      3  C   UNL     1      -1.431  -0.537  -0.028  0.00  0.00    +0.116 C 
ATOM      4  N   UNL     1      -1.407  -2.003   0.085  0.00  0.00    -0.293 NA
ATOM      5  C   UNL     1      -0.707  -2.420   1.308  0.00  0.00    +0.116 C 
ATOM      6  C   UNL     1       0.722  -1.872   1.284  0.00  0.00    +0.130 C 
ATOM      7  O   UNL     1       0.680  -0.449   1.141  0.00  0.00    -0.371 OA
ATOM      8  C   UNL     1       1.431  -2.235   2.590  0.00  0.00    +0.039 C 
ENDROOT
BRANCH   4   9
ATOM      9  C   UNL     1      -2.768  -2.557   0.042  0.00  0.00    +0.074 C 
ATOM     10  C   UNL     1      -3.487  -2.295   1.381  0.00  0.00    +0.020 C 
ATOM     11  C   UNL     1      -4.330  -3.573   1.616  0.00  0.00    +0.003 C 
ATOM     12  C   UNL     1      -3.396  -4.697   1.104  0.00  0.00    +0.020 C 
ATOM     13  C   UNL     1      -2.709  -4.084  -0.135  0.00  0.00    +0.068 C 
BRANCH  13  14
ATOM     14  N   UNL     1      -1.312  -4.529  -0.209  0.00  0.00    -0.326 NA
ATOM     15  H   UNL     1      -1.257  -5.530  -0.326  0.00  0.00    +0.119 HD
ATOM     16  H   UNL     1      -0.818  -4.052  -0.948  0.00  0.00    +0.119 HD
ENDBRANCH  13  14
ENDBRANCH   4   9
TORSDOF 2
