REMARK  Name = ZINC14257444
REMARK  6 active torsions:
REMARK  status: ('A' for Active; 'I' for Inactive)
REMARK    1  A    between atoms: C_3  and  N_24
REMARK    2  A    between atoms: C_6  and  N_7
REMARK    3  A    between atoms: C_11  and  N_15
REMARK    4  A    between atoms: N_15  and  C_16
REMARK    5  A    between atoms: C_28  and  N_32
REMARK    6  A    between atoms: N_32  and  C_33
REMARK                            x       y       z     vdW  Elec       q    Type
REMARK                         _______ _______ _______ _____ _____    ______ ____
ROOT
ATOM      1  C   UNL     1       0.631  -1.294   0.059  0.00  0.00    +0.026 A 
ATOM      2  C   UNL     1       1.599  -0.350   0.336  0.00  0.00    +0.026 A 
ATOM      3  C   UNL     1       2.925  -0.738   0.481  0.00  0.00    +0.044 A 
ATOM      4  C   UNL     1       3.276  -2.074   0.348  0.00  0.00    +0.026 A 
ATOM      5  C   UNL     1       2.307  -3.018   0.072  0.00  0.00    +0.026 A 
ATOM      6  C   UNL     1       0.982  -2.631  -0.075  0.00  0.00    +0.044 A 
ENDROOT
BRANCH   6   7
ATOM      7  N   UNL     1      -0.002  -3.590  -0.356  0.00  0.00    -0.212 N 
ATOM      8  C   UNL     1      -0.341  -4.554   0.508  0.00  0.00    +0.225 C 
ATOM      9  O   UNL     1       0.144  -4.715   1.607  0.00  0.00    -0.275 OA
ATOM     10  C   UNL     1      -1.427  -5.412  -0.104  0.00  0.00    +0.090 C 
ATOM     11  C   UNL     1      -1.659  -4.769  -1.487  0.00  0.00    +0.026 C 
ATOM     12  C   UNL     1      -0.684  -3.612  -1.508  0.00  0.00    +0.213 C 
ATOM     13  O   UNL     1      -0.541  -2.831  -2.424  0.00  0.00    -0.277 OA
BRANCH  11  14
ATOM     14  N   UNL     1      -1.360  -5.727  -2.560  0.00  0.00    +0.389 N 
ATOM     15  H   UNL     1      -1.445  -5.268  -3.454  0.00  0.00    -0.084 HD
ATOM     16  H   UNL     1      -0.419  -6.074  -2.448  0.00  0.00    -0.084 HD
BRANCH  14  17
ATOM     17  C   UNL     1      -2.306  -6.848  -2.493  0.00  0.00    -0.071 C 
ATOM     18  C   UNL     1      -3.720  -6.340  -2.778  0.00  0.00    -0.016 C 
ATOM     19  C   UNL     1      -4.633  -7.525  -3.103  0.00  0.00    -0.002 C 
ATOM     20  C   UNL     1      -4.986  -8.264  -1.811  0.00  0.00    -0.000 C 
ATOM     21  C   UNL     1      -3.788  -9.103  -1.359  0.00  0.00    -0.000 C 
ATOM     22  C   UNL     1      -3.187  -9.826  -2.566  0.00  0.00    -0.000 C 
ATOM     23  C   UNL     1      -1.793  -9.267  -2.854  0.00  0.00    -0.002 C 
ATOM     24  C   UNL     1      -1.922  -7.902  -3.533  0.00  0.00    -0.016 C 
ENDBRANCH  14  17
ENDBRANCH  11  14
ENDBRANCH   6   7
BRANCH   3  25
ATOM     25  N   UNL     1       3.909   0.222   0.761  0.00  0.00    -0.212 N 
ATOM     26  C   UNL     1       4.986   0.403  -0.014  0.00  0.00    +0.225 C 
ATOM     27  O   UNL     1       5.237  -0.218  -1.024  0.00  0.00    -0.275 OA
ATOM     28  C   UNL     1       5.839   1.508   0.570  0.00  0.00    +0.090 C 
ATOM     29  C   UNL     1       5.061   1.938   1.830  0.00  0.00    +0.026 C 
ATOM     30  C   UNL     1       3.847   1.035   1.823  0.00  0.00    +0.213 C 
ATOM     31  O   UNL     1       2.960   1.044   2.649  0.00  0.00    -0.277 OA
BRANCH  29  32
ATOM     32  N   UNL     1       5.870   1.719   3.037  0.00  0.00    +0.389 N 
ATOM     33  H   UNL     1       6.013   0.730   3.171  0.00  0.00    -0.084 HD
ATOM     34  H   UNL     1       6.763   2.177   2.930  0.00  0.00    -0.084 HD
BRANCH  32  35
ATOM     35  C   UNL     1       5.171   2.276   4.203  0.00  0.00    -0.071 C 
ATOM     36  C   UNL     1       5.112   3.800   4.083  0.00  0.00    -0.016 C 
ATOM     37  C   UNL     1       4.066   4.348   5.055  0.00  0.00    -0.002 C 
ATOM     38  C   UNL     1       2.806   3.484   4.990  0.00  0.00    -0.000 C 
ATOM     39  C   UNL     1       2.627   2.743   6.317  0.00  0.00    -0.000 C 
ATOM     40  C   UNL     1       3.617   1.578   6.387  0.00  0.00    -0.000 C 
ATOM     41  C   UNL     1       5.016   2.115   6.691  0.00  0.00    -0.002 C 
ATOM     42  C   UNL     1       5.923   1.894   5.479  0.00  0.00    -0.016 C 
ENDBRANCH  32  35
ENDBRANCH  29  32
ENDBRANCH   3  25
TORSDOF 6
