REMARK  Name = ZINC39446353
REMARK  7 active torsions:
REMARK  status: ('A' for Active; 'I' for Inactive)
REMARK    1  A    between atoms: C_1  and  C_2
REMARK    2  A    between atoms: C_4  and  C_30
REMARK    3  A    between atoms: C_8  and  C_12
REMARK    4  A    between atoms: C_12  and  N_13
REMARK    5  A    between atoms: N_16  and  C_19
REMARK    6  A    between atoms: C_19  and  C_20
REMARK    7  A    between atoms: C_23  and  N_26
REMARK                            x       y       z     vdW  Elec       q    Type
REMARK                         _______ _______ _______ _____ _____    ______ ____
ROOT
ATOM      1  N   UNL     1      -3.636  -4.171   4.713  0.00  0.00    -0.293 NA
ATOM      2  C   UNL     1      -3.865  -5.130   3.623  0.00  0.00    +0.100 C 
ATOM      3  C   UNL     1      -5.326  -5.585   3.645  0.00  0.00    +0.100 C 
ATOM      4  N   UNL     1      -5.628  -6.191   4.949  0.00  0.00    -0.296 NA
ATOM      5  C   UNL     1      -5.399  -5.232   6.038  0.00  0.00    +0.100 C 
ATOM      6  C   UNL     1      -3.938  -4.778   6.016  0.00  0.00    +0.100 C 
ENDROOT
BRANCH   1   7
ATOM      7  C   UNL     1      -2.262  -3.654   4.678  0.00  0.00    +0.158 C 
BRANCH   7  14
ATOM      8  C   UNL     1      -0.019   1.526   0.010  0.00  0.00    +0.024 C 
ATOM      9  C   UNL     1       0.002  -0.004   0.002  0.00  0.00    +0.076 C 
ATOM     10  C   UNL     1      -1.399  -0.565   0.089  0.00  0.00    -0.045 C 
ATOM     11  C   UNL     1      -1.704  -1.321   1.155  0.00  0.00    +0.071 C 
ATOM     12  C   UNL     1      -0.645  -1.546   2.162  0.00  0.00    +0.111 C 
ATOM     13  N   UNL     1      -0.881  -2.276   3.226  0.00  0.00    -0.226 NA
ATOM     14  C   UNL     1      -2.066  -2.829   3.432  0.00  0.00    +0.138 C 
ATOM     15  N   UNL     1      -3.079  -2.698   2.609  0.00  0.00    -0.160 NA
ATOM     16  C   UNL     1      -3.005  -1.988   1.478  0.00  0.00    +0.271 C 
ATOM     17  O   UNL     1      -3.966  -1.886   0.735  0.00  0.00    -0.268 OA
ATOM     18  S   UNL     1       0.764  -0.661   1.541  0.00  0.00    -0.098 S 
ATOM     19  C   UNL     1      -2.419  -0.284  -0.984  0.00  0.00    +0.041 C 
ENDBRANCH   7  14
ENDBRANCH   1   7
BRANCH   4  20
ATOM     20  C   UNL     1      -7.003  -6.709   4.983  0.00  0.00    +0.119 C 
BRANCH  20  21
ATOM     21  C   UNL     1      -7.198  -7.534   6.229  0.00  0.00    -0.033 A 
ATOM     22  C   UNL     1      -6.929  -8.889   6.210  0.00  0.00    +0.007 A 
ATOM     23  C   UNL     1      -7.108  -9.646   7.353  0.00  0.00    +0.033 A 
ATOM     24  C   UNL     1      -7.556  -9.047   8.515  0.00  0.00    +0.126 A 
ATOM     25  C   UNL     1      -7.825  -7.691   8.534  0.00  0.00    +0.033 A 
ATOM     26  C   UNL     1      -7.641  -6.934   7.393  0.00  0.00    +0.007 A 
BRANCH  24  27
ATOM     27  N   UNL     1      -7.749  -9.857   9.739  0.00  0.00    +0.056 N 
ATOM     28  O   UNL     1      -7.514 -11.043   9.721  0.00  0.00    -0.126 OA
ATOM     29  O   UNL     1      -8.141  -9.333  10.755  0.00  0.00    -0.126 OA
ENDBRANCH  24  27
ENDBRANCH  20  21
ENDBRANCH   4  20
TORSDOF 5
