REMARK  Name = ZINC05077110
REMARK  8 active torsions:
REMARK  status: ('A' for Active; 'I' for Inactive)
REMARK    1  A    between atoms: C_1  and  C_2
REMARK    2  A    between atoms: C_5  and  N_9
REMARK    3  A    between atoms: C_7  and  C_8
REMARK    4  A    between atoms: C_11  and  C_16
REMARK    5  A    between atoms: C_22  and  S_24
REMARK    6  A    between atoms: S_24  and  C_25
REMARK    7  A    between atoms: C_25  and  C_26
REMARK    8  A    between atoms: N_28  and  C_29
REMARK                            x       y       z     vdW  Elec       q    Type
REMARK                         _______ _______ _______ _____ _____    ______ ____
ROOT
ATOM      1  C   UNL     1      -5.042   0.720  -1.813  0.00  0.00    +0.224 C 
ATOM      2  O   UNL     1      -4.600   1.667  -2.429  0.00  0.00    -0.275 OA
ATOM      3  N   UNL     1      -5.793  -0.203  -2.446  0.00  0.00    -0.263 N 
ATOM      4  C   UNL     1      -6.061  -0.070  -3.806  0.00  0.00    +0.189 A 
ATOM      5  N   UNL     1      -5.685   0.869  -4.659  0.00  0.00    -0.125 NA
ATOM      6  N   UNL     1      -6.018   0.840  -5.875  0.00  0.00    -0.133 NA
ATOM      7  C   UNL     1      -6.766  -0.134  -6.373  0.00  0.00    +0.160 A 
ATOM      8  S   UNL     1      -7.006  -1.125  -4.901  0.00  0.00    -0.024 S 
ATOM      9  H   UNL     1      -6.146  -0.961  -1.954  0.00  0.00    +0.157 HD
ENDROOT
BRANCH   1  12
ATOM     10  N   UNL     1      -2.427   1.041   0.019  0.00  0.00    -0.271 N 
ATOM     11  C   UNL     1      -3.755   1.655   0.140  0.00  0.00    +0.127 C 
ATOM     12  C   UNL     1      -4.752   0.576  -0.342  0.00  0.00    +0.102 C 
ATOM     13  C   UNL     1      -3.967  -0.725  -0.057  0.00  0.00    +0.110 C 
ATOM     14  C   UNL     1      -2.516  -0.297  -0.084  0.00  0.00    +0.221 C 
ATOM     15  O   UNL     1      -1.571  -1.050  -0.184  0.00  0.00    -0.275 OA
BRANCH  10  20
ATOM     16  C   UNL     1       2.452   3.934  -0.002  0.00  0.00    +0.044 C 
ATOM     17  C   UNL     1       1.156   3.166   0.007  0.00  0.00    -0.047 A 
ATOM     18  C   UNL     1      -0.049   3.845   0.007  0.00  0.00    +0.005 A 
ATOM     19  C   UNL     1      -1.238   3.143   0.014  0.00  0.00    +0.024 A 
ATOM     20  C   UNL     1      -1.224   1.754   0.017  0.00  0.00    +0.037 A 
ATOM     21  C   UNL     1      -0.013   1.076   0.023  0.00  0.00    +0.027 A 
ATOM     22  C   UNL     1       1.174   1.783   0.016  0.00  0.00    -0.046 A 
ATOM     23  C   UNL     1       2.489   1.048   0.017  0.00  0.00    +0.044 C 
ENDBRANCH  10  20
ENDBRANCH   1  12
BRANCH   7  24
ATOM     24  S   UNL     1      -7.352  -0.384  -8.016  0.00  0.00    -0.088 S 
BRANCH  24  25
ATOM     25  C   UNL     1      -6.692   1.031  -8.938  0.00  0.00    +0.172 C 
BRANCH  25  26
ATOM     26  C   UNL     1      -7.125   0.938 -10.379  0.00  0.00    +0.223 C 
ATOM     27  O   UNL     1      -7.811   0.009 -10.747  0.00  0.00    -0.275 OA
ATOM     28  N   UNL     1      -6.749   1.888 -11.258  0.00  0.00    -0.318 N 
ATOM     29  C   UNL     1      -7.170   1.798 -12.658  0.00  0.00    +0.128 C 
ATOM     30  H   UNL     1      -6.200   2.632 -10.963  0.00  0.00    +0.148 HD
ENDBRANCH  25  26
ENDBRANCH  24  25
ENDBRANCH   7  24
TORSDOF 5
