REMARK  Name = ZINC59487381
REMARK  3 active torsions:
REMARK  status: ('A' for Active; 'I' for Inactive)
REMARK    1  A    between atoms: C_1  and  C_2
REMARK    2  A    between atoms: C_5  and  C_8
REMARK    3  A    between atoms: C_8  and  C_10
REMARK                            x       y       z     vdW  Elec       q    Type
REMARK                         _______ _______ _______ _____ _____    ______ ____
ROOT
ATOM      1  C   UNL     1       0.120  -4.913   1.328  0.00  0.00    +0.099 C 
ATOM      2  C   UNL     1       1.577  -5.026   1.811  0.00  0.00    +0.070 C 
ATOM      3  C   UNL     1       1.919  -3.862   2.750  0.00  0.00    +0.021 C 
ATOM      4  C   UNL     1       2.308  -4.530   4.089  0.00  0.00    +0.017 C 
ATOM      5  C   UNL     1       1.579  -5.893   4.019  0.00  0.00    +0.086 C 
ATOM      6  N   UNL     1       1.680  -6.291   2.574  0.00  0.00    -0.281 NA
ATOM      7  C   UNL     1       0.529  -7.139   2.221  0.00  0.00    +0.145 C 
ATOM      8  C   UNL     1      -0.342  -6.375   1.230  0.00  0.00    +0.116 C 
ATOM      9  C   UNL     1      -0.197  -6.899  -0.171  0.00  0.00    -0.008 A 
ATOM     10  C   UNL     1       0.876  -7.045  -1.022  0.00  0.00    +0.006 A 
ATOM     11  C   UNL     1       0.689  -7.573  -2.287  0.00  0.00    +0.000 A 
ATOM     12  C   UNL     1      -0.576  -7.954  -2.694  0.00  0.00    +0.002 A 
ATOM     13  C   UNL     1      -1.654  -7.810  -1.845  0.00  0.00    +0.023 A 
ATOM     14  C   UNL     1      -1.475  -7.279  -0.570  0.00  0.00    +0.038 A 
ATOM     15  N   UNL     1      -2.393  -7.037   0.455  0.00  0.00    -0.284 N 
ATOM     16  C   UNL     1      -1.808  -6.506   1.546  0.00  0.00    +0.231 C 
ATOM     17  O   UNL     1      -2.356  -6.193   2.582  0.00  0.00    -0.274 OA
ATOM     18  C   UNL     1      -0.252  -7.517   3.453  0.00  0.00    +0.006 A 
ATOM     19  C   UNL     1      -0.923  -6.782   4.405  0.00  0.00    +0.027 A 
ATOM     20  C   UNL     1      -1.564  -7.426   5.450  0.00  0.00    +0.041 A 
ATOM     21  C   UNL     1      -1.527  -8.807   5.534  0.00  0.00    +0.022 A 
ATOM     22  C   UNL     1      -0.855  -9.545   4.582  0.00  0.00    +0.025 A 
ATOM     23  C   UNL     1      -0.208  -8.904   3.527  0.00  0.00    +0.039 A 
ATOM     24  N   UNL     1       0.525  -9.422   2.457  0.00  0.00    -0.283 N 
ATOM     25  C   UNL     1       0.992  -8.454   1.646  0.00  0.00    +0.244 C 
ATOM     26  O   UNL     1       1.657  -8.611   0.644  0.00  0.00    -0.273 OA
ATOM     27 CL   UNL     1      -2.411  -6.503   6.652  0.00  0.00    -0.084 Cl
ATOM     28  H   UNL     1      -3.341  -7.229   0.389  0.00  0.00    +0.155 HD
ATOM     29  H   UNL     1       0.681 -10.369   2.315  0.00  0.00    +0.155 HD
ENDROOT
BRANCH   1  30
ATOM     30  C   UNL     1       0.058  -4.245  -0.021  0.00  0.00    +0.169 C 
ATOM     31  O   UNL     1       1.041  -4.221  -0.732  0.00  0.00    -0.292 OA
BRANCH  30  36
ATOM     32  C   UNL     1      -4.837  -1.814  -1.803  0.00  0.00    +0.044 C 
ATOM     33  C   UNL     1      -3.554  -2.451  -1.336  0.00  0.00    -0.050 A 
ATOM     34  C   UNL     1      -2.472  -2.530  -2.195  0.00  0.00    +0.004 A 
ATOM     35  C   UNL     1      -1.294  -3.112  -1.775  0.00  0.00    +0.011 A 
ATOM     36  C   UNL     1      -1.195  -3.622  -0.477  0.00  0.00    +0.018 A 
ATOM     37  C   UNL     1      -2.292  -3.538   0.386  0.00  0.00    +0.011 A 
ATOM     38  C   UNL     1      -3.461  -2.949  -0.047  0.00  0.00    +0.004 A 
ENDBRANCH  30  36
ENDBRANCH   1  30
TORSDOF 2
