REMARK  Name = ZINC33291798
REMARK  8 active torsions:
REMARK  status: ('A' for Active; 'I' for Inactive)
REMARK    1  A    between atoms: C_1  and  C_2
REMARK    2  A    between atoms: C_5  and  C_8
REMARK    3  A    between atoms: C_10  and  C_14
REMARK    4  A    between atoms: C_11  and  C_13
REMARK    5  A    between atoms: C_14  and  N_15
REMARK    6  A    between atoms: C_16  and  N_30
REMARK    7  A    between atoms: C_17  and  C_20
REMARK    8  A    between atoms: N_22  and  C_23
REMARK                            x       y       z     vdW  Elec       q    Type
REMARK                         _______ _______ _______ _____ _____    ______ ____
ROOT
ATOM      1  N   UNL     1      -0.009  -0.008   0.032  0.00  0.00    -0.225 N 
ATOM      2  C   UNL     1       0.124  -0.819   1.108  0.00  0.00    +0.148 A 
ATOM      3  C   UNL     1       0.093  -2.121   0.625  0.00  0.00    +0.188 A 
ATOM      4  N   UNL     1      -0.046  -2.066  -0.713  0.00  0.00    -0.123 NA
ATOM      5  N   UNL     1      -0.110  -0.838  -1.093  0.00  0.00    -0.063 NA
ENDROOT
BRANCH   3   6
ATOM      6  C   UNL     1       0.201  -3.343   1.431  0.00  0.00    +0.272 C 
ATOM      7  O   UNL     1       0.324  -3.266   2.639  0.00  0.00    -0.268 OA
ATOM      8  N   UNL     1       0.163  -4.550   0.833  0.00  0.00    -0.280 N 
ATOM      9  H   UNL     1      -0.024  -4.623  -0.248  0.00  0.00    +0.155 HD
BRANCH   8  10
ATOM     10  C   UNL     1       0.362  -5.711   1.588  0.00  0.00    +0.034 A 
ATOM     11  C   UNL     1       1.023  -6.798   1.031  0.00  0.00    +0.025 A 
ATOM     12  C   UNL     1       1.223  -7.941   1.781  0.00  0.00    +0.022 A 
ATOM     13  C   UNL     1       0.755  -8.008   3.081  0.00  0.00    +0.041 A 
ATOM     14  C   UNL     1       0.091  -6.928   3.637  0.00  0.00    +0.022 A 
ATOM     15  C   UNL     1      -0.106  -5.781   2.894  0.00  0.00    +0.025 A 
ATOM     16 CL   UNL     1       1.001  -9.448   4.018  0.00  0.00    -0.084 Cl
ENDBRANCH   8  10
ENDBRANCH   3   6
BRANCH   2  17
ATOM     17  N   UNL     1       0.260  -0.429   2.425  0.00  0.00    -0.341 N 
ATOM     18  H   UNL     1       0.360  -1.187   3.215  0.00  0.00    +0.144 HD
ATOM     19  H   UNL     1       0.267   0.640   2.683  0.00  0.00    +0.144 HD
ENDBRANCH   2  17
BRANCH   1  20
ATOM     20  C   UNL     1      -0.037   1.456   0.041  0.00  0.00    +0.206 C 
BRANCH  20  23
ATOM     21  C   UNL     1       3.318   2.643   0.681  0.00  0.00    +0.228 A 
ATOM     22  N   UNL     1       2.162   2.174   1.089  0.00  0.00    -0.212 NA
ATOM     23  C   UNL     1       1.374   1.986   0.020  0.00  0.00    +0.104 A 
ATOM     24  C   UNL     1       2.064   2.359  -1.072  0.00  0.00    +0.128 A 
ATOM     25  O   UNL     1       3.279   2.769  -0.657  0.00  0.00    -0.440 OA
ATOM     26  C   UNL     1       1.571   2.325  -2.496  0.00  0.00    +0.088 C 
BRANCH  21  31
ATOM     27  C   UNL     1       7.790   3.962   4.053  0.00  0.00    +0.044 C 
ATOM     28  C   UNL     1       6.619   3.617   3.170  0.00  0.00    -0.050 A 
ATOM     29  C   UNL     1       6.712   3.795   1.801  0.00  0.00    +0.004 A 
ATOM     30  C   UNL     1       5.644   3.480   0.987  0.00  0.00    +0.013 A 
ATOM     31  C   UNL     1       4.467   2.981   1.547  0.00  0.00    +0.037 A 
ATOM     32  C   UNL     1       4.377   2.809   2.929  0.00  0.00    +0.013 A 
ATOM     33  C   UNL     1       5.455   3.123   3.732  0.00  0.00    +0.004 A 
ENDBRANCH  21  31
ENDBRANCH  20  23
ENDBRANCH   1  20
TORSDOF 6
