REMARK  Name = ZINC13622495
REMARK  10 active torsions:
REMARK  status: ('A' for Active; 'I' for Inactive)
REMARK    1  A    between atoms: C_1  and  N_2
REMARK    2  A    between atoms: N_2  and  C_3
REMARK    3  A    between atoms: C_9  and  C_11
REMARK    4  A    between atoms: C_14  and  N_17
REMARK    5  A    between atoms: N_17  and  C_18
REMARK    6  A    between atoms: C_18  and  N_20
REMARK    7  A    between atoms: C_21  and  C_23
REMARK    8  A    between atoms: C_26  and  C_29
REMARK    9  A    between atoms: C_29  and  O_31
REMARK   10  A    between atoms: O_31  and  C_32
REMARK                            x       y       z     vdW  Elec       q    Type
REMARK                         _______ _______ _______ _____ _____    ______ ____
ROOT
ATOM      1  N   UNL     1       9.720  -2.665   0.569  0.00  0.00    -0.297 N 
ATOM      2  H   UNL     1      10.019  -3.258  -0.138  0.00  0.00    +0.154 HD
ENDROOT
BRANCH   1   6
ATOM      3  C   UNL     1       6.102  -0.637   0.195  0.00  0.00    +0.037 A 
ATOM      4  C   UNL     1       6.196  -1.978  -0.189  0.00  0.00    +0.015 A 
ATOM      5  C   UNL     1       7.395  -2.644  -0.069  0.00  0.00    +0.024 A 
ATOM      6  C   UNL     1       8.509  -1.987   0.444  0.00  0.00    +0.033 A 
ATOM      7  C   UNL     1       8.417  -0.654   0.832  0.00  0.00    +0.024 A 
ATOM      8  C   UNL     1       7.223   0.020   0.710  0.00  0.00    +0.015 A 
BRANCH   3  11
ATOM      9  C   UNL     1       3.666  -2.056   0.260  0.00  0.00    +0.138 C 
ATOM     10  N   UNL     1       3.660  -0.606   0.056  0.00  0.00    -0.271 N 
ATOM     11  C   UNL     1       4.820   0.081   0.063  0.00  0.00    +0.251 C 
ATOM     12  O   UNL     1       4.810   1.293  -0.040  0.00  0.00    -0.270 OA
BRANCH  10  13
ATOM     13  C   UNL     1       2.451   0.067  -0.147  0.00  0.00    +0.036 A 
ATOM     14  C   UNL     1       1.273  -0.652  -0.309  0.00  0.00    +0.023 A 
ATOM     15  C   UNL     1       0.081   0.015  -0.510  0.00  0.00    +0.002 A 
ATOM     16  C   UNL     1       0.058   1.397  -0.550  0.00  0.00    +0.000 A 
ATOM     17  C   UNL     1       1.228   2.115  -0.389  0.00  0.00    +0.002 A 
ATOM     18  C   UNL     1       2.424   1.455  -0.188  0.00  0.00    +0.023 A 
ENDBRANCH  10  13
ENDBRANCH   3  11
ENDBRANCH   1   6
BRANCH   1  19
ATOM     19  C   UNL     1      10.476  -2.497   1.672  0.00  0.00    +0.141 C 
ATOM     20  S   UNL     1       9.886  -1.564   2.980  0.00  0.00    -0.018 S 
BRANCH  19  21
ATOM     21  N   UNL     1      11.697  -3.064   1.745  0.00  0.00    -0.264 N 
ATOM     22  C   UNL     1      12.453  -2.896   2.848  0.00  0.00    +0.250 C 
ATOM     23  O   UNL     1      12.034  -2.234   3.776  0.00  0.00    -0.270 OA
ATOM     24  H   UNL     1      12.031  -3.593   1.004  0.00  0.00    +0.157 HD
BRANCH  22  25
ATOM     25  C   UNL     1      13.793  -3.519   2.928  0.00  0.00    +0.037 A 
ATOM     26  C   UNL     1      14.271  -4.285   1.863  0.00  0.00    +0.014 A 
ATOM     27  C   UNL     1      15.522  -4.860   1.936  0.00  0.00    +0.016 A 
ATOM     28  C   UNL     1      16.305  -4.685   3.078  0.00  0.00    +0.059 A 
ATOM     29  C   UNL     1      15.824  -3.924   4.145  0.00  0.00    +0.016 A 
ATOM     30  C   UNL     1      14.576  -3.345   4.070  0.00  0.00    +0.014 A 
BRANCH  28  31
ATOM     31  C   UNL     1      17.645  -5.307   3.158  0.00  0.00    +0.339 C 
ATOM     32  O   UNL     1      18.327  -5.155   4.151  0.00  0.00    -0.245 OA
BRANCH  31  33
ATOM     33  O   UNL     1      18.109  -6.041   2.129  0.00  0.00    -0.464 OA
ATOM     34  C   UNL     1      19.432  -6.621   2.276  0.00  0.00    +0.280 C 
ENDBRANCH  31  33
ENDBRANCH  28  31
ENDBRANCH  22  25
ENDBRANCH  19  21
ENDBRANCH   1  19
TORSDOF 8
