REMARK  Name = ZINC66121561
REMARK  5 active torsions:
REMARK  status: ('A' for Active; 'I' for Inactive)
REMARK    1  A    between atoms: C_2  and  C_9
REMARK    2  A    between atoms: C_9  and  C_10
REMARK    3  A    between atoms: C_10  and  N_11
REMARK    4  A    between atoms: C_17  and  N_20
REMARK    5  A    between atoms: C_21  and  C_23
REMARK                            x       y       z     vdW  Elec       q    Type
REMARK                         _______ _______ _______ _____ _____    ______ ____
ROOT
ATOM      1  N   UNL     1       1.136   5.561   1.463  0.00  0.00    -0.299 N 
ATOM      2  C   UNL     1       1.137   6.229   2.633  0.00  0.00    +0.302 C 
ATOM      3  O   UNL     1       1.062   5.618   3.682  0.00  0.00    -0.253 OA
ATOM      4  N   UNL     1       1.220   7.574   2.641  0.00  0.00    -0.286 N 
ATOM      5  C   UNL     1       1.193   8.334   1.384  0.00  0.00    +0.111 C 
ATOM      6  C   UNL     1       2.418   9.253   1.337  0.00  0.00    +0.041 C 
ATOM      7  C   UNL     1       2.447  10.122   2.595  0.00  0.00    +0.076 C 
ATOM      8  C   UNL     1       2.561   9.228   3.832  0.00  0.00    +0.041 C 
ATOM      9  C   UNL     1       1.333   8.310   3.909  0.00  0.00    +0.111 C 
ATOM     10  H   UNL     1       1.121   6.050   0.625  0.00  0.00    +0.150 HD
ENDROOT
BRANCH   7  11
ATOM     11  N   UNL     1       3.599  11.025   2.538  0.00  0.00    -0.312 N 
ATOM     12  C   UNL     1       3.580  12.187   3.221  0.00  0.00    +0.216 C 
ATOM     13  O   UNL     1       2.608  12.484   3.884  0.00  0.00    -0.276 OA
ATOM     14  H   UNL     1       4.376  10.788   2.008  0.00  0.00    +0.149 HD
BRANCH  12  15
ATOM     15  C   UNL     1       4.765  13.116   3.162  0.00  0.00    +0.075 C 
ATOM     16  C   UNL     1       4.776  14.021   1.919  0.00  0.00    +0.013 C 
ATOM     17  C   UNL     1       3.959  15.030   2.742  0.00  0.00    +0.001 C 
ATOM     18  C   UNL     1       4.586  14.396   3.995  0.00  0.00    +0.013 C 
ENDBRANCH  12  15
ENDBRANCH   7  11
BRANCH   1  19
ATOM     19  C   UNL     1       1.158   4.096   1.455  0.00  0.00    +0.110 C 
BRANCH  19  20
ATOM     20  C   UNL     1       1.153   3.594   0.010  0.00  0.00    +0.054 C 
BRANCH  20  22
ATOM     21  C   UNL     1      -0.011   1.378   0.010  0.00  0.00    +0.023 A 
ATOM     22  C   UNL     1       1.176   2.087   0.002  0.00  0.00    -0.043 A 
ATOM     23  C   UNL     1       2.383   1.414  -0.013  0.00  0.00    +0.023 A 
ATOM     24  C   UNL     1       2.405   0.031  -0.020  0.00  0.00    +0.043 A 
ATOM     25  C   UNL     1       1.217  -0.679  -0.013  0.00  0.00    +0.040 A 
ATOM     26  C   UNL     1       0.009  -0.005   0.002  0.00  0.00    +0.043 A 
ATOM     27 CL   UNL     1      -1.481  -0.895   0.012  0.00  0.00    -0.083 Cl
ATOM     28 CL   UNL     1       3.921  -0.814  -0.039  0.00  0.00    -0.083 Cl
ENDBRANCH  20  22
ENDBRANCH  19  20
ENDBRANCH   1  19
TORSDOF 5
