REMARK  Name = ZINC44449786
REMARK  3 active torsions:
REMARK  status: ('A' for Active; 'I' for Inactive)
REMARK    1  A    between atoms: C_6  and  N_7
REMARK    2  A    between atoms: C_9  and  C_14
REMARK    3  A    between atoms: N_16  and  C_17
REMARK                            x       y       z     vdW  Elec       q    Type
REMARK                         _______ _______ _______ _____ _____    ______ ____
ROOT
ATOM      1  N   UNL     1      -1.200  -0.722   0.010  0.00  0.00    -0.271 N 
ATOM      2  C   UNL     1      -1.293  -2.182  -0.097  0.00  0.00    +0.127 C 
ATOM      3  C   UNL     1      -2.715  -2.541   0.388  0.00  0.00    +0.102 C 
ATOM      4  C   UNL     1      -3.486  -1.232   0.101  0.00  0.00    +0.110 C 
ATOM      5  C   UNL     1      -2.417  -0.162   0.122  0.00  0.00    +0.221 C 
ATOM      6  O   UNL     1      -2.627   1.029   0.224  0.00  0.00    -0.275 OA
ENDROOT
BRANCH   1  12
ATOM      7  C   UNL     1      -0.017   1.384  -0.005  0.00  0.00    +0.025 A 
ATOM      8  C   UNL     1       1.170   2.090  -0.012  0.00  0.00    +0.022 A 
ATOM      9  C   UNL     1       2.378   1.414  -0.013  0.00  0.00    +0.041 A 
ATOM     10  C   UNL     1       2.400   0.031  -0.007  0.00  0.00    +0.022 A 
ATOM     11  C   UNL     1       1.215  -0.679   0.001  0.00  0.00    +0.025 A 
ATOM     12  C   UNL     1       0.002  -0.004   0.002  0.00  0.00    +0.036 A 
ATOM     13 CL   UNL     1       3.869   2.304  -0.024  0.00  0.00    -0.084 Cl
ENDBRANCH   1  12
BRANCH   3  14
ATOM     14  C   UNL     1      -3.283  -3.688  -0.408  0.00  0.00    +0.224 C 
ATOM     15  O   UNL     1      -2.627  -4.194  -1.294  0.00  0.00    -0.275 OA
ATOM     16  N   UNL     1      -4.519  -4.150  -0.136  0.00  0.00    -0.254 N 
ATOM     17  H   UNL     1      -5.043  -3.745   0.573  0.00  0.00    +0.158 HD
BRANCH  16  18
ATOM     18  C   UNL     1      -5.042  -5.206  -0.869  0.00  0.00    +0.228 A 
ATOM     19  C   UNL     1      -6.283  -5.769  -0.701  0.00  0.00    +0.048 A 
ATOM     20  C   UNL     1      -6.416  -6.793  -1.631  0.00  0.00    +0.099 A 
ATOM     21  N   UNL     1      -5.303  -6.854  -2.337  0.00  0.00    -0.080 NA
ATOM     22  O   UNL     1      -4.427  -5.851  -1.869  0.00  0.00    -0.339 OA
ATOM     23  C   UNL     1      -7.736  -7.562  -1.619  0.00  0.00    +0.128 C 
ATOM     24  S   UNL     1      -8.443  -7.073   0.007  0.00  0.00    -0.150 S 
ATOM     25  C   UNL     1      -7.471  -5.527   0.227  0.00  0.00    +0.111 C 
ENDBRANCH  16  18
ENDBRANCH   3  14
TORSDOF 3
