REMARK  Name = ZINC38063606
REMARK  5 active torsions:
REMARK  status: ('A' for Active; 'I' for Inactive)
REMARK    1  A    between atoms: C_1  and  S_2
REMARK    2  A    between atoms: S_2  and  C_3
REMARK    3  A    between atoms: C_3  and  C_4
REMARK    4  A    between atoms: C_4  and  N_5
REMARK    5  A    between atoms: C_7  and  N_12
REMARK                            x       y       z     vdW  Elec       q    Type
REMARK                         _______ _______ _______ _____ _____    ______ ____
ROOT
ATOM      1  N   UNL     1       1.724  -2.313   2.855  0.00  0.00    -0.313 N 
ATOM      2  C   UNL     1       3.077  -2.452   2.816  0.00  0.00    +0.111 A 
ATOM      3  C   UNL     1       3.772  -2.777   3.938  0.00  0.00    +0.041 A 
ATOM      4  C   UNL     1       3.088  -2.973   5.151  0.00  0.00    +0.029 A 
ATOM      5  C   UNL     1       1.732  -2.832   5.182  0.00  0.00    +0.072 A 
ATOM      6  C   UNL     1       1.047  -2.489   4.005  0.00  0.00    +0.251 A 
ATOM      7  O   UNL     1      -0.167  -2.356   4.023  0.00  0.00    -0.268 OA
ENDROOT
BRANCH   3   8
ATOM      8  N   UNL     1       5.167  -2.918   3.886  0.00  0.00    -0.357 N 
ATOM      9  H   UNL     1       5.637  -2.783   3.048  0.00  0.00    +0.142 HD
ATOM     10  H   UNL     1       5.661  -3.150   4.687  0.00  0.00    +0.142 HD
ENDBRANCH   3   8
BRANCH   1  11
ATOM     11  C   UNL     1       0.997  -1.962   1.633  0.00  0.00    +0.135 C 
BRANCH  11  12
ATOM     12  C   UNL     1       0.902  -0.439   1.516  0.00  0.00    +0.090 C 
BRANCH  12  14
ATOM     13  C   UNL     1      -0.022   1.810   0.012  0.00  0.00    +0.084 C 
ATOM     14  S   UNL     1       0.002  -0.004   0.002  0.00  0.00    -0.162 S 
ENDBRANCH  12  14
ENDBRANCH  11  12
ENDBRANCH   1  11
TORSDOF 4
