REMARK  Name = ZINC16491532
REMARK  8 active torsions:
REMARK  status: ('A' for Active; 'I' for Inactive)
REMARK    1  A    between atoms: C_4  and  S_7
REMARK    2  A    between atoms: S_7  and  N_10
REMARK    3  A    between atoms: N_10  and  C_11
REMARK    4  A    between atoms: C_14  and  S_17
REMARK    5  A    between atoms: S_17  and  C_18
REMARK    6  A    between atoms: C_21  and  N_24
REMARK    7  A    between atoms: N_24  and  S_25
REMARK    8  A    between atoms: S_25  and  C_28
REMARK                            x       y       z     vdW  Elec       q    Type
REMARK                         _______ _______ _______ _____ _____    ______ ____
ROOT
ATOM      1  S   UNL     1      -0.524   2.701   0.389  0.00  0.00    -0.089 S 
ENDROOT
BRANCH   1   5
ATOM      2  C   UNL     1       0.773  -1.628   0.055  0.00  0.00    +0.048 A 
ATOM      3  C   UNL     1       1.689  -0.610  -0.173  0.00  0.00    +0.025 A 
ATOM      4  C   UNL     1       1.294   0.709  -0.071  0.00  0.00    +0.017 A 
ATOM      5  C   UNL     1      -0.020   1.017   0.259  0.00  0.00    +0.013 A 
ATOM      6  C   UNL     1      -0.935  -0.002   0.487  0.00  0.00    +0.017 A 
ATOM      7  C   UNL     1      -0.540  -1.321   0.385  0.00  0.00    +0.025 A 
BRANCH   2   8
ATOM      8  N   UNL     1       1.174  -2.966  -0.049  0.00  0.00    -0.216 N 
ATOM      9  H   UNL     1       0.625  -3.600  -0.535  0.00  0.00    +0.174 HD
BRANCH   8  10
ATOM     10  S   UNL     1       2.586  -3.464   0.659  0.00  0.00    +0.072 S 
ATOM     11  O   UNL     1       2.682  -4.863   0.431  0.00  0.00    -0.150 OA
ATOM     12  O   UNL     1       3.593  -2.553   0.242  0.00  0.00    -0.150 OA
BRANCH  10  16
ATOM     13  C   UNL     1       2.110  -2.912   5.127  0.00  0.00    +0.000 A 
ATOM     14  C   UNL     1       1.839  -4.138   4.549  0.00  0.00    +0.002 A 
ATOM     15  C   UNL     1       1.984  -4.307   3.185  0.00  0.00    +0.029 A 
ATOM     16  C   UNL     1       2.400  -3.249   2.398  0.00  0.00    +0.108 A 
ATOM     17  C   UNL     1       2.676  -2.025   2.977  0.00  0.00    +0.029 A 
ATOM     18  C   UNL     1       2.526  -1.854   4.340  0.00  0.00    +0.002 A 
ENDBRANCH  10  16
ENDBRANCH   8  10
ENDBRANCH   2   8
ENDBRANCH   1   5
BRANCH   1  19
ATOM     19  C   UNL     1       0.970   3.611   0.178  0.00  0.00    +0.013 A 
ATOM     20  C   UNL     1       1.797   3.851   1.268  0.00  0.00    +0.017 A 
ATOM     21  C   UNL     1       2.970   4.559   1.102  0.00  0.00    +0.025 A 
ATOM     22  C   UNL     1       3.318   5.041  -0.153  0.00  0.00    +0.048 A 
ATOM     23  C   UNL     1       2.489   4.806  -1.242  0.00  0.00    +0.025 A 
ATOM     24  C   UNL     1       1.318   4.093  -1.077  0.00  0.00    +0.017 A 
BRANCH  22  25
ATOM     25  N   UNL     1       4.505   5.765  -0.321  0.00  0.00    -0.216 N 
ATOM     26  H   UNL     1       5.359   5.307  -0.297  0.00  0.00    +0.174 HD
BRANCH  25  27
ATOM     27  S   UNL     1       4.449   7.403  -0.559  0.00  0.00    +0.072 S 
ATOM     28  O   UNL     1       5.796   7.843  -0.665  0.00  0.00    -0.150 OA
ATOM     29  O   UNL     1       3.491   7.632  -1.583  0.00  0.00    -0.150 OA
BRANCH  27  30
ATOM     30  C   UNL     1       3.798   8.121   0.911  0.00  0.00    +0.108 A 
ATOM     31  C   UNL     1       2.430   8.216   1.087  0.00  0.00    +0.029 A 
ATOM     32  C   UNL     1       1.918   8.775   2.243  0.00  0.00    +0.002 A 
ATOM     33  C   UNL     1       2.775   9.250   3.219  0.00  0.00    +0.000 A 
ATOM     34  C   UNL     1       4.143   9.161   3.041  0.00  0.00    +0.002 A 
ATOM     35  C   UNL     1       4.654   8.596   1.887  0.00  0.00    +0.029 A 
ENDBRANCH  27  30
ENDBRANCH  25  27
ENDBRANCH  22  25
ENDBRANCH   1  19
TORSDOF 8
