REMARK  Name = ZINC24954347
REMARK  5 active torsions:
REMARK  status: ('A' for Active; 'I' for Inactive)
REMARK    1  A    between atoms: C_1  and  N_2
REMARK    2  A    between atoms: C_3  and  C_5
REMARK    3  A    between atoms: C_7  and  S_11
REMARK    4  A    between atoms: N_9  and  C_10
REMARK    5  A    between atoms: S_11  and  N_14
REMARK                            x       y       z     vdW  Elec       q    Type
REMARK                         _______ _______ _______ _____ _____    ______ ____
ROOT
ATOM      1  S   UNL     1       1.762  -5.702   2.264  0.00  0.00    +0.076 S 
ATOM      2  O   UNL     1       2.072  -6.667   1.268  0.00  0.00    -0.150 OA
ATOM      3  O   UNL     1       2.720  -5.250   3.210  0.00  0.00    -0.150 OA
ENDROOT
BRANCH   1   4
ATOM      4  N   UNL     1       0.489  -6.310   3.132  0.00  0.00    -0.200 N 
ATOM      5  C   UNL     1       0.065  -7.706   2.958  0.00  0.00    +0.132 C 
ATOM      6  C   UNL     1      -1.466  -7.722   2.865  0.00  0.00    +0.025 C 
ATOM      7  C   UNL     1      -2.046  -7.217   4.186  0.00  0.00    +0.039 C 
ATOM      8  C   UNL     1      -1.420  -5.902   4.569  0.00  0.00    -0.019 A 
ATOM      9  C   UNL     1      -0.198  -5.502   4.049  0.00  0.00    +0.090 A 
ATOM     10  C   UNL     1       0.359  -4.285   4.431  0.00  0.00    +0.149 A 
ATOM     11  C   UNL     1      -0.304  -3.473   5.332  0.00  0.00    +0.078 A 
ATOM     12  C   UNL     1      -1.523  -3.873   5.853  0.00  0.00    +0.126 A 
ATOM     13  C   UNL     1      -2.083  -5.080   5.466  0.00  0.00    +0.044 A 
ATOM     14  F   UNL     1      -2.173  -3.079   6.732  0.00  0.00    -0.205 F 
ATOM     15  F   UNL     1       1.548  -3.897   3.920  0.00  0.00    -0.203 F 
ENDBRANCH   1   4
BRANCH   1  18
ATOM     16  C   UNL     1       0.763  -2.148   0.863  0.00  0.00    +0.106 A 
ATOM     17  C   UNL     1       1.385  -2.944   1.802  0.00  0.00    +0.061 A 
ATOM     18  C   UNL     1       1.179  -4.272   1.415  0.00  0.00    +0.127 A 
ATOM     19  C   UNL     1       0.451  -4.264   0.273  0.00  0.00    +0.114 A 
ATOM     20  N   UNL     1       0.188  -2.980  -0.070  0.00  0.00    -0.344 N 
ATOM     21  C   UNL     1      -0.580  -2.548  -1.241  0.00  0.00    +0.149 C 
BRANCH  16  24
ATOM     22  C   UNL     1       1.452   1.476   1.725  0.00  0.00    +0.128 C 
ATOM     23  N   UNL     1       1.407   0.013   1.790  0.00  0.00    -0.313 N 
ATOM     24  C   UNL     1       0.719  -0.682   0.863  0.00  0.00    +0.260 C 
ATOM     25  O   UNL     1       0.060  -0.093   0.026  0.00  0.00    -0.269 OA
ATOM     26  H   UNL     1       1.873  -0.455   2.500  0.00  0.00    +0.149 HD
ENDBRANCH  16  24
ENDBRANCH   1  18
TORSDOF 3
