REMARK  Name = ZINC40385220
REMARK  8 active torsions:
REMARK  status: ('A' for Active; 'I' for Inactive)
REMARK    1  A    between atoms: C_1  and  N_2
REMARK    2  A    between atoms: N_2  and  C_3
REMARK    3  A    between atoms: N_2  and  S_4
REMARK    4  A    between atoms: S_4  and  N_7
REMARK    5  A    between atoms: N_7  and  C_8
REMARK    6  A    between atoms: N_7  and  C_9
REMARK    7  A    between atoms: C_12  and  S_15
REMARK    8  A    between atoms: S_15  and  N_18
REMARK                            x       y       z     vdW  Elec       q    Type
REMARK                         _______ _______ _______ _____ _____    ______ ____
ROOT
ATOM      1  C   UNL     1       2.196  -0.142  -2.747  0.00  0.00    +0.052 A 
ATOM      2  C   UNL     1       3.432   0.404  -2.423  0.00  0.00    +0.027 A 
ATOM      3  C   UNL     1       4.038   1.296  -3.285  0.00  0.00    +0.030 A 
ATOM      4  C   UNL     1       3.416   1.647  -4.470  0.00  0.00    +0.105 A 
ATOM      5  C   UNL     1       2.186   1.105  -4.795  0.00  0.00    +0.030 A 
ATOM      6  C   UNL     1       1.577   0.208  -3.939  0.00  0.00    +0.027 A 
ENDROOT
BRANCH   4   7
ATOM      7  S   UNL     1       4.192   2.787  -5.566  0.00  0.00    +0.056 S 
ATOM      8  O   UNL     1       3.157   3.368  -6.347  0.00  0.00    -0.153 OA
ATOM      9  O   UNL     1       5.082   3.566  -4.779  0.00  0.00    -0.153 OA
BRANCH   7  10
ATOM     10  N   UNL     1       5.130   1.904  -6.606  0.00  0.00    -0.204 NA
ATOM     11  H   UNL     1       5.289   2.224  -7.508  0.00  0.00    +0.144 HD
ATOM     12  H   UNL     1       5.522   1.066  -6.314  0.00  0.00    +0.144 HD
ENDBRANCH   7  10
ENDBRANCH   4   7
BRANCH   1  13
ATOM     13  N   UNL     1       1.581  -1.045  -1.877  0.00  0.00    -0.196 N 
ATOM     14  C   UNL     1       2.250  -2.301  -1.531  0.00  0.00    +0.158 C 
BRANCH  13  15
ATOM     15  S   UNL     1       0.094  -0.696  -1.237  0.00  0.00    +0.113 S 
ATOM     16  O   UNL     1      -0.554  -1.941  -1.012  0.00  0.00    -0.138 OA
ATOM     17  O   UNL     1      -0.471   0.320  -2.053  0.00  0.00    -0.138 OA
BRANCH  15  19
ATOM     18  C   UNL     1       0.503   1.432   0.382  0.00  0.00    +0.132 C 
ATOM     19  N   UNL     1       0.348  -0.019   0.253  0.00  0.00    -0.170 NA
ATOM     20  C   UNL     1       0.419  -0.872   1.442  0.00  0.00    +0.132 C 
ENDBRANCH  15  19
ENDBRANCH  13  15
ENDBRANCH   1  13
TORSDOF 5
