REMARK  Name = ZINC40732261
REMARK  5 active torsions:
REMARK  status: ('A' for Active; 'I' for Inactive)
REMARK    1  A    between atoms: C_1  and  C_2
REMARK    2  A    between atoms: C_10  and  N_27
REMARK    3  A    between atoms: C_11  and  N_15
REMARK    4  A    between atoms: N_15  and  N_16
REMARK    5  A    between atoms: C_17  and  C_19
REMARK                            x       y       z     vdW  Elec       q    Type
REMARK                         _______ _______ _______ _____ _____    ______ ____
ROOT
ATOM      1  C   UNL     1       2.620  -0.187  -0.216  0.00  0.00    +0.028 C 
ATOM      2  C   UNL     1       1.311  -0.951  -0.009  0.00  0.00    +0.072 C 
ATOM      3  C   UNL     1       0.324  -0.589  -1.123  0.00  0.00    +0.022 C 
ATOM      4  C   UNL     1      -1.028  -1.247  -0.835  0.00  0.00    +0.003 C 
ATOM      5  C   UNL     1      -1.581  -0.721   0.492  0.00  0.00    +0.019 C 
ATOM      6  C   UNL     1      -0.615  -1.085   1.624  0.00  0.00    +0.107 C 
ATOM      7  N   UNL     1       0.724  -0.582   1.286  0.00  0.00    -0.311 N 
ATOM      8  C   UNL     1       1.421   0.230   2.173  0.00  0.00    +0.148 A 
ATOM      9  C   UNL     1       2.229  -0.331   3.163  0.00  0.00    +0.107 A 
ATOM     10  C   UNL     1       2.907   0.530   4.028  0.00  0.00    +0.161 A 
ATOM     11  N   UNL     1       2.758   1.844   3.877  0.00  0.00    -0.217 NA
ATOM     12  C   UNL     1       1.985   2.333   2.928  0.00  0.00    +0.225 A 
ATOM     13  N   UNL     1       1.332   1.555   2.088  0.00  0.00    -0.219 NA
ENDROOT
BRANCH   9  14
ATOM     14  N   UNL     1       2.356  -1.725   3.287  0.00  0.00    -0.353 N 
ATOM     15  H   UNL     1       1.949  -2.309   2.628  0.00  0.00    +0.143 HD
ATOM     16  H   UNL     1       2.852  -2.103   4.030  0.00  0.00    +0.143 HD
ENDBRANCH   9  14
BRANCH  10  17
ATOM     17  N   UNL     1       3.724   0.023   5.031  0.00  0.00    -0.247 N 
ATOM     18  H   UNL     1       3.827  -0.936   5.135  0.00  0.00    +0.172 HD
BRANCH  17  19
ATOM     19  N   UNL     1       4.399   0.897   5.893  0.00  0.00    -0.231 N 
ATOM     20  C   UNL     1       5.192   0.406   6.866  0.00  0.00    +0.262 C 
ATOM     21  O   UNL     1       5.321  -0.796   6.996  0.00  0.00    -0.269 OA
ATOM     22  H   UNL     1       4.296   1.856   5.789  0.00  0.00    +0.173 HD
BRANCH  20  23
ATOM     23  C   UNL     1       5.904   1.327   7.774  0.00  0.00    +0.057 A 
ATOM     24  C   UNL     1       5.753   2.709   7.631  0.00  0.00    +0.016 A 
ATOM     25  C   UNL     1       6.420   3.564   8.482  0.00  0.00    +0.021 A 
ATOM     26  C   UNL     1       7.239   3.057   9.479  0.00  0.00    +0.042 A 
ATOM     27  C   UNL     1       7.393   1.689   9.627  0.00  0.00    +0.040 A 
ATOM     28  C   UNL     1       6.726   0.821   8.784  0.00  0.00    +0.054 A 
ATOM     29 CL   UNL     1       6.915  -0.894   8.975  0.00  0.00    -0.083 Cl
ATOM     30 CL   UNL     1       8.075   4.141  10.546  0.00  0.00    -0.083 Cl
ENDBRANCH  20  23
ENDBRANCH  17  19
ENDBRANCH  10  17
TORSDOF 4
