REMARK  Name = ZINC65994709
REMARK  10 active torsions:
REMARK  status: ('A' for Active; 'I' for Inactive)
REMARK    1  A    between atoms: C_1  and  C_2
REMARK    2  A    between atoms: C_2  and  C_3
REMARK    3  A    between atoms: C_2  and  N_15
REMARK    4  A    between atoms: C_7  and  N_9
REMARK    5  A    between atoms: N_18  and  C_19
REMARK    6  A    between atoms: N_18  and  C_23
REMARK    7  A    between atoms: C_19  and  C_20
REMARK    8  A    between atoms: C_20  and  O_21
REMARK    9  A    between atoms: O_21  and  C_22
REMARK   10  A    between atoms: C_23  and  C_24
REMARK                            x       y       z     vdW  Elec       q    Type
REMARK                         _______ _______ _______ _____ _____    ______ ____
ROOT
ATOM      1  N   UNL     1      -1.381  -0.541   0.007  0.00  0.00    -0.293 N 
ATOM      2  C   UNL     1      -2.042  -0.699   1.171  0.00  0.00    +0.303 C 
ATOM      3  O   UNL     1      -1.497  -0.420   2.222  0.00  0.00    -0.253 OA
ATOM      4  N   UNL     1      -3.306  -1.167   1.171  0.00  0.00    -0.276 N 
ATOM      5  H   UNL     1      -1.816  -0.763  -0.831  0.00  0.00    +0.151 HD
ENDROOT
BRANCH   1   7
ATOM      6  C   UNL     1      -0.029   1.497   0.034  0.00  0.00    +0.033 C 
ATOM      7  C   UNL     1      -0.007  -0.033   0.008  0.00  0.00    +0.102 C 
BRANCH   7   8
ATOM      8  C   UNL     1       0.703  -0.504  -1.235  0.00  0.00    -0.026 A 
ATOM      9  C   UNL     1       0.037  -0.521  -2.447  0.00  0.00    +0.005 A 
ATOM     10  C   UNL     1       0.685  -0.952  -3.590  0.00  0.00    +0.002 A 
ATOM     11  C   UNL     1       2.001  -1.367  -3.524  0.00  0.00    +0.023 A 
ATOM     12  C   UNL     1       2.673  -1.351  -2.309  0.00  0.00    +0.037 A 
ATOM     13  C   UNL     1       2.020  -0.912  -1.164  0.00  0.00    +0.029 A 
BRANCH  12  14
ATOM     14  N   UNL     1       4.005  -1.771  -2.239  0.00  0.00    -0.271 N 
ATOM     15  C   UNL     1       4.838  -1.686  -1.034  0.00  0.00    +0.114 C 
ATOM     16  C   UNL     1       6.031  -2.634  -1.290  0.00  0.00    +0.029 C 
ATOM     17  C   UNL     1       6.095  -2.650  -2.834  0.00  0.00    +0.098 C 
ATOM     18  C   UNL     1       4.686  -2.308  -3.266  0.00  0.00    +0.220 C 
ATOM     19  O   UNL     1       4.237  -2.490  -4.378  0.00  0.00    -0.275 OA
ENDBRANCH  12  14
ENDBRANCH   7   8
ENDBRANCH   1   7
BRANCH   4  20
ATOM     20  C   UNL     1      -4.024  -1.338   2.436  0.00  0.00    +0.138 C 
BRANCH  20  21
ATOM     21  C   UNL     1      -4.773  -0.049   2.777  0.00  0.00    +0.178 C 
BRANCH  21  22
ATOM     22  O   UNL     1      -5.786   0.188   1.796  0.00  0.00    -0.381 OA
ATOM     23  C   UNL     1      -6.548   1.375   2.023  0.00  0.00    +0.194 C 
ENDBRANCH  21  22
ENDBRANCH  20  21
ENDBRANCH   4  20
BRANCH   4  24
ATOM     24  C   UNL     1      -3.962  -1.502  -0.095  0.00  0.00    +0.183 C 
BRANCH  24  25
ATOM     25  C   UNL     1      -3.696  -2.947  -0.431  0.00  0.00    +0.122 A 
ATOM     26  C   UNL     1      -4.459  -3.993  -0.067  0.00  0.00    +0.046 A 
ATOM     27  C   UNL     1      -3.843  -5.152  -0.592  0.00  0.00    +0.041 A 
ATOM     28  C   UNL     1      -2.740  -4.745  -1.246  0.00  0.00    +0.195 A 
ATOM     29  O   UNL     1      -2.659  -3.408  -1.150  0.00  0.00    -0.466 OA
ENDBRANCH  24  25
ENDBRANCH   4  24
TORSDOF 8
