REMARK  Name = ZINC05343943
REMARK  11 active torsions:
REMARK  status: ('A' for Active; 'I' for Inactive)
REMARK    1  A    between atoms: C_1  and  C_2
REMARK    2  A    between atoms: C_2  and  O_3
REMARK    3  A    between atoms: O_3  and  C_4
REMARK    4  A    between atoms: C_8  and  C_10
REMARK    5  A    between atoms: C_13  and  C_24
REMARK    6  A    between atoms: N_20  and  C_21
REMARK    7  A    between atoms: C_21  and  C_22
REMARK    8  A    between atoms: C_22  and  O_23
REMARK    9  A    between atoms: C_26  and  C_32
REMARK   10  A    between atoms: C_28  and  C_31
REMARK   11  A    between atoms: C_29  and  O_30
REMARK                            x       y       z     vdW  Elec       q    Type
REMARK                         _______ _______ _______ _____ _____    ______ ____
ROOT
ATOM      1  C   UNL     1      -4.334  -4.267  -0.148  0.00  0.00    +0.141 C 
ATOM      2  C   UNL     1      -4.629  -4.642   1.278  0.00  0.00    +0.035 A 
ATOM      3  C   UNL     1      -4.814  -4.212   2.596  0.00  0.00    +0.102 A 
ATOM      4  N   UNL     1      -5.066  -5.280   3.328  0.00  0.00    -0.173 NA
ATOM      5  N   UNL     1      -5.058  -6.341   2.602  0.00  0.00    -0.272 N 
ATOM      6  H   UNL     1      -5.219  -7.240   2.928  0.00  0.00    +0.189 HD
ATOM      7  C   UNL     1      -4.790  -6.014   1.303  0.00  0.00    +0.126 A 
ATOM      8  C   UNL     1      -4.608  -6.530  -0.058  0.00  0.00    +0.266 C 
ATOM      9  O   UNL     1      -4.686  -7.702  -0.372  0.00  0.00    -0.268 OA
ATOM     10  N   UNL     1      -4.343  -5.522  -0.911  0.00  0.00    -0.283 N 
ENDROOT
BRANCH   3  11
ATOM     11  C   UNL     1      -4.740  -2.812   3.083  0.00  0.00    +0.044 A 
ATOM     12  C   UNL     1      -4.593  -1.764   2.177  0.00  0.00    +0.017 A 
ATOM     13  C   UNL     1      -4.525  -0.463   2.634  0.00  0.00    -0.049 A 
ATOM     14  C   UNL     1      -4.601  -0.196   3.990  0.00  0.00    +0.010 A 
ATOM     15  C   UNL     1      -4.746  -1.229   4.897  0.00  0.00    -0.008 A 
ATOM     16  C   UNL     1      -4.823  -2.539   4.451  0.00  0.00    +0.129 A 
ATOM     17  C   UNL     1      -4.828  -0.929   6.371  0.00  0.00    +0.047 C 
ATOM     18  C   UNL     1      -4.366   0.670   1.653  0.00  0.00    +0.044 C 
BRANCH  16  19
ATOM     19  O   UNL     1      -4.972  -3.554   5.341  0.00  0.00    -0.506 OA
ATOM     20  H   UNL     1      -4.137  -3.918   5.666  0.00  0.00    +0.292 HD
ENDBRANCH  16  19
ENDBRANCH   3  11
BRANCH   1  25
ATOM     21  C   UNL     1      -1.634  -1.674  -0.663  0.00  0.00    +0.121 A 
ATOM     22  C   UNL     1      -0.489  -2.417  -0.414  0.00  0.00    +0.045 A 
ATOM     23  C   UNL     1      -0.593  -3.753  -0.080  0.00  0.00    +0.004 A 
ATOM     24  C   UNL     1      -1.837  -4.350   0.006  0.00  0.00    +0.006 A 
ATOM     25  C   UNL     1      -2.979  -3.612  -0.242  0.00  0.00    -0.019 A 
ATOM     26  C   UNL     1      -2.881  -2.274  -0.571  0.00  0.00    +0.051 A 
BRANCH  21  27
ATOM     27  O   UNL     1      -1.534  -0.359  -0.992  0.00  0.00    -0.492 OA
BRANCH  27  29
ATOM     28  C   UNL     1      -0.306   1.672  -1.447  0.00  0.00    +0.048 C 
ATOM     29  C   UNL     1      -0.218   0.193  -1.068  0.00  0.00    +0.225 C 
ENDBRANCH  27  29
ENDBRANCH  21  27
ENDBRANCH   1  25
BRANCH  10  30
ATOM     30  C   UNL     1      -4.104  -5.654  -2.350  0.00  0.00    +0.137 C 
BRANCH  30  31
ATOM     31  C   UNL     1      -2.633  -5.998  -2.593  0.00  0.00    +0.175 C 
BRANCH  31  32
ATOM     32  O   UNL     1      -2.350  -7.289  -2.051  0.00  0.00    -0.393 OA
ATOM     33  H   UNL     1      -1.433  -7.573  -2.169  0.00  0.00    +0.209 HD
ENDBRANCH  31  32
ENDBRANCH  30  31
ENDBRANCH  10  30
TORSDOF 8
