REMARK  Name = ZINC29427141
REMARK  10 active torsions:
REMARK  status: ('A' for Active; 'I' for Inactive)
REMARK    1  A    between atoms: C_1  and  C_2
REMARK    2  A    between atoms: C_2  and  C_4
REMARK    3  A    between atoms: C_2  and  N_13
REMARK    4  A    between atoms: C_7  and  C_10
REMARK    5  A    between atoms: C_10  and  C_11
REMARK    6  A    between atoms: C_10  and  C_12
REMARK    7  A    between atoms: C_14  and  C_16
REMARK    8  A    between atoms: C_19  and  N_25
REMARK    9  A    between atoms: C_20  and  N_22
REMARK   10  A    between atoms: N_25  and  C_26
REMARK                            x       y       z     vdW  Elec       q    Type
REMARK                         _______ _______ _______ _____ _____    ______ ____
ROOT
ATOM      1  N   UNL     1      -1.348  -0.619   0.041  0.00  0.00    -0.305 N 
ATOM      2  C   UNL     1      -2.090  -0.543  -1.081  0.00  0.00    +0.245 C 
ATOM      3  O   UNL     1      -1.635  -0.011  -2.076  0.00  0.00    -0.270 OA
ATOM      4  H   UNL     1      -1.711  -1.044   0.835  0.00  0.00    +0.150 HD
ENDROOT
BRANCH   2   5
ATOM      5  C   UNL     1      -3.454  -1.105  -1.104  0.00  0.00    +0.039 A 
ATOM      6  C   UNL     1      -3.980  -1.712   0.041  0.00  0.00    +0.015 A 
ATOM      7  C   UNL     1      -5.252  -2.235   0.017  0.00  0.00    +0.026 A 
ATOM      8  C   UNL     1      -6.016  -2.161  -1.145  0.00  0.00    +0.058 A 
ATOM      9  C   UNL     1      -5.494  -1.557  -2.286  0.00  0.00    +0.148 A 
ATOM     10  C   UNL     1      -4.224  -1.027  -2.267  0.00  0.00    +0.047 A 
BRANCH   9  11
ATOM     11  N   UNL     1      -6.309  -1.481  -3.520  0.00  0.00    +0.058 N 
ATOM     12  O   UNL     1      -5.783  -1.617  -4.601  0.00  0.00    -0.126 OA
ATOM     13  O   UNL     1      -7.499  -1.283  -3.447  0.00  0.00    -0.126 OA
ENDBRANCH   9  11
BRANCH   8  14
ATOM     14  N   UNL     1      -7.301  -2.691  -1.167  0.00  0.00    -0.345 N 
ATOM     15  C   UNL     1      -7.900  -3.209   0.066  0.00  0.00    +0.125 C 
ATOM     16  H   UNL     1      -7.801  -2.717  -1.997  0.00  0.00    +0.146 HD
ENDBRANCH   8  14
ENDBRANCH   2   5
BRANCH   1  18
ATOM     17  C   UNL     1      -0.063   1.433   0.386  0.00  0.00    +0.033 C 
ATOM     18  C   UNL     1       0.006  -0.061   0.064  0.00  0.00    +0.100 C 
BRANCH  18  19
ATOM     19  C   UNL     1       0.823  -0.765   1.117  0.00  0.00    -0.027 A 
ATOM     20  C   UNL     1       0.249  -1.095   2.330  0.00  0.00    +0.006 A 
ATOM     21  C   UNL     1       0.998  -1.740   3.296  0.00  0.00    +0.004 A 
ATOM     22  C   UNL     1       2.320  -2.057   3.048  0.00  0.00    -0.045 A 
ATOM     23  C   UNL     1       2.894  -1.728   1.834  0.00  0.00    +0.004 A 
ATOM     24  C   UNL     1       2.144  -1.086   0.867  0.00  0.00    +0.006 A 
BRANCH  22  25
ATOM     25  C   UNL     1       3.137  -2.760   4.101  0.00  0.00    +0.013 C 
ATOM     26  C   UNL     1       3.633  -4.099   3.553  0.00  0.00    +0.012 C 
ATOM     27  C   UNL     1       4.336  -1.890   4.482  0.00  0.00    +0.012 C 
ENDBRANCH  22  25
ENDBRANCH  18  19
ENDBRANCH   1  18
TORSDOF 6
