REMARK  Name = ZINC46717501
REMARK  11 active torsions:
REMARK  status: ('A' for Active; 'I' for Inactive)
REMARK    1  A    between atoms: C_1  and  C_2
REMARK    2  A    between atoms: C_2  and  C_3
REMARK    3  A    between atoms: C_4  and  C_31
REMARK    4  A    between atoms: C_5  and  C_30
REMARK    5  A    between atoms: C_6  and  C_9
REMARK    6  A    between atoms: N_11  and  C_12
REMARK    7  A    between atoms: C_17  and  C_18
REMARK    8  A    between atoms: C_22  and  C_29
REMARK    9  A    between atoms: C_25  and  C_28
REMARK   10  A    between atoms: C_31  and  O_33
REMARK   11  A    between atoms: O_33  and  C_34
REMARK                            x       y       z     vdW  Elec       q    Type
REMARK                         _______ _______ _______ _____ _____    ______ ____
ROOT
ATOM      1  C   UNL     1       4.164  -0.551   3.235  0.00  0.00    +0.265 C 
ATOM      2  O   UNL     1       4.592  -0.426   4.367  0.00  0.00    -0.268 OA
ATOM      3  N   UNL     1       4.854  -1.272   2.330  0.00  0.00    -0.280 N 
ATOM      4  H   UNL     1       4.486  -1.419   1.444  0.00  0.00    +0.155 HD
ENDROOT
BRANCH   1   8
ATOM      5  C   UNL     1       1.156   0.718   1.636  0.00  0.00    +0.031 A 
ATOM      6  C   UNL     1       0.990   1.246   2.903  0.00  0.00    +0.083 A 
ATOM      7  C   UNL     1       2.103   0.835   3.672  0.00  0.00    -0.006 A 
ATOM      8  C   UNL     1       2.896   0.083   2.856  0.00  0.00    +0.106 A 
ATOM      9  N   UNL     1       2.300   0.016   1.615  0.00  0.00    -0.353 N 
ATOM     10  H   UNL     1       2.652  -0.461   0.848  0.00  0.00    +0.166 HD
ATOM     11  C   UNL     1       2.365   1.166   5.119  0.00  0.00    +0.047 C 
BRANCH   5  13
ATOM     12  C   UNL     1       0.530   2.206  -0.247  0.00  0.00    +0.010 C 
ATOM     13  C   UNL     1       0.210   0.896   0.476  0.00  0.00    +0.050 C 
ENDBRANCH   5  13
BRANCH   6  14
ATOM     14  C   UNL     1      -0.134   2.077   3.365  0.00  0.00    +0.341 C 
ATOM     15  O   UNL     1      -1.119   1.554   3.848  0.00  0.00    -0.245 OA
BRANCH  14  16
ATOM     16  O   UNL     1      -0.070   3.419   3.253  0.00  0.00    -0.464 OA
ATOM     17  C   UNL     1      -1.196   4.163   3.721  0.00  0.00    +0.280 C 
ENDBRANCH  14  16
ENDBRANCH   6  14
ENDBRANCH   1   8
BRANCH   3  18
ATOM     18  C   UNL     1       6.095  -1.806   2.665  0.00  0.00    +0.046 A 
ATOM     19  C   UNL     1       6.351  -2.211   3.969  0.00  0.00    +0.024 A 
ATOM     20  C   UNL     1       7.583  -2.739   4.299  0.00  0.00    +0.002 A 
ATOM     21  C   UNL     1       8.571  -2.871   3.336  0.00  0.00    +0.001 A 
ATOM     22  C   UNL     1       8.334  -2.475   2.038  0.00  0.00    +0.015 A 
ATOM     23  C   UNL     1       7.091  -1.942   1.687  0.00  0.00    +0.058 A 
BRANCH  23  24
ATOM     24  C   UNL     1       6.830  -1.521   0.298  0.00  0.00    +0.248 C 
ATOM     25  O   UNL     1       6.417  -0.401   0.070  0.00  0.00    -0.270 OA
ATOM     26  N   UNL     1       7.049  -2.378  -0.719  0.00  0.00    -0.297 N 
ATOM     27  C   UNL     1       7.616  -3.710  -0.466  0.00  0.00    +0.111 C 
ATOM     28  C   UNL     1       6.696  -4.764  -1.091  0.00  0.00    +0.004 C 
ATOM     29  C   UNL     1       6.487  -4.441  -2.572  0.00  0.00    +0.009 C 
ATOM     30  C   UNL     1       5.816  -3.072  -2.707  0.00  0.00    +0.004 C 
ATOM     31  C   UNL     1       6.720  -2.001  -2.100  0.00  0.00    +0.111 C 
ATOM     32  C   UNL     1       5.578  -2.764  -4.187  0.00  0.00    +0.009 C 
ATOM     33  C   UNL     1       5.346  -4.755  -0.370  0.00  0.00    +0.009 C 
ENDBRANCH  23  24
ENDBRANCH   3  18
TORSDOF 6
