REMARK  Name = ZINC09235725
REMARK  5 active torsions:
REMARK  status: ('A' for Active; 'I' for Inactive)
REMARK    1  A    between atoms: C_1  and  C_2
REMARK    2  A    between atoms: C_2  and  O_3
REMARK    3  A    between atoms: O_3  and  C_4
REMARK    4  A    between atoms: C_9  and  C_10
REMARK    5  A    between atoms: C_10  and  C_12
REMARK                            x       y       z     vdW  Elec       q    Type
REMARK                         _______ _______ _______ _____ _____    ______ ____
ROOT
ATOM      1  C   UNL     1       3.138   0.887   0.716  0.00  0.00    +0.066 C 
ATOM      2  C   UNL     1       3.165   1.133  -0.803  0.00  0.00    -0.055 C 
ATOM      3  C   UNL     1       4.406   1.977  -1.159  0.00  0.00    -0.016 C 
ATOM      4  C   UNL     1       3.846   2.967  -2.229  0.00  0.00    -0.020 C 
ATOM      5  C   UNL     1       2.410   3.222  -1.709  0.00  0.00    -0.076 C 
ATOM      6  C   UNL     1       1.173   2.140   0.062  0.00  0.00    +0.060 C 
ATOM      7  C   UNL     1       2.095   1.880   1.247  0.00  0.00    +0.085 C 
ATOM      8  C   UNL     1       1.357   1.327   2.432  0.00  0.00    -0.011 A 
ATOM      9  C   UNL     1       0.577   0.209   2.627  0.00  0.00    +0.006 A 
ATOM     10  C   UNL     1       0.017  -0.038   3.868  0.00  0.00    +0.000 A 
ATOM     11  C   UNL     1       0.243   0.841   4.912  0.00  0.00    +0.002 A 
ATOM     12  C   UNL     1       1.024   1.962   4.722  0.00  0.00    +0.023 A 
ATOM     13  C   UNL     1       1.591   2.217   3.475  0.00  0.00    +0.038 A 
ATOM     14  N   UNL     1       2.405   3.267   3.042  0.00  0.00    -0.285 N 
ATOM     15  C   UNL     1       2.744   3.143   1.744  0.00  0.00    +0.228 C 
ATOM     16  O   UNL     1       3.439   3.902   1.101  0.00  0.00    -0.275 OA
ATOM     17  C   UNL     1       0.602   3.532   0.103  0.00  0.00    -0.027 A 
ATOM     18  C   UNL     1       1.171   4.786   0.102  0.00  0.00    +0.004 A 
ATOM     19  C   UNL     1       0.366   5.910   0.147  0.00  0.00    +0.000 A 
ATOM     20  C   UNL     1      -1.010   5.771   0.193  0.00  0.00    +0.002 A 
ATOM     21  C   UNL     1      -1.583   4.516   0.193  0.00  0.00    +0.023 A 
ATOM     22  C   UNL     1      -0.780   3.379   0.149  0.00  0.00    +0.036 A 
ATOM     23  N   UNL     1      -1.116   2.024   0.136  0.00  0.00    -0.286 N 
ATOM     24  C   UNL     1      -0.030   1.231   0.093  0.00  0.00    +0.212 C 
ATOM     25  O   UNL     1      -0.020   0.018   0.076  0.00  0.00    -0.277 OA
ATOM     26  H   UNL     1       2.692   3.999   3.609  0.00  0.00    +0.155 HD
ATOM     27  H   UNL     1      -2.028   1.693   0.158  0.00  0.00    +0.155 HD
ATOM     28  N   UNL     1       1.980   1.922  -1.152  0.00  0.00    +0.395 N 
ATOM     29  H   UNL     1       1.421   1.417  -1.850  0.00  0.00    -0.079 HD
ENDROOT
BRANCH   1  30
ATOM     30  C   UNL     1       2.715  -0.529   1.012  0.00  0.00    +0.169 C 
ATOM     31  O   UNL     1       2.062  -1.149   0.200  0.00  0.00    -0.292 OA
BRANCH  30  37
ATOM     32  C   UNL     1       2.696  -2.474   2.567  0.00  0.00    +0.131 A 
ATOM     33  C   UNL     1       3.065  -3.059   3.770  0.00  0.00    +0.046 A 
ATOM     34  C   UNL     1       3.808  -2.344   4.688  0.00  0.00    +0.004 A 
ATOM     35  C   UNL     1       4.197  -1.042   4.416  0.00  0.00    +0.001 A 
ATOM     36  C   UNL     1       3.847  -0.445   3.225  0.00  0.00    +0.015 A 
ATOM     37  C   UNL     1       3.093  -1.157   2.284  0.00  0.00    +0.059 A 
BRANCH  32  38
ATOM     38  O   UNL     1       1.961  -3.173   1.667  0.00  0.00    -0.492 OA
BRANCH  38  40
ATOM     39  C   UNL     1       0.775  -5.131   0.893  0.00  0.00    +0.048 C 
ATOM     40  C   UNL     1       1.595  -4.507   2.024  0.00  0.00    +0.226 C 
ENDBRANCH  38  40
ENDBRANCH  32  38
ENDBRANCH  30  37
ENDBRANCH   1  30
TORSDOF 4
