REMARK  Name = ZINC34923781
REMARK  10 active torsions:
REMARK  status: ('A' for Active; 'I' for Inactive)
REMARK    1  A    between atoms: C_1  and  C_2
REMARK    2  A    between atoms: C_5  and  N_9
REMARK    3  A    between atoms: C_7  and  C_8
REMARK    4  A    between atoms: N_9  and  C_10
REMARK    5  A    between atoms: C_12  and  C_13
REMARK    6  A    between atoms: C_18  and  C_32
REMARK    7  A    between atoms: C_19  and  C_28
REMARK    8  A    between atoms: C_20  and  C_23
REMARK    9  A    between atoms: C_28  and  O_30
REMARK   10  A    between atoms: O_30  and  C_31
REMARK                            x       y       z     vdW  Elec       q    Type
REMARK                         _______ _______ _______ _____ _____    ______ ____
ROOT
ATOM      1  C   UNL     1       0.716  -6.503  -2.075  0.00  0.00    +0.048 C 
ATOM      2  C   UNL     1       0.916  -7.815  -1.819  0.00  0.00    +0.072 C 
ATOM      3  S   UNL     1       0.804  -8.529  -3.448  0.00  0.00    -0.060 S 
ATOM      4  C   UNL     1       0.515  -7.127  -4.324  0.00  0.00    +0.166 C 
ATOM      5  N   UNL     1       0.329  -6.926  -5.612  0.00  0.00    -0.230 NA
ATOM      6  C   UNL     1       0.108  -5.745  -6.168  0.00  0.00    +0.053 C 
ATOM      7  C   UNL     1       0.059  -4.604  -5.391  0.00  0.00    +0.082 C 
ATOM      8  C   UNL     1       0.264  -4.756  -3.901  0.00  0.00    +0.150 C 
ATOM      9  N   UNL     1       0.499  -6.132  -3.387  0.00  0.00    -0.267 N 
ATOM     10  C   UNL     1      -0.090  -5.646  -7.659  0.00  0.00    +0.066 C 
ENDROOT
BRANCH   8  11
ATOM     11  C   UNL     1      -0.957  -4.209  -3.206  0.00  0.00    -0.015 A 
ATOM     12  C   UNL     1      -0.879  -3.046  -2.464  0.00  0.00    +0.013 A 
ATOM     13  C   UNL     1      -1.996  -2.581  -1.852  0.00  0.00    +0.045 A 
ATOM     14  S   UNL     1      -3.209  -3.804  -2.320  0.00  0.00    -0.105 S 
ATOM     15  C   UNL     1      -2.148  -4.848  -3.304  0.00  0.00    +0.051 A 
ENDBRANCH   8  11
BRANCH   1  18
ATOM     16  C   UNL     1       0.724  -5.910   0.292  0.00  0.00    +0.243 C 
ATOM     17  O   UNL     1       0.844  -7.227   0.590  0.00  0.00    -0.270 OA
ATOM     18  C   UNL     1       0.722  -5.508  -0.993  0.00  0.00    +0.091 C 
BRANCH  16  19
ATOM     19  N   UNL     1       0.603  -4.978   1.310  0.00  0.00    -0.282 N 
ATOM     20  H   UNL     1       0.396  -4.054   1.099  0.00  0.00    +0.155 HD
BRANCH  19  25
ATOM     21  C   UNL     1       1.319  -6.564   6.707  0.00  0.00    +0.044 C 
ATOM     22  C   UNL     1       1.129  -6.143   5.273  0.00  0.00    -0.047 A 
ATOM     23  C   UNL     1       0.527  -7.005   4.374  0.00  0.00    +0.005 A 
ATOM     24  C   UNL     1       0.352  -6.622   3.059  0.00  0.00    +0.023 A 
ATOM     25  C   UNL     1       0.779  -5.369   2.640  0.00  0.00    +0.034 A 
ATOM     26  C   UNL     1       1.382  -4.505   3.545  0.00  0.00    +0.027 A 
ATOM     27  C   UNL     1       1.550  -4.892   4.860  0.00  0.00    -0.046 A 
ATOM     28  C   UNL     1       2.200  -3.954   5.844  0.00  0.00    +0.044 C 
ENDBRANCH  19  25
ENDBRANCH  16  19
ENDBRANCH   1  18
BRANCH   7  29
ATOM     29  C   UNL     1      -0.174  -3.348  -5.965  0.00  0.00    +0.339 C 
ATOM     30  O   UNL     1      -0.336  -3.249  -7.169  0.00  0.00    -0.245 OA
BRANCH  29  31
ATOM     31  O   UNL     1      -0.218  -2.246  -5.184  0.00  0.00    -0.465 OA
ATOM     32  C   UNL     1      -0.459  -0.998  -5.837  0.00  0.00    +0.280 C 
ENDBRANCH  29  31
ENDBRANCH   7  29
TORSDOF 6
