REMARK  Name = ZINC57406250
REMARK  8 active torsions:
REMARK  status: ('A' for Active; 'I' for Inactive)
REMARK    1  A    between atoms: C_1  and  C_2
REMARK    2  A    between atoms: C_5  and  C_32
REMARK    3  A    between atoms: C_6  and  N_8
REMARK    4  A    between atoms: C_9  and  C_11
REMARK    5  A    between atoms: C_11  and  C_13
REMARK    6  A    between atoms: C_11  and  N_19
REMARK    7  A    between atoms: N_22  and  C_25
REMARK    8  A    between atoms: C_30  and  O_31
REMARK                            x       y       z     vdW  Elec       q    Type
REMARK                         _______ _______ _______ _____ _____    ______ ____
ROOT
ATOM      1  C   UNL     1       0.280  -2.900   4.854  0.00  0.00    +0.174 C 
ENDROOT
BRANCH   1   2
ATOM      2  C   UNL     1       1.524  -3.749   4.811  0.00  0.00    -0.021 A 
ATOM      3  C   UNL     1       2.758  -3.182   5.070  0.00  0.00    +0.005 A 
ATOM      4  C   UNL     1       3.899  -3.961   5.030  0.00  0.00    +0.000 A 
ATOM      5  C   UNL     1       3.807  -5.308   4.733  0.00  0.00    +0.000 A 
ATOM      6  C   UNL     1       2.573  -5.876   4.476  0.00  0.00    +0.000 A 
ATOM      7  C   UNL     1       1.431  -5.098   4.519  0.00  0.00    +0.005 A 
ENDBRANCH   1   2
BRANCH   1   8
ATOM      8  N   UNL     1       0.370  -1.956   5.975  0.00  0.00    -0.285 NA
ATOM      9  C   UNL     1       0.600  -2.664   7.242  0.00  0.00    +0.104 C 
ATOM     10  C   UNL     1       0.868  -1.643   8.353  0.00  0.00    +0.120 C 
ATOM     11  N   UNL     1      -0.239  -0.675   8.374  0.00  0.00    -0.325 N 
ATOM     12  C   UNL     1      -0.619  -0.025   7.110  0.00  0.00    +0.120 C 
ATOM     13  C   UNL     1      -0.828  -1.110   6.048  0.00  0.00    +0.104 C 
BRANCH  11  14
ATOM     14  C   UNL     1      -0.913  -0.379   9.565  0.00  0.00    +0.072 A 
ATOM     15  C   UNL     1      -0.472   0.657  10.374  0.00  0.00    +0.027 A 
ATOM     16  C   UNL     1      -1.139   0.947  11.550  0.00  0.00    +0.002 A 
ATOM     17  C   UNL     1      -2.246   0.207  11.921  0.00  0.00    +0.004 A 
ATOM     18  C   UNL     1      -2.691  -0.828  11.119  0.00  0.00    +0.047 A 
ATOM     19  C   UNL     1      -2.032  -1.122   9.937  0.00  0.00    +0.138 A 
BRANCH  19  20
ATOM     20  O   UNL     1      -2.472  -2.136   9.144  0.00  0.00    -0.505 OA
ATOM     21  H   UNL     1      -2.078  -2.995   9.350  0.00  0.00    +0.292 HD
ENDBRANCH  19  20
ENDBRANCH  11  14
ENDBRANCH   1   8
BRANCH   1  23
ATOM     22  N   UNL     1       0.052  -2.797   2.393  0.00  0.00    -0.284 N 
ATOM     23  C   UNL     1       0.150  -2.135   3.562  0.00  0.00    +0.239 C 
ATOM     24  O   UNL     1       0.134  -0.922   3.575  0.00  0.00    -0.273 OA
ATOM     25  H   UNL     1      -0.016  -3.765   2.388  0.00  0.00    +0.155 HD
BRANCH  22  31
ATOM     26  C   UNL     1       1.264   1.227  -0.158  0.00  0.00    +0.044 C 
ATOM     27  C   UNL     1       0.628  -0.137  -0.079  0.00  0.00    -0.049 A 
ATOM     28  C   UNL     1       0.039  -0.690  -1.201  0.00  0.00    +0.004 A 
ATOM     29  C   UNL     1      -0.546  -1.941  -1.133  0.00  0.00    +0.005 A 
ATOM     30  C   UNL     1      -0.543  -2.643   0.057  0.00  0.00    -0.029 A 
ATOM     31  C   UNL     1       0.048  -2.090   1.185  0.00  0.00    +0.037 A 
ATOM     32  C   UNL     1       0.639  -0.835   1.112  0.00  0.00    +0.027 A 
ATOM     33  C   UNL     1      -1.181  -4.006   0.131  0.00  0.00    +0.045 C 
ENDBRANCH  22  31
ENDBRANCH   1  23
TORSDOF 6
