REMARK  Name = ZINC42015344
REMARK  3 active torsions:
REMARK  status: ('A' for Active; 'I' for Inactive)
REMARK    1  A    between atoms: C_4  and  C_8
REMARK    2  A    between atoms: C_6  and  N_7
REMARK    3  A    between atoms: N_12  and  C_13
REMARK                            x       y       z     vdW  Elec       q    Type
REMARK                         _______ _______ _______ _____ _____    ______ ____
ROOT
ATOM      1  C   UNL     1       3.702  -0.681  -0.032  0.00  0.00    +0.185 A 
ATOM      2  N   UNL     1       3.877  -1.984   0.043  0.00  0.00    -0.108 NA
ATOM      3  N   UNL     1       5.127  -2.274  -0.009  0.00  0.00    -0.023 NA
ATOM      4  N   UNL     1       5.832  -1.201  -0.119  0.00  0.00    -0.043 NA
ATOM      5  N   UNL     1       4.932  -0.121  -0.143  0.00  0.00    -0.220 N 
ENDROOT
BRANCH   1   9
ATOM      6  C   UNL     1      -0.021   1.377   0.052  0.00  0.00    +0.025 A 
ATOM      7  C   UNL     1       0.247   0.399   0.991  0.00  0.00    +0.041 A 
ATOM      8  C   UNL     1       1.455  -0.273   0.969  0.00  0.00    +0.134 A 
ATOM      9  C   UNL     1       2.408   0.036  -0.005  0.00  0.00    +0.058 A 
ATOM     10  C   UNL     1       2.136   1.023  -0.951  0.00  0.00    +0.037 A 
ATOM     11  C   UNL     1       0.922   1.691  -0.920  0.00  0.00    +0.025 A 
ATOM     12  F   UNL     1       1.714  -1.228   1.889  0.00  0.00    -0.205 F 
BRANCH  11  13
ATOM     13  N   UNL     1       0.645   2.682  -1.868  0.00  0.00    -0.358 N 
ATOM     14  H   UNL     1      -0.204   3.150  -1.846  0.00  0.00    +0.142 HD
ATOM     15  H   UNL     1       1.302   2.901  -2.546  0.00  0.00    +0.142 HD
ENDBRANCH  11  13
ENDBRANCH   1   9
BRANCH   5  16
ATOM     16  C   UNL     1       5.254   1.303  -0.261  0.00  0.00    +0.134 C 
ATOM     17  C   UNL     1       6.249   1.695   0.844  0.00  0.00    +0.051 C 
ATOM     18  C   UNL     1       6.810   3.107   0.512  0.00  0.00    +0.168 C 
ATOM     19  S   UNL     1       7.038   2.960  -1.310  0.00  0.00    -0.029 S 
ATOM     20  O   UNL     1       8.365   2.526  -1.576  0.00  0.00    -0.174 OA
ATOM     21  O   UNL     1       6.551   4.140  -1.934  0.00  0.00    -0.174 OA
ATOM     22  C   UNL     1       5.877   1.576  -1.651  0.00  0.00    +0.192 C 
ENDBRANCH   5  16
TORSDOF 3
