REMARK  Name = ZINC01610482
REMARK  10 active torsions:
REMARK  status: ('A' for Active; 'I' for Inactive)
REMARK    1  A    between atoms: C_1  and  N_2
REMARK    2  A    between atoms: N_2  and  C_3
REMARK    3  A    between atoms: N_2  and  S_4
REMARK    4  A    between atoms: S_4  and  N_7
REMARK    5  A    between atoms: N_7  and  C_8
REMARK    6  A    between atoms: C_11  and  N_15
REMARK    7  A    between atoms: N_15  and  S_16
REMARK    8  A    between atoms: S_16  and  N_19
REMARK    9  A    between atoms: N_19  and  C_20
REMARK   10  A    between atoms: N_19  and  C_21
REMARK                            x       y       z     vdW  Elec       q    Type
REMARK                         _______ _______ _______ _____ _____    ______ ____
ROOT
ATOM      1  C   UNL     1      -1.026  -0.145   2.437  0.00  0.00    +0.069 A 
ATOM      2  C   UNL     1      -2.342  -0.249   2.009  0.00  0.00    +0.048 A 
ATOM      3  C   UNL     1      -3.375   0.098   2.860  0.00  0.00    +0.065 A 
ATOM      4  C   UNL     1      -3.095   0.551   4.143  0.00  0.00    +0.069 A 
ATOM      5  C   UNL     1      -1.779   0.656   4.571  0.00  0.00    +0.048 A 
ATOM      6  C   UNL     1      -0.747   0.304   3.722  0.00  0.00    +0.065 A 
ATOM      7 CL   UNL     1       0.899   0.427   4.260  0.00  0.00    -0.082 Cl
ATOM      8 CL   UNL     1      -5.021  -0.033   2.325  0.00  0.00    -0.082 Cl
ENDROOT
BRANCH   1   9
ATOM      9  N   UNL     1       0.021  -0.497   1.575  0.00  0.00    -0.205 N 
ATOM     10  H   UNL     1       0.819  -0.919   1.929  0.00  0.00    +0.175 HD
BRANCH   9  11
ATOM     11  S   UNL     1      -0.105  -0.192  -0.048  0.00  0.00    +0.111 S 
ATOM     12  O   UNL     1      -1.319  -0.790  -0.480  0.00  0.00    -0.138 OA
ATOM     13  O   UNL     1       1.153  -0.521  -0.621  0.00  0.00    -0.138 OA
BRANCH  11  15
ATOM     14  C   UNL     1       0.883   2.304  -0.376  0.00  0.00    +0.132 C 
ATOM     15  N   UNL     1      -0.293   1.444  -0.226  0.00  0.00    -0.170 NA
ATOM     16  C   UNL     1      -1.636   2.029  -0.238  0.00  0.00    +0.132 C 
ENDBRANCH  11  15
ENDBRANCH   9  11
ENDBRANCH   1   9
BRANCH   4  17
ATOM     17  N   UNL     1      -4.142   0.902   5.005  0.00  0.00    -0.205 N 
ATOM     18  H   UNL     1      -4.976   0.407   4.983  0.00  0.00    +0.175 HD
BRANCH  17  19
ATOM     19  S   UNL     1      -3.957   2.164   6.062  0.00  0.00    +0.111 S 
ATOM     20  O   UNL     1      -5.219   2.363   6.682  0.00  0.00    -0.138 OA
ATOM     21  O   UNL     1      -2.775   1.900   6.806  0.00  0.00    -0.138 OA
BRANCH  19  22
ATOM     22  N   UNL     1      -3.654   3.519   5.159  0.00  0.00    -0.170 NA
ATOM     23  C   UNL     1      -4.765   4.354   4.696  0.00  0.00    +0.132 C 
ATOM     24  C   UNL     1      -2.275   3.882   4.822  0.00  0.00    +0.132 C 
ENDBRANCH  19  22
ENDBRANCH  17  19
ENDBRANCH   4  17
TORSDOF 6
