REMARK  Name = ZINC14905465
REMARK  10 active torsions:
REMARK  status: ('A' for Active; 'I' for Inactive)
REMARK    1  A    between atoms: C_1  and  C_2
REMARK    2  A    between atoms: C_2  and  C_4
REMARK    3  A    between atoms: C_2  and  N_11
REMARK    4  A    between atoms: C_12  and  C_14
REMARK    5  A    between atoms: C_14  and  C_16
REMARK    6  A    between atoms: C_14  and  O_17
REMARK    7  A    between atoms: O_17  and  C_18
REMARK    8  A    between atoms: C_18  and  C_20
REMARK    9  A    between atoms: C_23  and  C_26
REMARK   10  A    between atoms: C_29  and  O_32
REMARK                            x       y       z     vdW  Elec       q    Type
REMARK                         _______ _______ _______ _____ _____    ______ ____
ROOT
ATOM      1  O   UNL     1       4.595   0.558   1.416  0.00  0.00    -0.449 OA
ENDROOT
BRANCH   1   2
ATOM      2  C   UNL     1       3.745   1.447   0.644  0.00  0.00    +0.259 C 
ATOM      3  C   UNL     1       4.253   1.514  -0.798  0.00  0.00    +0.062 C 
BRANCH   2   5
ATOM      4  N   UNL     1       1.362   1.593  -0.002  0.00  0.00    -0.306 N 
ATOM      5  C   UNL     1       2.331   0.926   0.654  0.00  0.00    +0.254 C 
ATOM      6  O   UNL     1       2.066  -0.095   1.254  0.00  0.00    -0.272 OA
ATOM      7  H   UNL     1       1.574   2.409  -0.482  0.00  0.00    +0.149 HD
BRANCH   4   9
ATOM      8  C   UNL     1      -0.729   1.579   1.267  0.00  0.00    +0.033 C 
ATOM      9  C   UNL     1      -0.013   1.086   0.008  0.00  0.00    +0.100 C 
BRANCH   9  10
ATOM     10  C   UNL     1      -0.742   1.585  -1.213  0.00  0.00    -0.027 A 
ATOM     11  C   UNL     1      -0.551   2.883  -1.648  0.00  0.00    +0.008 A 
ATOM     12  C   UNL     1      -1.214   3.340  -2.771  0.00  0.00    +0.038 A 
ATOM     13  C   UNL     1      -2.079   2.501  -3.453  0.00  0.00    +0.123 A 
ATOM     14  C   UNL     1      -2.274   1.203  -3.013  0.00  0.00    +0.038 A 
ATOM     15  C   UNL     1      -1.605   0.746  -1.893  0.00  0.00    +0.008 A 
ATOM     16  F   UNL     1      -2.734   2.949  -4.547  0.00  0.00    -0.205 F 
ENDBRANCH   9  10
ENDBRANCH   4   9
ENDBRANCH   2   5
ENDBRANCH   1   2
BRANCH   1  17
ATOM     17  C   UNL     1       5.658   1.111   2.033  0.00  0.00    +0.340 C 
ATOM     18  O   UNL     1       5.869   2.303   1.928  0.00  0.00    -0.245 OA
BRANCH  17  19
ATOM     19  C   UNL     1       6.565   0.269   2.835  0.00  0.00    +0.059 A 
ATOM     20  C   UNL     1       6.319  -1.101   2.961  0.00  0.00    +0.015 A 
ATOM     21  C   UNL     1       7.169  -1.887   3.706  0.00  0.00    +0.009 A 
ATOM     22  C   UNL     1       8.270  -1.314   4.344  0.00  0.00    -0.018 A 
ATOM     23  C   UNL     1       8.514   0.055   4.224  0.00  0.00    +0.009 A 
ATOM     24  C   UNL     1       7.668   0.842   3.475  0.00  0.00    +0.015 A 
BRANCH  22  25
ATOM     25  C   UNL     1       9.181  -2.160   5.150  0.00  0.00    -0.018 A 
ATOM     26  C   UNL     1      10.285  -1.590   5.785  0.00  0.00    +0.012 A 
ATOM     27  C   UNL     1      11.128  -2.379   6.538  0.00  0.00    +0.046 A 
ATOM     28  C   UNL     1      10.885  -3.741   6.658  0.00  0.00    +0.117 A 
ATOM     29  C   UNL     1       9.790  -4.312   6.023  0.00  0.00    +0.046 A 
ATOM     30  C   UNL     1       8.940  -3.528   5.272  0.00  0.00    +0.012 A 
BRANCH  28  31
ATOM     31  O   UNL     1      11.720  -4.516   7.397  0.00  0.00    -0.507 OA
ATOM     32  H   UNL     1      12.456  -4.891   6.895  0.00  0.00    +0.292 HD
ENDBRANCH  28  31
ENDBRANCH  22  25
ENDBRANCH  17  19
ENDBRANCH   1  17
TORSDOF 8
