REMARK  Name = ZINC43539358
REMARK  7 active torsions:
REMARK  status: ('A' for Active; 'I' for Inactive)
REMARK    1  A    between atoms: C_1  and  C_2
REMARK    2  A    between atoms: C_2  and  C_3
REMARK    3  A    between atoms: C_3  and  C_5
REMARK    4  A    between atoms: C_3  and  N_8
REMARK    5  A    between atoms: C_5  and  N_7
REMARK    6  A    between atoms: C_10  and  C_17
REMARK    7  A    between atoms: C_13  and  C_16
REMARK                            x       y       z     vdW  Elec       q    Type
REMARK                         _______ _______ _______ _____ _____    ______ ____
ROOT
ATOM      1  C   UNL     1      -1.542  -0.508   0.072  0.00  0.00    +0.108 C 
ENDROOT
BRANCH   1   2
ATOM      2  N   UNL     1      -2.168  -0.213   1.367  0.00  0.00    -0.289 NA
ATOM      3  C   UNL     1      -1.465  -0.898   2.461  0.00  0.00    +0.116 C 
ATOM      4  C   UNL     1      -2.112  -0.517   3.795  0.00  0.00    +0.130 C 
ATOM      5  O   UNL     1      -3.503  -0.847   3.756  0.00  0.00    -0.371 OA
ATOM      6  C   UNL     1      -4.220  -0.197   2.702  0.00  0.00    +0.130 C 
ATOM      7  C   UNL     1      -3.593  -0.575   1.357  0.00  0.00    +0.116 C 
ATOM      8  C   UNL     1      -5.683  -0.643   2.729  0.00  0.00    +0.039 C 
ATOM      9  C   UNL     1      -1.949   0.986   4.031  0.00  0.00    +0.039 C 
ENDBRANCH   1   2
BRANCH   1  11
ATOM     10  C   UNL     1      -1.683  -2.977   0.427  0.00  0.00    +0.006 C 
ATOM     11  C   UNL     1      -2.104  -1.819  -0.480  0.00  0.00    +0.022 C 
ENDBRANCH   1  11
BRANCH   1  12
ATOM     12  C   UNL     1      -1.835   0.611  -0.894  0.00  0.00    +0.064 C 
ATOM     13  S   UNL     1      -2.762   1.833  -0.444  0.00  0.00    -0.039 S 
BRANCH  12  14
ATOM     14  N   UNL     1      -1.315   0.581  -2.138  0.00  0.00    -0.354 N 
ATOM     15  H   UNL     1      -0.753  -0.161  -2.411  0.00  0.00    +0.143 HD
ATOM     16  H   UNL     1      -1.504   1.301  -2.760  0.00  0.00    +0.143 HD
ENDBRANCH  12  14
ENDBRANCH   1  12
TORSDOF 4
