REMARK  Name = ZINC12208769
REMARK  7 active torsions:
REMARK  status: ('A' for Active; 'I' for Inactive)
REMARK    1  A    between atoms: C_1  and  C_2
REMARK    2  A    between atoms: C_5  and  N_21
REMARK    3  A    between atoms: C_7  and  S_8
REMARK    4  A    between atoms: S_8  and  N_11
REMARK    5  A    between atoms: C_14  and  C_17
REMARK    6  A    between atoms: C_17  and  O_19
REMARK    7  A    between atoms: O_19  and  C_20
REMARK                            x       y       z     vdW  Elec       q    Type
REMARK                         _______ _______ _______ _____ _____    ______ ____
ROOT
ATOM      1  C   UNL     1       1.892   1.071  -0.509  0.00  0.00    +0.046 C 
ATOM      2  C   UNL     1       0.760   2.052  -0.347  0.00  0.00    -0.024 A 
ATOM      3  C   UNL     1      -0.537   1.592  -0.208  0.00  0.00    +0.007 A 
ATOM      4  C   UNL     1      -1.578   2.488  -0.065  0.00  0.00    +0.025 A 
ATOM      5  C   UNL     1      -1.319   3.853  -0.049  0.00  0.00    +0.053 A 
ATOM      6  C   UNL     1      -0.016   4.312  -0.189  0.00  0.00    +0.053 A 
ATOM      7  C   UNL     1       1.020   3.410  -0.337  0.00  0.00    +0.110 A 
ENDROOT
BRANCH   5   8
ATOM      8  N   UNL     1      -2.369   4.762   0.102  0.00  0.00    -0.207 N 
ATOM      9  C   UNL     1      -3.742   4.406  -0.284  0.00  0.00    +0.131 C 
ATOM     10  C   UNL     1      -4.668   4.568   0.921  0.00  0.00    +0.022 C 
ATOM     11  C   UNL     1      -4.742   6.031   1.351  0.00  0.00    +0.026 C 
ATOM     12  C   UNL     1      -3.410   6.455   1.980  0.00  0.00    +0.189 C 
ATOM     13  S   UNL     1      -2.105   6.281   0.729  0.00  0.00    +0.045 S 
ATOM     14  O   UNL     1      -0.830   6.207   1.352  0.00  0.00    -0.155 OA
ATOM     15  O   UNL     1      -2.339   7.173  -0.352  0.00  0.00    -0.155 OA
ENDBRANCH   5   8
BRANCH   7  16
ATOM     16  S   UNL     1       2.674   3.991  -0.514  0.00  0.00    +0.061 S 
ATOM     17  O   UNL     1       2.607   5.410  -0.523  0.00  0.00    -0.153 OA
ATOM     18  O   UNL     1       3.460   3.271   0.426  0.00  0.00    -0.153 OA
BRANCH  16  19
ATOM     19  N   UNL     1       3.196   3.532  -2.017  0.00  0.00    -0.177 NA
ATOM     20  C   UNL     1       3.989   2.307  -2.193  0.00  0.00    +0.110 C 
ATOM     21  C   UNL     1       5.274   2.651  -2.943  0.00  0.00    +0.032 C 
ATOM     22  C   UNL     1       4.924   3.366  -4.250  0.00  0.00    +0.100 C 
ATOM     23  C   UNL     1       4.183   4.668  -3.938  0.00  0.00    +0.032 C 
ATOM     24  C   UNL     1       2.880   4.344  -3.200  0.00  0.00    +0.110 C 
BRANCH  22  25
ATOM     25  C   UNL     1       6.189   3.678  -5.007  0.00  0.00    +0.310 C 
ATOM     26  O   UNL     1       6.470   4.823  -5.269  0.00  0.00    -0.251 OA
BRANCH  25  27
ATOM     27  O   UNL     1       7.005   2.683  -5.389  0.00  0.00    -0.468 OA
ATOM     28  C   UNL     1       8.207   3.057  -6.114  0.00  0.00    +0.280 C 
ENDBRANCH  25  27
ENDBRANCH  22  25
ENDBRANCH  16  19
ENDBRANCH   7  16
TORSDOF 5
