REMARK  Name = ZINC36547300
REMARK  10 active torsions:
REMARK  status: ('A' for Active; 'I' for Inactive)
REMARK    1  A    between atoms: C_1  and  C_2
REMARK    2  A    between atoms: C_5  and  S_8
REMARK    3  A    between atoms: S_8  and  C_11
REMARK    4  A    between atoms: C_11  and  N_12
REMARK    5  A    between atoms: C_13  and  C_15
REMARK    6  A    between atoms: C_15  and  C_17
REMARK    7  A    between atoms: C_15  and  N_24
REMARK    8  A    between atoms: C_20  and  O_23
REMARK    9  A    between atoms: N_24  and  C_25
REMARK   10  A    between atoms: C_32  and  C_34
REMARK                            x       y       z     vdW  Elec       q    Type
REMARK                         _______ _______ _______ _____ _____    ______ ____
ROOT
ATOM      1  C   UNL     1       2.694  -4.846   3.747  0.00  0.00    +0.197 C 
ENDROOT
BRANCH   1   2
ATOM      2  C   UNL     1       3.936  -4.305   3.087  0.00  0.00    -0.018 A 
ATOM      3  C   UNL     1       4.843  -5.173   2.507  0.00  0.00    +0.009 A 
ATOM      4  C   UNL     1       5.982  -4.679   1.901  0.00  0.00    +0.046 A 
ATOM      5  C   UNL     1       6.216  -3.312   1.875  0.00  0.00    +0.117 A 
ATOM      6  C   UNL     1       5.304  -2.444   2.458  0.00  0.00    +0.046 A 
ATOM      7  C   UNL     1       4.163  -2.942   3.057  0.00  0.00    +0.009 A 
BRANCH   5   8
ATOM      8  O   UNL     1       7.336  -2.824   1.281  0.00  0.00    -0.507 OA
ATOM      9  H   UNL     1       7.227  -2.623   0.341  0.00  0.00    +0.292 HD
ENDBRANCH   5   8
ENDBRANCH   1   2
BRANCH   1  11
ATOM     10  N   UNL     1       0.803  -4.475   2.196  0.00  0.00    -0.294 N 
ATOM     11  C   UNL     1       1.729  -5.320   2.691  0.00  0.00    +0.240 C 
ATOM     12  O   UNL     1       1.786  -6.462   2.285  0.00  0.00    -0.273 OA
ATOM     13  H   UNL     1       0.757  -3.562   2.521  0.00  0.00    +0.150 HD
BRANCH  10  14
ATOM     14  C   UNL     1      -0.135  -4.936   1.169  0.00  0.00    +0.278 C 
BRANCH  14  15
ATOM     15  S   UNL     1      -1.677  -5.477   1.958  0.00  0.00    +0.013 S 
ATOM     16  O   UNL     1      -1.391  -6.325   3.062  0.00  0.00    -0.168 OA
ATOM     17  O   UNL     1      -2.620  -5.868   0.970  0.00  0.00    -0.168 OA
BRANCH  15  22
ATOM     18  C   UNL     1      -4.002  -0.482   4.416  0.00  0.00    +0.044 C 
ATOM     19  C   UNL     1      -3.421  -1.729   3.802  0.00  0.00    -0.050 A 
ATOM     20  C   UNL     1      -3.750  -2.079   2.506  0.00  0.00    +0.005 A 
ATOM     21  C   UNL     1      -3.217  -3.224   1.942  0.00  0.00    +0.027 A 
ATOM     22  C   UNL     1      -2.355  -4.018   2.675  0.00  0.00    +0.090 A 
ATOM     23  C   UNL     1      -2.025  -3.667   3.971  0.00  0.00    +0.027 A 
ATOM     24  C   UNL     1      -2.555  -2.521   4.533  0.00  0.00    +0.005 A 
ENDBRANCH  15  22
ENDBRANCH  14  15
ENDBRANCH  10  14
ENDBRANCH   1  11
BRANCH   1  25
ATOM     25  N   UNL     1       3.053  -5.968   4.618  0.00  0.00    -0.253 N 
ATOM     26  C   UNL     1       3.791  -5.752   5.726  0.00  0.00    +0.235 C 
ATOM     27  O   UNL     1       4.175  -6.690   6.391  0.00  0.00    -0.274 OA
BRANCH  25  28
ATOM     28  C   UNL     1       2.631  -7.264   4.301  0.00  0.00    +0.056 A 
ATOM     29  C   UNL     1       3.515  -8.161   3.716  0.00  0.00    +0.025 A 
ATOM     30  C   UNL     1       3.095  -9.439   3.404  0.00  0.00    +0.002 A 
ATOM     31  C   UNL     1       1.795  -9.827   3.674  0.00  0.00    +0.002 A 
ATOM     32  C   UNL     1       0.911  -8.937   4.256  0.00  0.00    +0.022 A 
ATOM     33  C   UNL     1       1.327  -7.658   4.576  0.00  0.00    +0.062 A 
ATOM     34 CL   UNL     1       0.219  -6.544   5.314  0.00  0.00    -0.082 Cl
ENDBRANCH  25  28
BRANCH  26  35
ATOM     35  C   UNL     1       4.138  -4.344   6.136  0.00  0.00    +0.204 C 
ATOM     36 CL   UNL     1       5.116  -4.384   7.650  0.00  0.00    -0.116 Cl
ENDBRANCH  26  35
ENDBRANCH   1  25
TORSDOF 9
