REMARK  Name = ZINC21240880
REMARK  10 active torsions:
REMARK  status: ('A' for Active; 'I' for Inactive)
REMARK    1  A    between atoms: C_1  and  C_2
REMARK    2  A    between atoms: C_2  and  C_3
REMARK    3  A    between atoms: C_6  and  C_9
REMARK    4  A    between atoms: C_14  and  C_24
REMARK    5  A    between atoms: C_27  and  O_33
REMARK    6  A    between atoms: C_28  and  O_30
REMARK    7  A    between atoms: O_30  and  C_31
REMARK    8  A    between atoms: C_31  and  C_32
REMARK    9  A    between atoms: O_33  and  C_34
REMARK   10  A    between atoms: C_34  and  C_35
REMARK                            x       y       z     vdW  Elec       q    Type
REMARK                         _______ _______ _______ _____ _____    ______ ____
ROOT
ATOM      1  C   UNL     1      -0.273   1.356  -0.885  0.00  0.00    +0.032 C 
ATOM      2  C   UNL     1      -1.729   0.900  -0.964  0.00  0.00    +0.059 C 
ATOM      3  C   UNL     1      -2.529   1.519   0.170  0.00  0.00    +0.017 C 
ATOM      4  C   UNL     1      -1.948   1.766   1.357  0.00  0.00    +0.036 C 
ATOM      5  C   UNL     1      -2.624   2.370   2.564  0.00  0.00    +0.136 C 
ATOM      6  N   UNL     1      -4.066   2.450   2.470  0.00  0.00    -0.331 N 
ATOM      7  C   UNL     1      -4.679   3.261   1.516  0.00  0.00    +0.049 A 
ATOM      8  C   UNL     1      -5.446   4.356   1.880  0.00  0.00    +0.025 A 
ATOM      9  C   UNL     1      -5.996   5.158   0.895  0.00  0.00    +0.002 A 
ATOM     10  C   UNL     1      -5.780   4.875  -0.441  0.00  0.00    +0.002 A 
ATOM     11  C   UNL     1      -5.029   3.771  -0.808  0.00  0.00    +0.025 A 
ATOM     12  C   UNL     1      -4.497   2.955   0.175  0.00  0.00    +0.052 A 
ATOM     13  N   UNL     1      -3.830   1.772  -0.122  0.00  0.00    -0.316 N 
ATOM     14  C   UNL     1      -0.576   1.468   1.559  0.00  0.00    +0.163 C 
ATOM     15  O   UNL     1      -0.079   1.679   2.648  0.00  0.00    -0.292 OA
ATOM     16  C   UNL     1       0.284   0.902   0.469  0.00  0.00    +0.088 C 
ATOM     17  H   UNL     1      -4.695   1.866   3.157  0.00  0.00    +0.147 HD
ATOM     18  H   UNL     1      -4.437   1.009  -0.631  0.00  0.00    +0.152 HD
ENDROOT
BRANCH   1  22
ATOM     19  C   UNL     1       1.980  -0.422  -4.048  0.00  0.00    -0.048 A 
ATOM     20  C   UNL     1       1.917   0.954  -3.933  0.00  0.00    +0.004 A 
ATOM     21  C   UNL     1       1.188   1.529  -2.910  0.00  0.00    +0.004 A 
ATOM     22  C   UNL     1       0.521   0.729  -2.001  0.00  0.00    -0.043 A 
ATOM     23  C   UNL     1       0.589  -0.647  -2.113  0.00  0.00    +0.004 A 
ATOM     24  C   UNL     1       1.314  -1.223  -3.139  0.00  0.00    +0.004 A 
BRANCH  19  26
ATOM     25  C   UNL     1       4.215  -1.278  -4.699  0.00  0.00    +0.009 C 
ATOM     26  C   UNL     1       2.775  -1.050  -5.164  0.00  0.00    +0.032 C 
ENDBRANCH  19  26
ENDBRANCH   1  22
BRANCH   5  27
ATOM     27  C   UNL     1      -2.081   3.761   2.769  0.00  0.00    -0.019 A 
ATOM     28  C   UNL     1      -2.287   4.731   1.805  0.00  0.00    +0.009 A 
ATOM     29  C   UNL     1      -1.796   6.010   1.991  0.00  0.00    +0.050 A 
ATOM     30  C   UNL     1      -1.085   6.319   3.139  0.00  0.00    +0.162 A 
ATOM     31  C   UNL     1      -0.873   5.342   4.107  0.00  0.00    +0.162 A 
ATOM     32  C   UNL     1      -1.373   4.064   3.917  0.00  0.00    +0.055 A 
BRANCH  31  33
ATOM     33  O   UNL     1      -0.176   5.641   5.236  0.00  0.00    -0.489 OA
BRANCH  33  34
ATOM     34  C   UNL     1       0.003   4.588   6.185  0.00  0.00    +0.226 C 
ATOM     35  C   UNL     1       0.804   5.110   7.380  0.00  0.00    +0.048 C 
ENDBRANCH  33  34
ENDBRANCH  31  33
BRANCH  30  36
ATOM     36  O   UNL     1      -0.597   7.576   3.321  0.00  0.00    -0.489 OA
BRANCH  36  37
ATOM     37  C   UNL     1      -0.854   8.527   2.286  0.00  0.00    +0.226 C 
ATOM     38  C   UNL     1      -0.232   9.873   2.665  0.00  0.00    +0.048 C 
ENDBRANCH  36  37
ENDBRANCH  30  36
ENDBRANCH   5  27
TORSDOF 7
