REMARK  Name = ZINC31557968
REMARK  11 active torsions:
REMARK  status: ('A' for Active; 'I' for Inactive)
REMARK    1  A    between atoms: C_1  and  C_2
REMARK    2  A    between atoms: C_3  and  C_35
REMARK    3  A    between atoms: N_4  and  C_28
REMARK    4  A    between atoms: C_5  and  N_9
REMARK    5  A    between atoms: C_6  and  C_7
REMARK    6  A    between atoms: C_10  and  C_12
REMARK    7  A    between atoms: C_12  and  N_13
REMARK    8  A    between atoms: C_17  and  C_19
REMARK    9  A    between atoms: N_21  and  C_22
REMARK   10  A    between atoms: C_22  and  C_23
REMARK   11  A    between atoms: C_28  and  C_29
REMARK                            x       y       z     vdW  Elec       q    Type
REMARK                         _______ _______ _______ _____ _____    ______ ____
ROOT
ATOM      1  N   UNL     1       0.166  -3.618   1.536  0.00  0.00    -0.272 N 
ATOM      2  C   UNL     1       0.259  -4.820   0.934  0.00  0.00    +0.202 C 
ATOM      3  O   UNL     1       0.498  -4.887  -0.253  0.00  0.00    -0.278 OA
ATOM      4  H   UNL     1       0.061  -3.564   2.499  0.00  0.00    +0.156 HD
ENDROOT
BRANCH   1   9
ATOM      5  C   UNL     1      -0.205  -0.272  -2.233  0.00  0.00    +0.047 C 
ATOM      6  C   UNL     1       0.068  -0.922  -0.901  0.00  0.00    -0.011 A 
ATOM      7  C   UNL     1       0.588  -0.332   0.187  0.00  0.00    +0.022 A 
ATOM      8  N   UNL     1       0.682  -1.250   1.199  0.00  0.00    -0.327 N 
ATOM      9  C   UNL     1       0.222  -2.457   0.779  0.00  0.00    +0.124 A 
ATOM     10  C   UNL     1      -0.189  -2.321  -0.540  0.00  0.00    +0.095 A 
ATOM     11  C   UNL     1       1.004   1.114   0.281  0.00  0.00    +0.064 C 
BRANCH  10  12
ATOM     12  C   UNL     1      -0.747  -3.340  -1.378  0.00  0.00    +0.103 C 
ATOM     13  N   UNL     1      -1.190  -4.147  -2.043  0.00  0.00    -0.191 NA
ENDBRANCH  10  12
BRANCH   8  14
ATOM     14  C   UNL     1       1.204  -0.972   2.539  0.00  0.00    +0.158 C 
BRANCH  14  15
ATOM     15  C   UNL     1       0.097  -0.435   3.408  0.00  0.00    -0.028 A 
ATOM     16  C   UNL     1      -0.198   0.916   3.397  0.00  0.00    +0.005 A 
ATOM     17  C   UNL     1      -1.214   1.408   4.194  0.00  0.00    +0.000 A 
ATOM     18  C   UNL     1      -1.936   0.550   5.003  0.00  0.00    +0.000 A 
ATOM     19  C   UNL     1      -1.642  -0.801   5.013  0.00  0.00    +0.000 A 
ATOM     20  C   UNL     1      -0.628  -1.294   4.213  0.00  0.00    +0.005 A 
ENDBRANCH  14  15
ENDBRANCH   8  14
ENDBRANCH   1   9
BRANCH   2  21
ATOM     21  C   UNL     1       0.065  -6.081   1.736  0.00  0.00    +0.020 C 
BRANCH  21  22
ATOM     22  N   UNL     1       0.113  -7.244   0.839  0.00  0.00    +0.393 N 
ATOM     23  C   UNL     1       1.494  -7.443   0.331  0.00  0.00    -0.077 C 
ATOM     24  C   UNL     1       1.506  -8.934  -0.090  0.00  0.00    -0.020 C 
ATOM     25  C   UNL     1       0.642  -9.608   1.000  0.00  0.00    -0.008 C 
ATOM     26  C   UNL     1      -0.225  -8.476   1.584  0.00  0.00    +0.020 C 
ATOM     27  H   UNL     1      -0.527  -7.116   0.069  0.00  0.00    -0.080 HD
BRANCH  26  28
ATOM     28  C   UNL     1      -1.685  -8.802   1.402  0.00  0.00    +0.200 C 
ATOM     29  O   UNL     1      -2.386  -8.085   0.721  0.00  0.00    -0.278 OA
ATOM     30  N   UNL     1      -2.211  -9.891   1.997  0.00  0.00    -0.310 N 
ATOM     31  H   UNL     1      -1.650 -10.465   2.542  0.00  0.00    +0.149 HD
BRANCH  30  32
ATOM     32  C   UNL     1      -3.631 -10.208   1.821  0.00  0.00    +0.178 C 
BRANCH  32  33
ATOM     33  C   UNL     1      -3.963 -11.465   2.583  0.00  0.00    +0.122 A 
ATOM     34  C   UNL     1      -4.385 -11.523   3.859  0.00  0.00    +0.046 A 
ATOM     35  C   UNL     1      -4.575 -12.890   4.166  0.00  0.00    +0.041 A 
ATOM     36  C   UNL     1      -4.259 -13.585   3.059  0.00  0.00    +0.195 A 
ATOM     37  O   UNL     1      -3.894 -12.717   2.102  0.00  0.00    -0.466 OA
ENDBRANCH  32  33
ENDBRANCH  30  32
ENDBRANCH  26  28
ENDBRANCH  21  22
ENDBRANCH   2  21
TORSDOF 9
