REMARK  Name = ZINC36047840
REMARK  9 active torsions:
REMARK  status: ('A' for Active; 'I' for Inactive)
REMARK    1  A    between atoms: C_1  and  C_2
REMARK    2  A    between atoms: C_5  and  N_8
REMARK    3  A    between atoms: C_9  and  C_11
REMARK    4  A    between atoms: C_15  and  S_17
REMARK    5  A    between atoms: S_17  and  N_20
REMARK    6  A    between atoms: N_20  and  C_21
REMARK    7  A    between atoms: C_21  and  C_22
REMARK    8  A    between atoms: C_21  and  C_23
REMARK    9  A    between atoms: C_21  and  C_24
REMARK                            x       y       z     vdW  Elec       q    Type
REMARK                         _______ _______ _______ _____ _____    ______ ____
ROOT
ATOM      1  C   UNL     1       0.550  -6.677   1.085  0.00  0.00    +0.039 A 
ATOM      2  C   UNL     1       0.336  -7.271  -0.161  0.00  0.00    +0.014 A 
ATOM      3  C   UNL     1       0.236  -8.643  -0.259  0.00  0.00    +0.023 A 
ATOM      4  C   UNL     1       0.349  -9.432   0.874  0.00  0.00    +0.067 A 
ATOM      5  C   UNL     1       0.562  -8.849   2.112  0.00  0.00    +0.124 A 
ATOM      6  C   UNL     1       0.669  -7.478   2.223  0.00  0.00    +0.043 A 
ATOM      7 CL   UNL     1       0.222 -11.158   0.741  0.00  0.00    -0.082 Cl
ENDROOT
BRANCH   1   9
ATOM      8  N   UNL     1       0.543  -4.438   0.098  0.00  0.00    -0.282 N 
ATOM      9  C   UNL     1       0.657  -5.208   1.198  0.00  0.00    +0.248 C 
ATOM     10  O   UNL     1       0.849  -4.694   2.283  0.00  0.00    -0.270 OA
ATOM     11  H   UNL     1       0.317  -4.841  -0.755  0.00  0.00    +0.155 HD
BRANCH   8  16
ATOM     12  C   UNL     1       1.382   1.161   0.456  0.00  0.00    +0.044 C 
ATOM     13  C   UNL     1       1.159  -0.327   0.361  0.00  0.00    -0.050 A 
ATOM     14  C   UNL     1       1.907  -1.188   1.142  0.00  0.00    +0.005 A 
ATOM     15  C   UNL     1       1.706  -2.551   1.057  0.00  0.00    +0.023 A 
ATOM     16  C   UNL     1       0.749  -3.057   0.186  0.00  0.00    +0.034 A 
ATOM     17  C   UNL     1      -0.001  -2.190  -0.597  0.00  0.00    +0.023 A 
ATOM     18  C   UNL     1       0.203  -0.827  -0.504  0.00  0.00    +0.005 A 
ENDBRANCH   8  16
ENDBRANCH   1   9
BRANCH   5  19
ATOM     19  S   UNL     1       0.703  -9.860   3.547  0.00  0.00    +0.060 S 
ATOM     20  O   UNL     1       1.645 -10.878   3.236  0.00  0.00    -0.153 OA
ATOM     21  O   UNL     1       0.870  -8.980   4.650  0.00  0.00    -0.153 OA
BRANCH  19  22
ATOM     22  N   UNL     1      -0.756 -10.615   3.761  0.00  0.00    -0.185 NA
ATOM     23  H   UNL     1      -0.822 -11.578   3.668  0.00  0.00    +0.149 HD
BRANCH  22  24
ATOM     24  C   UNL     1      -1.946  -9.827   4.088  0.00  0.00    +0.032 C 
ATOM     25  C   UNL     1      -2.297  -8.918   2.909  0.00  0.00    +0.029 C 
ATOM     26  C   UNL     1      -3.119 -10.768   4.372  0.00  0.00    +0.029 C 
ATOM     27  C   UNL     1      -1.668  -8.972   5.326  0.00  0.00    +0.029 C 
ENDBRANCH  22  24
ENDBRANCH  19  22
ENDBRANCH   5  19
TORSDOF 5
