REMARK  Name = ZINC16748897
REMARK  12 active torsions:
REMARK  status: ('A' for Active; 'I' for Inactive)
REMARK    1  A    between atoms: C_1  and  C_2
REMARK    2  A    between atoms: C_2  and  C_3
REMARK    3  A    between atoms: C_3  and  C_4
REMARK    4  A    between atoms: C_4  and  N_5
REMARK    5  A    between atoms: C_9  and  C_11
REMARK    6  A    between atoms: C_11  and  O_12
REMARK    7  A    between atoms: O_12  and  C_13
REMARK    8  A    between atoms: C_13  and  C_15
REMARK    9  A    between atoms: C_15  and  N_16
REMARK   10  A    between atoms: C_17  and  C_19
REMARK   11  A    between atoms: C_19  and  N_20
REMARK   12  A    between atoms: C_21  and  C_23
REMARK                            x       y       z     vdW  Elec       q    Type
REMARK                         _______ _______ _______ _____ _____    ______ ____
ROOT
ATOM      1  C   UNL     1       4.797   0.282  -0.042  0.00  0.00    +0.225 C 
ENDROOT
BRANCH   1   2
ATOM      2  N   UNL     1       3.671   1.218  -0.026  0.00  0.00    -0.304 N 
ATOM      3  C   UNL     1       2.406   0.752  -0.017  0.00  0.00    +0.231 C 
ATOM      4  O   UNL     1       2.201  -0.443  -0.021  0.00  0.00    -0.274 OA
ATOM      5  H   UNL     1       3.835   2.174  -0.023  0.00  0.00    +0.149 HD
BRANCH   3   6
ATOM      6  C   UNL     1       1.248   1.716  -0.001  0.00  0.00    +0.200 C 
BRANCH   6   7
ATOM      7  N   UNL     1      -0.011   0.966   0.007  0.00  0.00    -0.303 N 
ATOM      8  C   UNL     1      -1.187   1.624   0.017  0.00  0.00    +0.246 C 
ATOM      9  O   UNL     1      -1.204   2.839   0.023  0.00  0.00    -0.270 OA
ATOM     10  H   UNL     1       0.002  -0.004   0.002  0.00  0.00    +0.150 HD
BRANCH   8  11
ATOM     11  C   UNL     1      -2.456   0.868   0.018  0.00  0.00    +0.055 A 
ATOM     12  C   UNL     1      -2.441  -0.529   0.011  0.00  0.00    +0.016 A 
ATOM     13  C   UNL     1      -3.628  -1.228   0.013  0.00  0.00    +0.021 A 
ATOM     14  C   UNL     1      -4.837  -0.550   0.023  0.00  0.00    +0.042 A 
ATOM     15  C   UNL     1      -4.860   0.834   0.031  0.00  0.00    +0.040 A 
ATOM     16  C   UNL     1      -3.678   1.547   0.034  0.00  0.00    +0.054 A 
ATOM     17 CL   UNL     1      -3.708   3.283   0.051  0.00  0.00    -0.083 Cl
ATOM     18 CL   UNL     1      -6.327  -1.440   0.025  0.00  0.00    -0.083 Cl
ENDBRANCH   8  11
ENDBRANCH   6   7
ENDBRANCH   3   6
ENDBRANCH   1   2
BRANCH   1  19
ATOM     19  C   UNL     1       6.091   1.053  -0.050  0.00  0.00    +0.325 C 
ATOM     20  O   UNL     1       6.075   2.261  -0.044  0.00  0.00    -0.249 OA
BRANCH  19  21
ATOM     21  O   UNL     1       7.263   0.398  -0.065  0.00  0.00    -0.454 OA
BRANCH  21  22
ATOM     22  C   UNL     1       8.470   1.205  -0.072  0.00  0.00    +0.328 C 
BRANCH  22  27
ATOM     23  N   UNL     1      13.233   0.561  -0.121  0.00  0.00    -0.299 N 
ATOM     24  C   UNL     1      11.995   0.029  -0.112  0.00  0.00    +0.306 C 
ATOM     25  O   UNL     1      11.852  -1.178  -0.117  0.00  0.00    -0.252 OA
ATOM     26  N   UNL     1      10.915   0.835  -0.098  0.00  0.00    -0.237 N 
ATOM     27  C   UNL     1       9.677   0.303  -0.089  0.00  0.00    +0.258 C 
ATOM     28  O   UNL     1       9.535  -0.901  -0.094  0.00  0.00    -0.272 OA
ATOM     29  H   UNL     1      13.348   1.524  -0.117  0.00  0.00    +0.150 HD
ATOM     30  H   UNL     1      11.030   1.799  -0.094  0.00  0.00    +0.159 HD
BRANCH  23  31
ATOM     31  C   UNL     1      14.407  -0.316  -0.137  0.00  0.00    +0.106 C 
BRANCH  31  32
ATOM     32  C   UNL     1      15.679   0.535  -0.145  0.00  0.00    +0.018 C 
BRANCH  32  34
ATOM     33  C   UNL     1      18.177   0.470  -0.169  0.00  0.00    +0.004 C 
ATOM     34  C   UNL     1      16.905  -0.380  -0.161  0.00  0.00    -0.002 C 
ENDBRANCH  32  34
ENDBRANCH  31  32
ENDBRANCH  23  31
ENDBRANCH  22  27
ENDBRANCH  21  22
ENDBRANCH  19  21
ENDBRANCH   1  19
TORSDOF 11
