REMARK  Name = ZINC38556203
REMARK  7 active torsions:
REMARK  status: ('A' for Active; 'I' for Inactive)
REMARK    1  A    between atoms: C_4  and  C_7
REMARK    2  A    between atoms: C_9  and  C_13
REMARK    3  A    between atoms: C_17  and  S_21
REMARK    4  A    between atoms: N_19  and  N_20
REMARK    5  A    between atoms: S_21  and  C_22
REMARK    6  A    between atoms: C_22  and  C_23
REMARK    7  A    between atoms: C_23  and  C_25
REMARK                            x       y       z     vdW  Elec       q    Type
REMARK                         _______ _______ _______ _____ _____    ______ ____
ROOT
ATOM      1  C   UNL     1       5.782  -3.012   1.181  0.00  0.00    +0.244 C 
ATOM      2  N   UNL     1       5.496  -2.231   2.392  0.00  0.00    -0.167 NA
ATOM      3  N   UNL     1       6.456  -2.242   3.168  0.00  0.00    -0.159 NA
ATOM      4  C   UNL     1       7.569  -3.033   2.625  0.00  0.00    +0.272 C 
ATOM      5  N   UNL     1       7.256  -3.186   1.180  0.00  0.00    -0.183 NA
ENDROOT
BRANCH   1   8
ATOM      6  C   UNL     1       3.699  -0.689  -0.037  0.00  0.00    +0.091 C 
ATOM      7  C   UNL     1       3.832  -2.029  -0.051  0.00  0.00    +0.035 C 
ATOM      8  C   UNL     1       5.335  -2.245  -0.065  0.00  0.00    +0.195 C 
ATOM      9  N   UNL     1       5.871  -0.874  -0.056  0.00  0.00    -0.176 NA
ATOM     10  N   UNL     1       4.919  -0.090  -0.047  0.00  0.00    -0.154 NA
BRANCH   6  14
ATOM     11  C   UNL     1      -0.017   1.379   0.010  0.00  0.00    +0.000 A 
ATOM     12  C   UNL     1       1.169   2.092   0.002  0.00  0.00    +0.001 A 
ATOM     13  C   UNL     1       2.377   1.426  -0.013  0.00  0.00    +0.010 A 
ATOM     14  C   UNL     1       2.402   0.033  -0.021  0.00  0.00    +0.002 A 
ATOM     15  C   UNL     1       1.205  -0.680  -0.013  0.00  0.00    +0.010 A 
ATOM     16  C   UNL     1       0.002  -0.004   0.002  0.00  0.00    +0.001 A 
ENDBRANCH   6  14
ENDBRANCH   1   8
BRANCH   5  17
ATOM     17  N   UNL     1       7.624  -4.509   0.703  0.00  0.00    -0.263 NA
ATOM     18  H   UNL     1       8.626  -4.628   0.702  0.00  0.00    +0.137 HD
ATOM     19  H   UNL     1       7.175  -5.229   1.250  0.00  0.00    +0.137 HD
ENDBRANCH   5  17
BRANCH   4  20
ATOM     20  S   UNL     1       9.138  -2.149   2.846  0.00  0.00    -0.108 S 
BRANCH  20  21
ATOM     21  C   UNL     1       8.887  -0.583   1.967  0.00  0.00    +0.152 C 
BRANCH  21  22
ATOM     22  C   UNL     1      10.133   0.258   2.074  0.00  0.00    +0.173 C 
ATOM     23  O   UNL     1      11.095  -0.158   2.683  0.00  0.00    -0.291 OA
BRANCH  22  24
ATOM     24  C   UNL     1      10.182   1.585   1.439  0.00  0.00    +0.018 A 
ATOM     25  C   UNL     1       9.072   2.072   0.741  0.00  0.00    +0.011 A 
ATOM     26  C   UNL     1       9.126   3.316   0.149  0.00  0.00    +0.001 A 
ATOM     27  C   UNL     1      10.274   4.083   0.245  0.00  0.00    +0.000 A 
ATOM     28  C   UNL     1      11.376   3.608   0.934  0.00  0.00    +0.001 A 
ATOM     29  C   UNL     1      11.336   2.368   1.536  0.00  0.00    +0.011 A 
ENDBRANCH  22  24
ENDBRANCH  21  22
ENDBRANCH  20  21
ENDBRANCH   4  20
TORSDOF 7
