REMARK  Name = ZINC39545819
REMARK  7 active torsions:
REMARK  status: ('A' for Active; 'I' for Inactive)
REMARK    1  A    between atoms: C_1  and  C_2
REMARK    2  A    between atoms: C_2  and  O_3
REMARK    3  A    between atoms: O_3  and  C_4
REMARK    4  A    between atoms: C_6  and  C_18
REMARK    5  A    between atoms: N_20  and  S_21
REMARK    6  A    between atoms: S_21  and  O_24
REMARK    7  A    between atoms: O_24  and  C_25
REMARK                            x       y       z     vdW  Elec       q    Type
REMARK                         _______ _______ _______ _____ _____    ______ ____
ROOT
ATOM      1  C   UNL     1       0.870  -1.806  -1.286  0.00  0.00    +0.134 C 
ATOM      2  C   UNL     1       1.652  -2.485  -2.388  0.00  0.00    +0.107 C 
ATOM      3  C   UNL     1       1.558  -3.984  -2.047  0.00  0.00    +0.154 C 
ATOM      4  N   UNL     1       0.780  -4.020  -0.798  0.00  0.00    -0.367 NA
ATOM      5  C   UNL     1       0.417  -2.710  -0.453  0.00  0.00    +0.113 C 
ATOM      6  N   UNL     1      -0.387  -2.467   0.688  0.00  0.00    -0.301 N 
ATOM      7  C   UNL     1      -1.358  -3.449   0.944  0.00  0.00    +0.037 A 
ATOM      8  C   UNL     1      -2.273  -3.262   1.971  0.00  0.00    +0.023 A 
ATOM      9  C   UNL     1      -3.222  -4.231   2.229  0.00  0.00    +0.002 A 
ATOM     10  C   UNL     1      -3.256  -5.383   1.464  0.00  0.00    +0.000 A 
ATOM     11  C   UNL     1      -2.347  -5.567   0.440  0.00  0.00    +0.007 A 
ATOM     12  C   UNL     1      -1.394  -4.599   0.168  0.00  0.00    -0.010 A 
ATOM     13  C   UNL     1      -0.436  -4.819  -0.979  0.00  0.00    +0.124 C 
ATOM     14  H   UNL     1      -0.275  -1.683   1.248  0.00  0.00    +0.153 HD
ATOM     15  H   UNL     1       1.342  -4.416  -0.059  0.00  0.00    +0.129 HD
ENDROOT
BRANCH   3  16
ATOM     16  C   UNL     1       0.838  -4.730  -3.141  0.00  0.00    +0.267 C 
ATOM     17  O   UNL     1       0.054  -4.146  -3.858  0.00  0.00    -0.271 OA
ATOM     18  N   UNL     1       1.066  -6.046  -3.322  0.00  0.00    -0.072 N 
ATOM     19 BR   UNL     1       2.263  -6.937  -2.227  0.00  0.00    +0.067 Br
BRANCH  18  20
ATOM     20  S   UNL     1       0.276  -6.866  -4.524  0.00  0.00    +0.222 S 
ATOM     21  O   UNL     1       0.260  -8.234  -4.140  0.00  0.00    -0.114 OA
ATOM     22  O   UNL     1      -0.913  -6.138  -4.798  0.00  0.00    -0.114 OA
BRANCH  20  23
ATOM     23  O   UNL     1       1.140  -6.775  -5.774  0.00  0.00    -0.331 OA
BRANCH  23  24
ATOM     24  C   UNL     1       2.235  -7.578  -5.749  0.00  0.00    +0.158 A 
ATOM     25  C   UNL     1       3.431  -7.107  -5.226  0.00  0.00    +0.048 A 
ATOM     26  C   UNL     1       4.543  -7.926  -5.201  0.00  0.00    +0.004 A 
ATOM     27  C   UNL     1       4.465  -9.215  -5.697  0.00  0.00    +0.000 A 
ATOM     28  C   UNL     1       3.275  -9.686  -6.219  0.00  0.00    +0.004 A 
ATOM     29  C   UNL     1       2.158  -8.873  -6.240  0.00  0.00    +0.048 A 
ENDBRANCH  23  24
ENDBRANCH  20  23
ENDBRANCH  18  20
ENDBRANCH   3  16
BRANCH   1  30
ATOM     30  O   UNL     1       0.672  -0.465  -1.175  0.00  0.00    -0.493 OA
BRANCH  30  32
ATOM     31  C   UNL     1      -0.017   1.528   0.006  0.00  0.00    +0.048 C 
ATOM     32  C   UNL     1       0.024  -0.001   0.012  0.00  0.00    +0.225 C 
ENDBRANCH  30  32
ENDBRANCH   1  30
TORSDOF 6
