REMARK  Name = ZINC08836680
REMARK  8 active torsions:
REMARK  status: ('A' for Active; 'I' for Inactive)
REMARK    1  A    between atoms: C_1  and  C_2
REMARK    2  A    between atoms: C_2  and  C_23
REMARK    3  A    between atoms: N_3  and  N_4
REMARK    4  A    between atoms: C_5  and  C_7
REMARK    5  A    between atoms: C_7  and  N_53
REMARK    6  A    between atoms: N_10  and  S_13
REMARK    7  A    between atoms: S_13  and  C_16
REMARK    8  A    between atoms: C_26  and  O_29
REMARK                            x       y       z     vdW  Elec       q    Type
REMARK                         _______ _______ _______ _____ _____    ______ ____
ROOT
ATOM      1  C   UNL     1      -0.677  -0.318  -2.717  0.00  0.00    -0.061 C 
ATOM      2  C   UNL     1       0.116  -1.170  -1.720  0.00  0.00    +0.091 C 
ATOM      3  N   UNL     1      -0.246  -0.759  -0.355  0.00  0.00    -0.180 NA
ATOM      4  C   UNL     1      -0.192   0.674  -0.024  0.00  0.00    +0.091 C 
ATOM      5  C   UNL     1      -0.973   1.454  -1.087  0.00  0.00    -0.061 C 
ATOM      6  N   UNL     1      -0.432   1.110  -2.420  0.00  0.00    +0.387 N 
ATOM      7  H   UNL     1       0.581   1.282  -2.423  0.00  0.00    -0.081 HD
ENDROOT
BRANCH   3   8
ATOM      8  S   UNL     1      -0.709  -1.877   0.775  0.00  0.00    +0.061 S 
ATOM      9  O   UNL     1      -1.497  -1.184   1.733  0.00  0.00    -0.153 OA
ATOM     10  O   UNL     1      -1.197  -3.002   0.057  0.00  0.00    -0.153 OA
BRANCH   8  11
ATOM     11  C   UNL     1       0.749  -2.407   1.610  0.00  0.00    +0.106 A 
ATOM     12  C   UNL     1       1.462  -3.492   1.135  0.00  0.00    +0.029 A 
ATOM     13  C   UNL     1       2.608  -3.905   1.788  0.00  0.00    +0.017 A 
ATOM     14  C   UNL     1       3.037  -3.239   2.922  0.00  0.00    +0.018 A 
ATOM     15  C   UNL     1       2.320  -2.157   3.400  0.00  0.00    +0.017 A 
ATOM     16  C   UNL     1       1.177  -1.741   2.744  0.00  0.00    +0.029 A 
ATOM     17 BR   UNL     1       4.601  -3.808   3.818  0.00  0.00    -0.050 Br
ENDBRANCH   8  11
ENDBRANCH   3   8
BRANCH   6  18
ATOM     18  C   UNL     1      -1.064   1.956  -3.454  0.00  0.00    +0.020 C 
BRANCH  18  20
ATOM     19  N   UNL     1      -3.340   2.580  -4.196  0.00  0.00    -0.208 N 
ATOM     20  C   UNL     1      -2.561   1.783  -3.438  0.00  0.00    +0.216 C 
ATOM     21  O   UNL     1      -3.065   0.926  -2.742  0.00  0.00    -0.276 OA
ATOM     22  H   UNL     1      -2.937   3.265  -4.752  0.00  0.00    +0.177 HD
BRANCH  19  25
ATOM     23  C   UNL     1      -6.973   3.048  -4.880  0.00  0.00    +0.068 C 
ATOM     24  C   UNL     1      -5.472   3.101  -5.000  0.00  0.00    +0.063 C 
ATOM     25  N   UNL     1      -4.731   2.420  -4.181  0.00  0.00    -0.185 NA
BRANCH  24  26
ATOM     26  C   UNL     1      -4.845   3.926  -6.049  0.00  0.00    -0.002 A 
ATOM     27  C   UNL     1      -5.431   5.134  -6.434  0.00  0.00    +0.013 A 
ATOM     28  C   UNL     1      -4.839   5.904  -7.411  0.00  0.00    +0.046 A 
ATOM     29  C   UNL     1      -3.667   5.476  -8.021  0.00  0.00    +0.117 A 
ATOM     30  C   UNL     1      -3.083   4.273  -7.645  0.00  0.00    +0.046 A 
ATOM     31  C   UNL     1      -3.666   3.498  -6.665  0.00  0.00    +0.013 A 
BRANCH  29  32
ATOM     32  O   UNL     1      -3.089   6.236  -8.987  0.00  0.00    -0.507 OA
ATOM     33  H   UNL     1      -3.396   6.034  -9.882  0.00  0.00    +0.292 HD
ENDBRANCH  29  32
ENDBRANCH  24  26
ENDBRANCH  19  25
ENDBRANCH  18  20
ENDBRANCH   6  18
TORSDOF 7
