REMARK  Name = ZINC12145040
REMARK  8 active torsions:
REMARK  status: ('A' for Active; 'I' for Inactive)
REMARK    1  A    between atoms: C_1  and  C_2
REMARK    2  A    between atoms: C_2  and  C_3
REMARK    3  A    between atoms: C_2  and  C_4
REMARK    4  A    between atoms: C_4  and  C_6
REMARK    5  A    between atoms: C_4  and  N_16
REMARK    6  A    between atoms: C_6  and  N_7
REMARK    7  A    between atoms: C_17  and  C_19
REMARK    8  A    between atoms: C_19  and  C_20
REMARK                            x       y       z     vdW  Elec       q    Type
REMARK                         _______ _______ _______ _____ _____    ______ ____
ROOT
ATOM      1  N   UNL     1       1.910  -0.495  -2.116  0.00  0.00    -0.310 N 
ATOM      2  C   UNL     1       1.806  -0.387  -3.456  0.00  0.00    +0.219 C 
ATOM      3  O   UNL     1       2.799  -0.209  -4.129  0.00  0.00    -0.275 OA
ATOM      4  H   UNL     1       1.116  -0.637  -1.578  0.00  0.00    +0.149 HD
ENDROOT
BRANCH   1   5
ATOM      5  C   UNL     1       3.223  -0.397  -1.474  0.00  0.00    +0.097 C 
BRANCH   5   7
ATOM      6  C   UNL     1       2.980  -2.801  -0.839  0.00  0.00    +0.009 C 
ATOM      7  C   UNL     1       3.902  -1.768  -1.489  0.00  0.00    +0.005 C 
ATOM      8  C   UNL     1       4.189  -2.178  -2.935  0.00  0.00    +0.009 C 
ENDBRANCH   5   7
BRANCH   5   9
ATOM      9  C   UNL     1       3.048   0.070  -0.027  0.00  0.00    +0.168 C 
BRANCH   9  10
ATOM     10  N   UNL     1       2.508   1.431  -0.014  0.00  0.00    -0.242 N 
ATOM     11  C   UNL     1       1.181   1.790   0.000  0.00  0.00    +0.089 A 
ATOM     12  C   UNL     1      -0.013   1.076   0.008  0.00  0.00    +0.029 A 
ATOM     13  C   UNL     1      -1.204   1.745   0.017  0.00  0.00    +0.002 A 
ATOM     14  C   UNL     1      -1.235   3.134   0.030  0.00  0.00    +0.002 A 
ATOM     15  C   UNL     1      -0.078   3.857   0.023  0.00  0.00    +0.032 A 
ATOM     16  C   UNL     1       1.157   3.195   0.008  0.00  0.00    +0.113 A 
ATOM     17  N   UNL     1       2.434   3.626  -0.002  0.00  0.00    -0.129 NA
ATOM     18  N   UNL     1       3.243   2.626  -0.015  0.00  0.00    -0.065 NA
ENDBRANCH   9  10
ENDBRANCH   5   9
ENDBRANCH   1   5
BRANCH   2  19
ATOM     19  C   UNL     1       0.456  -0.488  -4.117  0.00  0.00    +0.153 C 
BRANCH  19  20
ATOM     20  C   UNL     1       0.614  -0.336  -5.608  0.00  0.00    +0.078 A 
ATOM     21  C   UNL     1      -0.560  -0.403  -6.479  0.00  0.00    +0.011 A 
ATOM     22  C   UNL     1      -1.845  -0.595  -5.970  0.00  0.00    +0.010 A 
ATOM     23  C   UNL     1      -2.911  -0.644  -6.824  0.00  0.00    +0.001 A 
ATOM     24  C   UNL     1      -2.735  -0.499  -8.194  0.00  0.00    +0.001 A 
ATOM     25  C   UNL     1      -1.479  -0.303  -8.725  0.00  0.00    +0.014 A 
ATOM     26  C   UNL     1      -0.377  -0.250  -7.872  0.00  0.00    +0.050 A 
ATOM     27  C   UNL     1       0.987  -0.044  -8.376  0.00  0.00    +0.272 A 
ATOM     28  O   UNL     1       1.194   0.088  -9.569  0.00  0.00    -0.266 OA
ATOM     29  N   UNL     1       2.005  -0.002  -7.492  0.00  0.00    -0.242 N 
ATOM     30  H   UNL     1       2.909   0.134  -7.818  0.00  0.00    +0.192 HD
ATOM     31  N   UNL     1       1.794  -0.150  -6.121  0.00  0.00    -0.175 NA
ENDBRANCH  19  20
ENDBRANCH   2  19
TORSDOF 6
