REMARK  Name = ZINC39711233
REMARK  10 active torsions:
REMARK  status: ('A' for Active; 'I' for Inactive)
REMARK    1  A    between atoms: C_1  and  C_2
REMARK    2  A    between atoms: C_6  and  C_15
REMARK    3  A    between atoms: C_13  and  C_14
REMARK    4  A    between atoms: C_15  and  C_17
REMARK    5  A    between atoms: C_15  and  N_29
REMARK    6  A    between atoms: N_22  and  C_23
REMARK    7  A    between atoms: N_29  and  C_30
REMARK    8  A    between atoms: N_29  and  C_37
REMARK    9  A    between atoms: C_30  and  C_31
REMARK   10  A    between atoms: C_37  and  C_38
REMARK                            x       y       z     vdW  Elec       q    Type
REMARK                         _______ _______ _______ _____ _____    ______ ____
ROOT
ATOM      1  C   UNL     1      -1.702  -6.225  -2.855  0.00  0.00    -0.008 C 
ENDROOT
BRANCH   1   7
ATOM      2  C   UNL     1      -1.104   0.644  -0.991  0.00  0.00    +0.044 C 
ATOM      3  C   UNL     1      -0.859  -0.830  -0.796  0.00  0.00    -0.047 A 
ATOM      4  C   UNL     1      -0.924  -1.662  -1.868  0.00  0.00    +0.013 A 
ATOM      5  C   UNL     1      -0.683  -3.091  -1.666  0.00  0.00    -0.007 A 
ATOM      6  C   UNL     1      -0.737  -3.964  -2.712  0.00  0.00    -0.006 C 
ATOM      7  C   UNL     1      -0.474  -5.426  -2.412  0.00  0.00    +0.088 C 
ATOM      8  C   UNL     1      -0.173  -5.798  -0.977  0.00  0.00    +0.223 C 
ATOM      9  O   UNL     1       0.046  -6.957  -0.680  0.00  0.00    -0.275 OA
ATOM     10  N   UNL     1      -0.149  -4.858  -0.048  0.00  0.00    -0.285 N 
ATOM     11  C   UNL     1      -0.379  -3.571  -0.307  0.00  0.00    +0.041 A 
ATOM     12  C   UNL     1      -0.336  -2.625   0.734  0.00  0.00    +0.027 A 
ATOM     13  C   UNL     1      -0.564  -1.310   0.480  0.00  0.00    -0.046 A 
ATOM     14  C   UNL     1      -0.501  -0.332   1.624  0.00  0.00    +0.044 C 
ATOM     15  H   UNL     1       0.046  -5.117   0.867  0.00  0.00    +0.155 HD
ENDBRANCH   1   7
BRANCH   1  16
ATOM     16  C   UNL     1      -2.735  -6.240  -1.727  0.00  0.00    +0.205 C 
ATOM     17  N   UNL     1      -3.785  -7.229  -2.007  0.00  0.00    -0.152 NA
ATOM     18  N   UNL     1      -4.869  -6.647  -2.090  0.00  0.00    -0.070 NA
ATOM     19  N   UNL     1      -4.761  -5.270  -1.897  0.00  0.00    -0.179 N 
ATOM     20  N   UNL     1      -3.447  -4.947  -1.663  0.00  0.00    -0.185 NA
ATOM     21  H   UNL     1      -5.498  -4.640  -1.923  0.00  0.00    +0.191 HD
BRANCH  20  22
ATOM     22  C   UNL     1      -3.284  -4.321  -0.344  0.00  0.00    +0.080 C 
ATOM     23  C   UNL     1      -4.110  -5.087   0.691  0.00  0.00    +0.021 C 
ATOM     24  C   UNL     1      -3.940  -4.435   2.064  0.00  0.00    +0.002 C 
ATOM     25  C   UNL     1      -4.419  -2.983   2.003  0.00  0.00    +0.000 C 
ATOM     26  C   UNL     1      -3.593  -2.217   0.968  0.00  0.00    +0.002 C 
ATOM     27  C   UNL     1      -3.763  -2.869  -0.406  0.00  0.00    +0.021 C 
ENDBRANCH  20  22
ENDBRANCH   1  16
BRANCH   1  28
ATOM     28  N   UNL     1      -1.302  -7.603  -3.171  0.00  0.00    +0.392 N 
ATOM     29  H   UNL     1      -1.341  -8.165  -2.334  0.00  0.00    -0.080 HD
BRANCH  28  30
ATOM     30  C   UNL     1       0.070  -7.606  -3.699  0.00  0.00    -0.040 C 
BRANCH  30  31
ATOM     31  C   UNL     1       1.040  -7.856  -2.573  0.00  0.00    -0.046 A 
ATOM     32  C   UNL     1       2.071  -6.963  -2.323  0.00  0.00    +0.005 A 
ATOM     33  C   UNL     1       2.939  -7.233  -1.277  0.00  0.00    +0.020 A 
ATOM     34  C   UNL     1       2.751  -8.377  -0.524  0.00  0.00    +0.111 A 
ATOM     35  N   UNL     1       1.760  -9.204  -0.790  0.00  0.00    -0.263 NA
ATOM     36  C   UNL     1       0.910  -8.975  -1.773  0.00  0.00    +0.112 A 
ENDBRANCH  30  31
ENDBRANCH  28  30
BRANCH  28  37
ATOM     37  C   UNL     1      -2.215  -8.159  -4.179  0.00  0.00    -0.002 C 
BRANCH  37  38
ATOM     38  C   UNL     1      -3.399  -8.788  -3.491  0.00  0.00    +0.089 A 
ATOM     39  C   UNL     1      -4.681  -8.406  -3.625  0.00  0.00    +0.042 A 
ATOM     40  C   UNL     1      -5.452  -9.263  -2.807  0.00  0.00    +0.041 A 
ATOM     41  C   UNL     1      -4.595 -10.118  -2.221  0.00  0.00    +0.195 A 
ATOM     42  O   UNL     1      -3.353  -9.829  -2.643  0.00  0.00    -0.470 OA
ENDBRANCH  37  38
ENDBRANCH  28  37
ENDBRANCH   1  28
TORSDOF 8
