REMARK  Name = ZINC15547317
REMARK  12 active torsions:
REMARK  status: ('A' for Active; 'I' for Inactive)
REMARK    1  A    between atoms: C_1  and  C_2
REMARK    2  A    between atoms: C_2  and  C_3
REMARK    3  A    between atoms: C_12  and  C_13
REMARK    4  A    between atoms: C_12  and  N_68
REMARK    5  A    between atoms: N_15  and  C_16
REMARK    6  A    between atoms: N_15  and  C_20
REMARK    7  A    between atoms: C_16  and  C_17
REMARK    8  A    between atoms: C_17  and  C_18
REMARK    9  A    between atoms: C_17  and  C_19
REMARK   10  A    between atoms: C_21  and  N_36
REMARK   11  A    between atoms: N_22  and  C_29
REMARK   12  A    between atoms: C_29  and  C_30
REMARK                            x       y       z     vdW  Elec       q    Type
REMARK                         _______ _______ _______ _____ _____    ______ ____
ROOT
ATOM      1  C   UNL     1      -3.167  -2.578  -2.296  0.00  0.00    +0.203 C 
ATOM      2  O   UNL     1      -3.122  -1.418  -2.648  0.00  0.00    -0.277 OA
ATOM      3  N   UNL     1      -2.188  -3.086  -1.518  0.00  0.00    -0.266 N 
ENDROOT
BRANCH   3   4
ATOM      4  C   UNL     1      -1.058  -2.301  -1.204  0.00  0.00    +0.140 A 
ATOM      5  C   UNL     1       0.202  -2.692  -1.609  0.00  0.00    +0.128 A 
ATOM      6  N   UNL     1       1.284  -1.907  -1.288  0.00  0.00    -0.276 N 
ATOM      7  C   UNL     1       1.117  -0.774  -0.582  0.00  0.00    +0.331 A 
ATOM      8  O   UNL     1       2.088  -0.096  -0.303  0.00  0.00    -0.246 OA
ATOM      9  N   UNL     1      -0.103  -0.374  -0.184  0.00  0.00    -0.273 N 
ATOM     10  H   UNL     1      -0.201   0.477   0.333  0.00  0.00    +0.173 HD
ATOM     11  C   UNL     1      -1.196  -1.107  -0.472  0.00  0.00    +0.277 A 
ATOM     12  O   UNL     1      -2.298  -0.738  -0.103  0.00  0.00    -0.266 OA
BRANCH   5  13
ATOM     13  N   UNL     1       0.373  -3.853  -2.326  0.00  0.00    -0.343 N 
ATOM     14  H   UNL     1       1.253  -4.094  -2.655  0.00  0.00    +0.144 HD
ATOM     15  H   UNL     1      -0.386  -4.430  -2.502  0.00  0.00    +0.144 HD
ENDBRANCH   5  13
BRANCH   6  16
ATOM     16  C   UNL     1       2.627  -2.310  -1.711  0.00  0.00    +0.163 C 
BRANCH  16  17
ATOM     17  C   UNL     1       2.923  -1.725  -3.068  0.00  0.00    -0.028 A 
ATOM     18  C   UNL     1       2.607  -2.435  -4.211  0.00  0.00    +0.005 A 
ATOM     19  C   UNL     1       2.873  -1.896  -5.456  0.00  0.00    +0.000 A 
ATOM     20  C   UNL     1       3.466  -0.652  -5.557  0.00  0.00    +0.000 A 
ATOM     21  C   UNL     1       3.788   0.056  -4.414  0.00  0.00    +0.000 A 
ATOM     22  C   UNL     1       3.516  -0.480  -3.170  0.00  0.00    +0.005 A 
ENDBRANCH  16  17
ENDBRANCH   6  16
ENDBRANCH   3   4
BRANCH   1  23
ATOM     23  C   UNL     1      -4.317  -3.452  -2.727  0.00  0.00    +0.020 C 
BRANCH  23  32
ATOM     24  C   UNL     1      -6.140  -3.550  -4.316  0.00  0.00    -0.036 C 
ATOM     25  C   UNL     1      -7.088  -2.685  -5.142  0.00  0.00    -0.051 A 
ATOM     26  C   UNL     1      -7.811  -3.152  -6.237  0.00  0.00    +0.010 A 
ATOM     27  C   UNL     1      -8.629  -2.314  -6.915  0.00  0.00    +0.045 A 
ATOM     28  S   UNL     1      -8.415  -0.784  -6.018  0.00  0.00    -0.101 S 
ATOM     29  C   UNL     1      -7.259  -1.374  -4.814  0.00  0.00    -0.010 A 
ATOM     30  C   UNL     1      -6.603  -0.643  -3.689  0.00  0.00    +0.024 C 
ATOM     31  C   UNL     1      -5.978  -1.690  -2.751  0.00  0.00    -0.072 C 
ATOM     32  N   UNL     1      -5.217  -2.654  -3.582  0.00  0.00    +0.390 N 
ATOM     33  H   UNL     1      -4.653  -2.131  -4.263  0.00  0.00    -0.080 HD
BRANCH  24  35
ATOM     34  C   UNL     1      -4.466  -3.575  -6.171  0.00  0.00    +0.002 C 
ATOM     35  C   UNL     1      -5.320  -4.446  -5.247  0.00  0.00    -0.014 C 
ENDBRANCH  24  35
ENDBRANCH  23  32
ENDBRANCH   1  23
BRANCH   3  36
ATOM     36  C   UNL     1      -2.299  -4.451  -1.000  0.00  0.00    +0.117 C 
BRANCH  36  37
ATOM     37  C   UNL     1      -3.123  -4.442   0.290  0.00  0.00    +0.001 C 
ATOM     38  C   UNL     1      -3.370  -5.881   0.748  0.00  0.00    +0.009 C 
ATOM     39  C   UNL     1      -2.357  -3.686   1.378  0.00  0.00    +0.009 C 
ENDBRANCH  36  37
ENDBRANCH   3  36
TORSDOF 9
