REMARK  Name = ZINC10079380
REMARK  6 active torsions:
REMARK  status: ('A' for Active; 'I' for Inactive)
REMARK    1  A    between atoms: C_1  and  N_2
REMARK    2  A    between atoms: N_2  and  C_3
REMARK    3  A    between atoms: N_2  and  S_9
REMARK    4  A    between atoms: S_9  and  C_12
REMARK    5  A    between atoms: C_15  and  N_18
REMARK    6  A    between atoms: C_19  and  C_21
REMARK                            x       y       z     vdW  Elec       q    Type
REMARK                         _______ _______ _______ _____ _____    ______ ____
ROOT
ATOM      1  N   UNL     1       0.002  -0.004   0.002  0.00  0.00    -0.285 N 
ATOM      2  C   UNL     1       1.074  -0.666   0.481  0.00  0.00    +0.220 C 
ATOM      3  O   UNL     1       1.982  -0.054   1.002  0.00  0.00    -0.275 OA
ATOM      4  H   UNL     1      -0.758  -0.497  -0.345  0.00  0.00    +0.155 HD
ENDROOT
BRANCH   2   5
ATOM      5  C   UNL     1       1.143  -2.167   0.371  0.00  0.00    +0.078 C 
ATOM      6  C   UNL     1      -0.035  -2.791   1.123  0.00  0.00    +0.032 C 
ATOM      7  C   UNL     1       0.074  -4.316   1.059  0.00  0.00    +0.110 C 
ATOM      8  N   UNL     1       1.344  -4.743   1.661  0.00  0.00    -0.285 N 
ATOM      9  C   UNL     1       2.491  -4.194   0.927  0.00  0.00    +0.110 C 
ATOM     10  C   UNL     1       2.453  -2.666   0.987  0.00  0.00    +0.032 C 
ATOM     11  C   UNL     1       1.417  -6.115   1.737  0.00  0.00    +0.291 A 
ATOM     12  N   UNL     1       0.538  -6.882   2.330  0.00  0.00    -0.195 NA
ATOM     13  C   UNL     1       0.934  -8.178   2.205  0.00  0.00    +0.111 A 
ATOM     14  C   UNL     1       0.399  -9.395   2.631  0.00  0.00    +0.031 A 
ATOM     15  C   UNL     1       1.056 -10.570   2.340  0.00  0.00    +0.002 A 
ATOM     16  C   UNL     1       2.244 -10.550   1.626  0.00  0.00    +0.004 A 
ATOM     17  C   UNL     1       2.784  -9.354   1.199  0.00  0.00    +0.048 A 
ATOM     18  C   UNL     1       2.137  -8.163   1.484  0.00  0.00    +0.157 A 
ATOM     19  O   UNL     1       2.400  -6.865   1.208  0.00  0.00    -0.424 OA
ENDBRANCH   2   5
BRANCH   1  23
ATOM     20  C   UNL     1      -0.047   4.162   0.010  0.00  0.00    +0.106 A 
ATOM     21  C   UNL     1       1.145   3.486  -0.178  0.00  0.00    +0.030 A 
ATOM     22  C   UNL     1       1.164   2.105  -0.181  0.00  0.00    +0.025 A 
ATOM     23  C   UNL     1      -0.015   1.395   0.004  0.00  0.00    +0.034 A 
ATOM     24  C   UNL     1      -1.211   2.076   0.187  0.00  0.00    +0.025 A 
ATOM     25  C   UNL     1      -1.223   3.458   0.196  0.00  0.00    +0.030 A 
BRANCH  20  26
ATOM     26  S   UNL     1      -0.068   5.924   0.013  0.00  0.00    +0.061 S 
ATOM     27  O   UNL     1      -1.217   6.315   0.753  0.00  0.00    -0.153 OA
ATOM     28  O   UNL     1       1.243   6.345   0.363  0.00  0.00    -0.153 OA
BRANCH  26  30
ATOM     29  C   UNL     1      -1.686   6.614  -2.041  0.00  0.00    +0.132 C 
ATOM     30  N   UNL     1      -0.321   6.413  -1.548  0.00  0.00    -0.177 NA
BRANCH  30  31
ATOM     31  C   UNL     1       0.820   6.645  -2.437  0.00  0.00    +0.080 C 
ATOM     32  C   UNL     1       0.809   8.099  -2.913  0.00  0.00    +0.020 C 
ATOM     33  C   UNL     1       2.001   8.341  -3.841  0.00  0.00    +0.002 C 
ATOM     34  C   UNL     1       1.903   7.409  -5.050  0.00  0.00    +0.000 C 
ATOM     35  C   UNL     1       1.914   5.955  -4.575  0.00  0.00    +0.002 C 
ATOM     36  C   UNL     1       0.722   5.713  -3.647  0.00  0.00    +0.020 C 
ENDBRANCH  30  31
ENDBRANCH  26  30
ENDBRANCH  20  26
ENDBRANCH   1  23
TORSDOF 5
