REMARK  Name = ZINC30954015
REMARK  9 active torsions:
REMARK  status: ('A' for Active; 'I' for Inactive)
REMARK    1  A    between atoms: C_1  and  C_2
REMARK    2  A    between atoms: C_5  and  N_11
REMARK    3  A    between atoms: C_7  and  N_8
REMARK    4  A    between atoms: C_12  and  C_14
REMARK    5  A    between atoms: C_14  and  S_15
REMARK    6  A    between atoms: S_15  and  C_16
REMARK    7  A    between atoms: C_19  and  C_22
REMARK    8  A    between atoms: N_20  and  C_21
REMARK    9  A    between atoms: C_22  and  C_23
REMARK                            x       y       z     vdW  Elec       q    Type
REMARK                         _______ _______ _______ _____ _____    ______ ____
ROOT
ATOM      1  C   UNL     1      -2.178   2.015  -2.939  0.00  0.00    +0.192 A 
ATOM      2  N   UNL     1      -3.204   1.217  -2.756  0.00  0.00    -0.122 NA
ATOM      3  N   UNL     1      -2.992   0.459  -1.740  0.00  0.00    -0.133 NA
ATOM      4  C   UNL     1      -1.833   0.733  -1.212  0.00  0.00    +0.138 A 
ATOM      5  N   UNL     1      -1.271   1.731  -1.959  0.00  0.00    -0.309 N 
ATOM      6  C   UNL     1       0.034   2.364  -1.751  0.00  0.00    +0.152 C 
ENDROOT
BRANCH   1   7
ATOM      7  S   UNL     1      -2.005   3.225  -4.208  0.00  0.00    -0.077 S 
BRANCH   7   8
ATOM      8  C   UNL     1      -3.576   2.997  -5.077  0.00  0.00    +0.173 C 
BRANCH   8  10
ATOM      9  N   UNL     1      -4.741   3.965  -7.032  0.00  0.00    -0.285 N 
ATOM     10  C   UNL     1      -3.653   3.955  -6.237  0.00  0.00    +0.227 C 
ATOM     11  O   UNL     1      -2.736   4.718  -6.455  0.00  0.00    -0.275 OA
ATOM     12  H   UNL     1      -5.535   3.218  -6.887  0.00  0.00    +0.155 HD
BRANCH   9  17
ATOM     13  C   UNL     1      -5.227   7.862 -11.126  0.00  0.00    +0.046 C 
ATOM     14  C   UNL     1      -5.098   6.827 -10.038  0.00  0.00    -0.020 A 
ATOM     15  C   UNL     1      -4.467   7.149  -8.851  0.00  0.00    +0.007 A 
ATOM     16  C   UNL     1      -4.353   6.205  -7.850  0.00  0.00    +0.024 A 
ATOM     17  C   UNL     1      -4.861   4.926  -8.042  0.00  0.00    +0.036 A 
ATOM     18  C   UNL     1      -5.494   4.606  -9.235  0.00  0.00    +0.056 A 
ATOM     19  C   UNL     1      -5.611   5.557 -10.230  0.00  0.00    +0.131 A 
BRANCH  19  20
ATOM     20  N   UNL     1      -6.285   5.217 -11.503  0.00  0.00    +0.057 N 
ATOM     21  O   UNL     1      -6.624   4.068 -11.724  0.00  0.00    -0.126 OA
ATOM     22  O   UNL     1      -6.500   6.085 -12.330  0.00  0.00    -0.126 OA
ENDBRANCH  19  20
ENDBRANCH   9  17
ENDBRANCH   8  10
ENDBRANCH   7   8
ENDBRANCH   1   7
BRANCH   4  23
ATOM     23  C   UNL     1      -1.222   0.068  -0.005  0.00  0.00    +0.112 C 
BRANCH  23  24
ATOM     24  C   UNL     1      -1.624   0.817   1.239  0.00  0.00    -0.032 A 
ATOM     25  C   UNL     1      -0.802   1.770   1.759  0.00  0.00    +0.004 A 
ATOM     26  C   UNL     1      -1.160   2.478   2.905  0.00  0.00    +0.001 A 
ATOM     27  C   UNL     1      -2.336   2.228   3.544  0.00  0.00    +0.008 A 
ATOM     28  C   UNL     1      -3.207   1.248   3.040  0.00  0.00    -0.018 A 
ATOM     29  C   UNL     1      -2.846   0.533   1.870  0.00  0.00    -0.014 A 
ATOM     30  C   UNL     1      -3.717  -0.448   1.366  0.00  0.00    +0.009 A 
ATOM     31  C   UNL     1      -4.893  -0.697   2.006  0.00  0.00    +0.001 A 
ATOM     32  C   UNL     1      -5.247   0.006   3.155  0.00  0.00    +0.001 A 
ATOM     33  C   UNL     1      -4.429   0.963   3.672  0.00  0.00    +0.008 A 
ENDBRANCH  23  24
ENDBRANCH   4  23
TORSDOF 7
