REMARK  Name = ZINC15124480
REMARK  13 active torsions:
REMARK  status: ('A' for Active; 'I' for Inactive)
REMARK    1  A    between atoms: C_1  and  C_2
REMARK    2  A    between atoms: C_3  and  N_11
REMARK    3  A    between atoms: C_7  and  N_8
REMARK    4  A    between atoms: N_11  and  C_12
REMARK    5  A    between atoms: C_12  and  C_13
REMARK    6  A    between atoms: N_15  and  C_16
REMARK    7  A    between atoms: N_15  and  C_20
REMARK    8  A    between atoms: C_16  and  C_17
REMARK    9  A    between atoms: C_17  and  C_18
REMARK   10  A    between atoms: C_17  and  C_19
REMARK   11  A    between atoms: C_21  and  N_36
REMARK   12  A    between atoms: N_22  and  C_29
REMARK   13  A    between atoms: C_29  and  C_30
REMARK                            x       y       z     vdW  Elec       q    Type
REMARK                         _______ _______ _______ _____ _____    ______ ____
ROOT
ATOM      1  C   UNL     1      -1.660   2.526  -0.258  0.00  0.00    +0.237 C 
ATOM      2  O   UNL     1      -0.593   3.079  -0.098  0.00  0.00    -0.274 OA
ATOM      3  N   UNL     1      -1.750   1.185  -0.136  0.00  0.00    -0.263 N 
ENDROOT
BRANCH   3   4
ATOM      4  C   UNL     1      -0.585   0.416   0.071  0.00  0.00    +0.140 A 
ATOM      5  C   UNL     1      -0.195  -0.530  -0.854  0.00  0.00    +0.128 A 
ATOM      6  N   UNL     1       0.942  -1.269  -0.620  0.00  0.00    -0.276 N 
ATOM      7  C   UNL     1       1.665  -1.071   0.496  0.00  0.00    +0.331 A 
ATOM      8  O   UNL     1       2.667  -1.734   0.685  0.00  0.00    -0.246 OA
ATOM      9  N   UNL     1       1.300  -0.152   1.409  0.00  0.00    -0.273 N 
ATOM     10  H   UNL     1       1.856  -0.025   2.231  0.00  0.00    +0.173 HD
ATOM     11  C   UNL     1       0.195   0.597   1.229  0.00  0.00    +0.277 A 
ATOM     12  O   UNL     1      -0.127   1.427   2.062  0.00  0.00    -0.266 OA
BRANCH   5  13
ATOM     13  N   UNL     1      -0.934  -0.734  -1.995  0.00  0.00    -0.343 N 
ATOM     14  H   UNL     1      -1.687  -0.156  -2.194  0.00  0.00    +0.144 HD
ATOM     15  H   UNL     1      -0.702  -1.455  -2.601  0.00  0.00    +0.144 HD
ENDBRANCH   5  13
BRANCH   6  16
ATOM     16  C   UNL     1       1.367  -2.278  -1.594  0.00  0.00    +0.163 C 
BRANCH  16  17
ATOM     17  C   UNL     1       0.738  -3.603  -1.251  0.00  0.00    -0.028 A 
ATOM     18  C   UNL     1       1.392  -4.482  -0.409  0.00  0.00    +0.005 A 
ATOM     19  C   UNL     1       0.812  -5.696  -0.091  0.00  0.00    +0.000 A 
ATOM     20  C   UNL     1      -0.417  -6.036  -0.624  0.00  0.00    +0.000 A 
ATOM     21  C   UNL     1      -1.069  -5.159  -1.470  0.00  0.00    +0.000 A 
ATOM     22  C   UNL     1      -0.492  -3.943  -1.784  0.00  0.00    +0.005 A 
ENDBRANCH  16  17
ENDBRANCH   6  16
ENDBRANCH   3   4
BRANCH   1  23
ATOM     23  C   UNL     1      -2.886   3.335  -0.593  0.00  0.00    +0.198 C 
BRANCH  23  24
ATOM     24  N   UNL     1      -2.529   4.754  -0.669  0.00  0.00    -0.335 N 
ATOM     25  H   UNL     1      -1.613   5.033  -0.511  0.00  0.00    +0.147 HD
BRANCH  24  28
ATOM     26  C   UNL     1      -1.750   7.488  -0.784  0.00  0.00    +0.048 C 
ATOM     27  C   UNL     1      -3.170   7.052  -1.035  0.00  0.00    +0.001 A 
ATOM     28  C   UNL     1      -3.506   5.706  -0.968  0.00  0.00    +0.033 A 
ATOM     29  C   UNL     1      -4.818   5.309  -1.194  0.00  0.00    +0.023 A 
ATOM     30  C   UNL     1      -5.782   6.252  -1.490  0.00  0.00    +0.004 A 
ATOM     31  C   UNL     1      -5.443   7.591  -1.561  0.00  0.00    +0.033 A 
ATOM     32  C   UNL     1      -4.138   7.990  -1.336  0.00  0.00    +0.131 A 
BRANCH  32  33
ATOM     33  N   UNL     1      -3.780   9.424  -1.414  0.00  0.00    +0.057 N 
ATOM     34  O   UNL     1      -4.651  10.262  -1.562  0.00  0.00    -0.126 OA
ATOM     35  O   UNL     1      -2.613   9.765  -1.330  0.00  0.00    -0.126 OA
ENDBRANCH  32  33
ENDBRANCH  24  28
ENDBRANCH  23  24
ENDBRANCH   1  23
BRANCH   3  36
ATOM     36  C   UNL     1      -3.057   0.527  -0.219  0.00  0.00    +0.117 C 
BRANCH  36  37
ATOM     37  C   UNL     1      -3.734   0.565   1.152  0.00  0.00    +0.001 C 
ATOM     38  C   UNL     1      -5.157   0.015   1.033  0.00  0.00    +0.009 C 
ATOM     39  C   UNL     1      -2.938  -0.292   2.138  0.00  0.00    +0.009 C 
ENDBRANCH  36  37
ENDBRANCH   3  36
TORSDOF 10
