REMARK  Name = ZINC39665815
REMARK  11 active torsions:
REMARK  status: ('A' for Active; 'I' for Inactive)
REMARK    1  A    between atoms: C_1  and  C_2
REMARK    2  A    between atoms: C_5  and  C_9
REMARK    3  A    between atoms: C_6  and  C_8
REMARK    4  A    between atoms: C_13  and  C_22
REMARK    5  A    between atoms: N_24  and  C_25
REMARK    6  A    between atoms: C_25  and  C_26
REMARK    7  A    between atoms: C_26  and  C_28
REMARK    8  A    between atoms: C_26  and  O_29
REMARK    9  A    between atoms: O_29  and  C_30
REMARK   10  A    between atoms: C_33  and  O_36
REMARK   11  A    between atoms: O_36  and  C_37
REMARK                            x       y       z     vdW  Elec       q    Type
REMARK                         _______ _______ _______ _____ _____    ______ ____
ROOT
ATOM      1  C   UNL     1       0.452  -2.227   0.202  0.00  0.00    +0.247 C 
ATOM      2  O   UNL     1       0.472  -2.782   1.284  0.00  0.00    -0.270 OA
ATOM      3  N   UNL     1       0.130  -2.923  -0.906  0.00  0.00    -0.296 N 
ATOM      4  C   UNL     1       0.162  -2.457  -2.313  0.00  0.00    +0.121 C 
ATOM      5  C   UNL     1       0.699  -3.665  -3.112  0.00  0.00    +0.100 C 
ATOM      6  C   UNL     1       0.368  -4.890  -2.243  0.00  0.00    -0.004 C 
ATOM      7  C   UNL     1      -0.330  -4.330  -0.994  0.00  0.00    +0.115 C 
ATOM      8  C   UNL     1       1.649  -5.616  -1.843  0.00  0.00    -0.010 C 
ATOM      9  C   UNL     1       1.290  -6.861  -1.027  0.00  0.00    -0.082 C 
ATOM     10  N   UNL     1       0.433  -7.743  -1.828  0.00  0.00    +0.379 N 
ATOM     11  C   UNL     1      -0.836  -7.070  -2.130  0.00  0.00    -0.082 C 
ATOM     12  C   UNL     1      -0.567  -5.833  -2.993  0.00  0.00    -0.010 C 
ATOM     13  H   UNL     1       0.904  -7.974  -2.691  0.00  0.00    -0.086 HD
ATOM     14  H   UNL     1       0.249  -8.590  -1.312  0.00  0.00    -0.086 HD
ENDROOT
BRANCH   1  19
ATOM     15  C   UNL     1       1.729   3.371  -0.184  0.00  0.00    +0.044 C 
ATOM     16  C   UNL     1       1.394   1.905  -0.083  0.00  0.00    -0.050 A 
ATOM     17  C   UNL     1       0.272   1.409  -0.723  0.00  0.00    +0.004 A 
ATOM     18  C   UNL     1      -0.039   0.068  -0.634  0.00  0.00    +0.013 A 
ATOM     19  C   UNL     1       0.780  -0.789   0.103  0.00  0.00    +0.040 A 
ATOM     20  C   UNL     1       1.910  -0.282   0.746  0.00  0.00    -0.038 A 
ATOM     21  C   UNL     1       2.213   1.060   0.645  0.00  0.00    +0.007 A 
ATOM     22  C   UNL     1       2.800  -1.199   1.544  0.00  0.00    +0.044 C 
ENDBRANCH   1  19
BRANCH   5  23
ATOM     23  C   UNL     1       2.188  -3.545  -3.308  0.00  0.00    +0.218 C 
ATOM     24  O   UNL     1       2.855  -2.911  -2.517  0.00  0.00    -0.275 OA
ATOM     25  N   UNL     1       2.780  -4.141  -4.362  0.00  0.00    -0.312 N 
ATOM     26  H   UNL     1       2.247  -4.648  -4.994  0.00  0.00    +0.149 HD
BRANCH  25  27
ATOM     27  C   UNL     1       4.228  -4.024  -4.551  0.00  0.00    +0.148 C 
BRANCH  27  28
ATOM     28  C   UNL     1       4.640  -4.787  -5.812  0.00  0.00    +0.187 C 
ATOM     29  C   UNL     1       6.165  -4.770  -5.943  0.00  0.00    +0.053 C 
BRANCH  28  30
ATOM     30  O   UNL     1       4.057  -4.164  -6.958  0.00  0.00    -0.488 OA
BRANCH  30  31
ATOM     31  C   UNL     1       3.902  -4.934  -8.068  0.00  0.00    +0.121 A 
ATOM     32  C   UNL     1       3.329  -4.396  -9.211  0.00  0.00    +0.049 A 
ATOM     33  C   UNL     1       3.171  -5.179 -10.338  0.00  0.00    +0.049 A 
ATOM     34  C   UNL     1       3.587  -6.502 -10.328  0.00  0.00    +0.120 A 
ATOM     35  C   UNL     1       4.162  -7.039  -9.185  0.00  0.00    +0.049 A 
ATOM     36  C   UNL     1       4.323  -6.256  -8.059  0.00  0.00    +0.049 A 
BRANCH  34  37
ATOM     37  O   UNL     1       3.431  -7.272 -11.437  0.00  0.00    -0.495 OA
ATOM     38  C   UNL     1       3.882  -8.626 -11.356  0.00  0.00    +0.277 C 
ENDBRANCH  34  37
ENDBRANCH  30  31
ENDBRANCH  28  30
ENDBRANCH  27  28
ENDBRANCH  25  27
ENDBRANCH   5  23
TORSDOF 7
