REMARK  Name = ZINC44831596
REMARK  7 active torsions:
REMARK  status: ('A' for Active; 'I' for Inactive)
REMARK    1  A    between atoms: C_10  and  C_11
REMARK    2  A    between atoms: C_11  and  C_13
REMARK    3  A    between atoms: C_11  and  C_32
REMARK    4  A    between atoms: C_13  and  N_14
REMARK    5  A    between atoms: C_15  and  O_17
REMARK    6  A    between atoms: O_17  and  C_18
REMARK    7  A    between atoms: C_18  and  C_19
REMARK                            x       y       z     vdW  Elec       q    Type
REMARK                         _______ _______ _______ _____ _____    ______ ____
ROOT
ATOM      1  N   UNL     1       6.921   0.738   1.297  0.00  0.00    -0.280 N 
ATOM      2  C   UNL     1       7.753   0.673   2.356  0.00  0.00    +0.400 C 
ATOM      3  O   UNL     1       7.510  -0.086   3.273  0.00  0.00    -0.226 OA
ATOM      4  H   UNL     1       7.115   1.343   0.565  0.00  0.00    +0.152 HD
ENDROOT
BRANCH   1   5
ATOM      5  C   UNL     1       5.724  -0.106   1.253  0.00  0.00    +0.127 C 
BRANCH   5   6
ATOM      6  C   UNL     1       4.960   0.161  -0.046  0.00  0.00    +0.150 C 
BRANCH   6  16
ATOM      7  C   UNL     1       0.009   1.306  -0.658  0.00  0.00    +0.001 A 
ATOM      8  C   UNL     1       1.194   2.040  -0.669  0.00  0.00    +0.001 A 
ATOM      9  C   UNL     1       2.396   1.433  -0.469  0.00  0.00    +0.009 A 
ATOM     10  C   UNL     1       2.446   0.047  -0.247  0.00  0.00    -0.014 A 
ATOM     11  C   UNL     1       1.241  -0.700  -0.236  0.00  0.00    -0.018 A 
ATOM     12  C   UNL     1       0.019  -0.038  -0.447  0.00  0.00    +0.008 A 
ATOM     13  C   UNL     1       1.292  -2.086  -0.014  0.00  0.00    +0.008 A 
ATOM     14  C   UNL     1       2.494  -2.693   0.187  0.00  0.00    +0.001 A 
ATOM     15  C   UNL     1       3.678  -1.959   0.176  0.00  0.00    +0.005 A 
ATOM     16  C   UNL     1       3.668  -0.615  -0.037  0.00  0.00    -0.024 A 
ENDBRANCH   6  16
BRANCH   6  17
ATOM     17  C   UNL     1       5.799  -0.274  -1.220  0.00  0.00    +0.365 C 
ATOM     18  O   UNL     1       5.385  -1.134  -1.979  0.00  0.00    -0.246 OA
ATOM     19  O   UNL     1       6.891   0.234  -1.411  0.00  0.00    -0.246 OA
ENDBRANCH   6  17
ENDBRANCH   5   6
ENDBRANCH   1   5
BRANCH   2  20
ATOM     20  O   UNL     1       8.852   1.448   2.397  0.00  0.00    -0.449 OA
BRANCH  20  21
ATOM     21  C   UNL     1       9.689   1.327   3.549  0.00  0.00    +0.246 C 
BRANCH  21  22
ATOM     22  C   UNL     1      10.880   2.279   3.417  0.00  0.00    +0.088 C 
ATOM     23  C   UNL     1      11.794   1.816   2.309  0.00  0.00    -0.029 A 
ATOM     24  C   UNL     1      11.594   1.640   0.957  0.00  0.00    +0.005 A 
ATOM     25  C   UNL     1      12.630   1.194   0.155  0.00  0.00    +0.000 A 
ATOM     26  C   UNL     1      13.869   0.924   0.709  0.00  0.00    +0.001 A 
ATOM     27  C   UNL     1      14.078   1.098   2.062  0.00  0.00    +0.009 A 
ATOM     28  C   UNL     1      13.037   1.547   2.876  0.00  0.00    -0.014 A 
ATOM     29  C   UNL     1      12.984   1.817   4.334  0.00  0.00    -0.014 A 
ATOM     30  C   UNL     1      11.707   2.254   4.679  0.00  0.00    -0.029 A 
ATOM     31  C   UNL     1      11.409   2.569   5.987  0.00  0.00    +0.005 A 
ATOM     32  C   UNL     1      12.381   2.452   6.966  0.00  0.00    +0.000 A 
ATOM     33  C   UNL     1      13.652   2.019   6.634  0.00  0.00    +0.001 A 
ATOM     34  C   UNL     1      13.958   1.701   5.327  0.00  0.00    +0.009 A 
ENDBRANCH  21  22
ENDBRANCH  20  21
ENDBRANCH   2  20
TORSDOF 7
