REMARK  Name = ZINC39981242
REMARK  6 active torsions:
REMARK  status: ('A' for Active; 'I' for Inactive)
REMARK    1  A    between atoms: C_1  and  C_2
REMARK    2  A    between atoms: N_4  and  C_5
REMARK    3  A    between atoms: C_9  and  N_11
REMARK    4  A    between atoms: C_12  and  C_14
REMARK    5  A    between atoms: C_14  and  S_15
REMARK    6  A    between atoms: S_15  and  C_16
REMARK                            x       y       z     vdW  Elec       q    Type
REMARK                         _______ _______ _______ _____ _____    ______ ____
ROOT
ATOM      1  C   UNL     1      -0.244  -7.108  -4.653  0.00  0.00    +0.173 C 
ENDROOT
BRANCH   1   3
ATOM      2  N   UNL     1      -0.016  -4.989  -3.397  0.00  0.00    -0.285 N 
ATOM      3  C   UNL     1      -0.173  -6.327  -3.366  0.00  0.00    +0.227 C 
ATOM      4  O   UNL     1      -0.256  -6.903  -2.302  0.00  0.00    -0.275 OA
ATOM      5  H   UNL     1       0.118  -4.536  -4.245  0.00  0.00    +0.155 HD
BRANCH   2  10
ATOM      6  C   UNL     1      -0.628  -2.254  -1.011  0.00  0.00    +0.035 A 
ATOM      7  C   UNL     1      -0.102  -2.801   0.153  0.00  0.00    +0.023 A 
ATOM      8  C   UNL     1       0.449  -4.068   0.134  0.00  0.00    +0.004 A 
ATOM      9  C   UNL     1       0.478  -4.795  -1.042  0.00  0.00    +0.023 A 
ATOM     10  C   UNL     1      -0.046  -4.253  -2.208  0.00  0.00    +0.035 A 
ATOM     11  C   UNL     1      -0.605  -2.982  -2.191  0.00  0.00    +0.046 A 
BRANCH   6  15
ATOM     12  C   UNL     1      -2.920   0.661  -1.663  0.00  0.00    +0.109 C 
ATOM     13  C   UNL     1      -2.255  -0.688  -1.761  0.00  0.00    +0.214 C 
ATOM     14  O   UNL     1      -2.682  -1.520  -2.533  0.00  0.00    -0.276 OA
ATOM     15  N   UNL     1      -1.185  -0.971  -0.991  0.00  0.00    -0.286 N 
ATOM     16  H   UNL     1      -0.802  -0.284  -0.422  0.00  0.00    +0.155 HD
ENDBRANCH   6  15
ENDBRANCH   2  10
ENDBRANCH   1   3
BRANCH   1  17
ATOM     17  S   UNL     1      -0.456  -8.870  -4.280  0.00  0.00    -0.075 S 
BRANCH  17  18
ATOM     18  C   UNL     1      -0.521  -9.637  -5.865  0.00  0.00    +0.208 C 
ATOM     19  N   UNL     1      -0.411  -8.873  -6.926  0.00  0.00    -0.227 NA
ATOM     20  C   UNL     1      -0.545  -9.506  -8.236  0.00  0.00    +0.252 C 
ATOM     21  C   UNL     1      -0.084 -10.947  -8.064  0.00  0.00    +0.117 C 
ATOM     22  C   UNL     1       0.793 -11.173  -9.082  0.00  0.00    +0.028 A 
ATOM     23  C   UNL     1       1.466 -12.340  -9.514  0.00  0.00    +0.050 A 
ATOM     24  C   UNL     1       2.307 -12.221 -10.580  0.00  0.00    +0.124 A 
ATOM     25  C   UNL     1       2.542 -11.022 -11.266  0.00  0.00    +0.040 A 
ATOM     26  C   UNL     1       1.946  -9.845 -10.942  0.00  0.00    +0.029 A 
ATOM     27  C   UNL     1       1.012  -9.881  -9.803  0.00  0.00    +0.046 A 
ATOM     28  N   UNL     1       0.292  -8.936  -9.282  0.00  0.00    -0.358 N 
ATOM     29  F   UNL     1       2.955 -13.329 -11.001  0.00  0.00    -0.205 F 
ATOM     30  N   UNL     1      -0.439 -11.664  -6.995  0.00  0.00    -0.147 NA
ATOM     31  N   UNL     1      -0.678 -10.981  -5.919  0.00  0.00    -0.122 NA
ATOM     32  H   UNL     1       0.309  -8.003  -9.546  0.00  0.00    +0.162 HD
ENDBRANCH  17  18
ENDBRANCH   1  17
TORSDOF 5
