REMARK  Name = ZINC08815604
REMARK  6 active torsions:
REMARK  status: ('A' for Active; 'I' for Inactive)
REMARK    1  A    between atoms: C_3  and  C_28
REMARK    2  A    between atoms: C_5  and  N_7
REMARK    3  A    between atoms: C_11  and  S_15
REMARK    4  A    between atoms: S_15  and  C_16
REMARK    5  A    between atoms: N_18  and  N_19
REMARK    6  A    between atoms: C_20  and  C_21
REMARK                            x       y       z     vdW  Elec       q    Type
REMARK                         _______ _______ _______ _____ _____    ______ ____
ROOT
ATOM      1  N   UNL     1       6.576  -7.593  -1.992  0.00  0.00    -0.209 N 
ATOM      2  C   UNL     1       6.442  -8.719  -1.279  0.00  0.00    +0.228 C 
ATOM      3  O   UNL     1       6.834  -9.815  -1.619  0.00  0.00    -0.275 OA
ATOM      4  C   UNL     1       5.725  -8.406   0.016  0.00  0.00    +0.120 C 
ATOM      5  C   UNL     1       5.465  -6.889  -0.072  0.00  0.00    +0.149 C 
ATOM      6  C   UNL     1       6.062  -6.503  -1.408  0.00  0.00    +0.240 C 
ATOM      7  O   UNL     1       6.073  -5.385  -1.876  0.00  0.00    -0.274 OA
ENDROOT
BRANCH   1  12
ATOM      8  C   UNL     1       9.191  -7.768  -4.580  0.00  0.00    +0.003 A 
ATOM      9  C   UNL     1       8.462  -7.492  -5.719  0.00  0.00    +0.015 A 
ATOM     10  C   UNL     1       7.091  -7.246  -5.628  0.00  0.00    +0.065 A 
ATOM     11  C   UNL     1       6.462  -7.280  -4.383  0.00  0.00    +0.039 A 
ATOM     12  C   UNL     1       7.203  -7.558  -3.245  0.00  0.00    +0.045 A 
ATOM     13  C   UNL     1       8.568  -7.796  -3.346  0.00  0.00    +0.024 A 
BRANCH  10  14
ATOM     14  C   UNL     1       6.308  -6.952  -6.846  0.00  0.00    +0.387 C 
ATOM     15  O   UNL     1       5.115  -6.738  -6.764  0.00  0.00    -0.241 OA
ATOM     16  O   UNL     1       6.917  -6.919  -8.047  0.00  0.00    -0.241 OA
ENDBRANCH  10  14
ENDBRANCH   1  12
BRANCH   5  17
ATOM     17  S   UNL     1       3.688  -6.545  -0.046  0.00  0.00    -0.076 S 
BRANCH  17  18
ATOM     18  C   UNL     1       3.717  -4.784  -0.006  0.00  0.00    +0.167 C 
ATOM     19  N   UNL     1       4.858  -4.150  -0.003  0.00  0.00    -0.279 NA
ATOM     20  N   UNL     1       2.537  -4.075   0.023  0.00  0.00    -0.216 N 
ATOM     21  H   UNL     1       5.690  -4.649  -0.023  0.00  0.00    +0.189 HD
ATOM     22  H   UNL     1       1.689  -4.546   0.021  0.00  0.00    +0.176 HD
BRANCH  20  23
ATOM     23  N   UNL     1       2.560  -2.675   0.055  0.00  0.00    -0.188 NA
ATOM     24  C   UNL     1       1.448  -2.008   0.082  0.00  0.00    +0.138 C 
BRANCH  24  25
ATOM     25  C   UNL     1       1.473  -0.534   0.116  0.00  0.00    -0.005 A 
ATOM     26  C   UNL     1       0.277   0.188   0.145  0.00  0.00    +0.011 A 
ATOM     27  C   UNL     1       0.307   1.566   0.177  0.00  0.00    +0.020 A 
ATOM     28  C   UNL     1       1.519   2.235   0.180  0.00  0.00    +0.041 A 
ATOM     29  C   UNL     1       2.709   1.526   0.152  0.00  0.00    +0.020 A 
ATOM     30  C   UNL     1       2.692   0.147   0.119  0.00  0.00    +0.011 A 
ATOM     31 CL   UNL     1       1.549   3.970   0.221  0.00  0.00    -0.084 Cl
ENDBRANCH  24  25
ENDBRANCH  20  23
ENDBRANCH  17  18
ENDBRANCH   5  17
TORSDOF 6
