REMARK  Name = ZINC13002667
REMARK  7 active torsions:
REMARK  status: ('A' for Active; 'I' for Inactive)
REMARK    1  A    between atoms: C_1  and  C_2
REMARK    2  A    between atoms: C_5  and  N_9
REMARK    3  A    between atoms: C_10  and  C_12
REMARK    4  A    between atoms: C_12  and  N_13
REMARK    5  A    between atoms: C_14  and  C_28
REMARK    6  A    between atoms: C_20  and  C_23
REMARK    7  A    between atoms: C_28  and  N_59
REMARK                            x       y       z     vdW  Elec       q    Type
REMARK                         _______ _______ _______ _____ _____    ______ ____
ROOT
ATOM      1  N   UNL     1       3.497   5.396   2.760  0.00  0.00    -0.289 N 
ATOM      2  C   UNL     1       3.804   6.706   2.581  0.00  0.00    +0.097 A 
ATOM      3  N   UNL     1       3.213   7.417   1.658  0.00  0.00    -0.228 NA
ATOM      4  C   UNL     1       2.291   6.880   0.864  0.00  0.00    +0.116 A 
ATOM      5  C   UNL     1       1.905   5.535   0.979  0.00  0.00    +0.080 A 
ATOM      6  C   UNL     1       2.575   4.782   1.995  0.00  0.00    +0.263 A 
ATOM      7  O   UNL     1       2.311   3.605   2.168  0.00  0.00    -0.267 OA
ATOM      8  C   UNL     1       0.886   5.100   0.030  0.00  0.00    +0.010 A 
ATOM      9  C   UNL     1       0.396   6.002  -0.858  0.00  0.00    +0.057 A 
ATOM     10  S   UNL     1       1.291   7.493  -0.468  0.00  0.00    -0.076 S 
ENDROOT
BRANCH   8  11
ATOM     11  C   UNL     1       0.393   3.707   0.039  0.00  0.00    +0.021 A 
ATOM     12  C   UNL     1      -0.898   3.249   0.058  0.00  0.00    +0.016 A 
ATOM     13  C   UNL     1      -1.117   1.887   0.056  0.00  0.00    +0.008 A 
ATOM     14  C   UNL     1      -0.052   1.046   0.047  0.00  0.00    +0.046 A 
ATOM     15  S   UNL     1       1.324   2.184   0.026  0.00  0.00    -0.097 S 
ENDBRANCH   8  11
BRANCH   1  16
ATOM     16  C   UNL     1       4.184   4.634   3.806  0.00  0.00    +0.222 C 
BRANCH  16  18
ATOM     17  N   UNL     1       3.852   4.111   6.201  0.00  0.00    -0.282 N 
ATOM     18  C   UNL     1       3.407   4.737   5.094  0.00  0.00    +0.237 C 
ATOM     19  O   UNL     1       2.381   5.383   5.133  0.00  0.00    -0.274 OA
ATOM     20  H   UNL     1       4.637   3.542   6.155  0.00  0.00    +0.155 HD
BRANCH  17  25
ATOM     21  C   UNL     1       1.137   4.801  11.137  0.00  0.00    +0.044 C 
ATOM     22  C   UNL     1       1.859   4.618   9.827  0.00  0.00    -0.048 A 
ATOM     23  C   UNL     1       1.145   4.598   8.643  0.00  0.00    +0.005 A 
ATOM     24  C   UNL     1       1.803   4.430   7.440  0.00  0.00    +0.026 A 
ATOM     25  C   UNL     1       3.183   4.282   7.419  0.00  0.00    +0.069 A 
ATOM     26  C   UNL     1       3.898   4.298   8.612  0.00  0.00    +0.145 A 
ATOM     27  C   UNL     1       3.233   4.471   9.812  0.00  0.00    +0.043 A 
ATOM     28  F   UNL     1       5.241   4.149   8.597  0.00  0.00    -0.204 F 
ENDBRANCH  17  25
ENDBRANCH  16  18
ENDBRANCH   1  16
BRANCH   2  29
ATOM     29  C   UNL     1       4.843   7.351   3.461  0.00  0.00    -0.003 C 
BRANCH  29  35
ATOM     30  C   UNL     1       5.559   8.881   1.727  0.00  0.00    -0.078 C 
ATOM     31  C   UNL     1       5.573  10.353   1.309  0.00  0.00    -0.019 C 
ATOM     32  C   UNL     1       6.421  11.152   2.303  0.00  0.00    -0.004 C 
ATOM     33  C   UNL     1       5.848  10.971   3.711  0.00  0.00    -0.019 C 
ATOM     34  C   UNL     1       5.825   9.481   4.059  0.00  0.00    -0.078 C 
ATOM     35  N   UNL     1       4.974   8.772   3.080  0.00  0.00    +0.384 N 
ATOM     36  H   UNL     1       4.042   9.203   3.075  0.00  0.00    -0.081 HD
ENDBRANCH  29  35
ENDBRANCH   2  29
TORSDOF 6
