REMARK  Name = ZINC67066446
REMARK  9 active torsions:
REMARK  status: ('A' for Active; 'I' for Inactive)
REMARK    1  A    between atoms: C_1  and  C_2
REMARK    2  A    between atoms: C_5  and  O_8
REMARK    3  A    between atoms: O_8  and  C_9
REMARK    4  A    between atoms: C_9  and  C_10
REMARK    5  A    between atoms: C_10  and  C_12
REMARK    6  A    between atoms: C_10  and  N_13
REMARK    7  A    between atoms: C_19  and  N_22
REMARK    8  A    between atoms: C_23  and  C_25
REMARK    9  A    between atoms: C_29  and  C_30
REMARK                            x       y       z     vdW  Elec       q    Type
REMARK                         _______ _______ _______ _____ _____    ______ ____
ROOT
ATOM      1  N   UNL     1       1.343  -6.689   0.388  0.00  0.00    -0.293 N 
ATOM      2  C   UNL     1       1.825  -7.937   0.544  0.00  0.00    +0.303 C 
ATOM      3  O   UNL     1       1.270  -8.714   1.297  0.00  0.00    -0.253 OA
ATOM      4  N   UNL     1       2.923  -8.325  -0.134  0.00  0.00    -0.286 N 
ATOM      5  C   UNL     1       3.673  -7.366  -0.957  0.00  0.00    +0.111 C 
ATOM      6  C   UNL     1       3.815  -7.936  -2.372  0.00  0.00    +0.041 C 
ATOM      7  C   UNL     1       4.447  -9.328  -2.297  0.00  0.00    +0.076 C 
ATOM      8  C   UNL     1       3.539 -10.259  -1.490  0.00  0.00    +0.041 C 
ATOM      9  C   UNL     1       3.397  -9.714  -0.060  0.00  0.00    +0.111 C 
ATOM     10  H   UNL     1       1.827  -6.046  -0.154  0.00  0.00    +0.151 HD
ENDROOT
BRANCH   7  11
ATOM     11  N   UNL     1       4.614  -9.862  -3.651  0.00  0.00    -0.308 N 
ATOM     12  C   UNL     1       5.561 -10.789  -3.897  0.00  0.00    +0.248 C 
ATOM     13  O   UNL     1       6.276 -11.182  -2.995  0.00  0.00    -0.270 OA
ATOM     14  H   UNL     1       4.044  -9.548  -4.370  0.00  0.00    +0.149 HD
BRANCH  12  15
ATOM     15  C   UNL     1       5.729 -11.326  -5.259  0.00  0.00    +0.077 A 
ATOM     16  C   UNL     1       4.963 -10.962  -6.459  0.00  0.00    +0.054 A 
ATOM     17  C   UNL     1       5.467 -11.703  -7.458  0.00  0.00    +0.196 A 
ATOM     18  O   UNL     1       6.456 -12.473  -6.978  0.00  0.00    -0.467 OA
ATOM     19  C   UNL     1       6.633 -12.261  -5.670  0.00  0.00    +0.114 A 
ATOM     20  C   UNL     1       7.657 -12.942  -4.798  0.00  0.00    +0.087 C 
ENDBRANCH  12  15
ENDBRANCH   7  11
BRANCH   1  21
ATOM     21  C   UNL     1       0.089  -6.301   1.038  0.00  0.00    +0.109 C 
ATOM     22  C   UNL     1      -1.091  -6.710   0.154  0.00  0.00    +0.031 C 
BRANCH  21  23
ATOM     23  C   UNL     1       0.069  -4.785   1.247  0.00  0.00    +0.251 C 
BRANCH  23  24
ATOM     24  O   UNL     1       0.055  -4.130  -0.023  0.00  0.00    -0.490 OA
BRANCH  24  29
ATOM     25  C   UNL     1      -0.023   1.502   0.007  0.00  0.00    +0.044 C 
ATOM     26  C   UNL     1      -0.002  -0.005  -0.001  0.00  0.00    -0.050 A 
ATOM     27  C   UNL     1       0.003  -0.689  -1.203  0.00  0.00    +0.007 A 
ATOM     28  C   UNL     1       0.022  -2.070  -1.213  0.00  0.00    +0.046 A 
ATOM     29  C   UNL     1       0.037  -2.771  -0.016  0.00  0.00    +0.121 A 
ATOM     30  C   UNL     1       0.032  -2.083   1.188  0.00  0.00    +0.046 A 
ATOM     31  C   UNL     1       0.018  -0.702   1.193  0.00  0.00    +0.007 A 
ENDBRANCH  24  29
ENDBRANCH  23  24
ENDBRANCH  21  23
ENDBRANCH   1  21
TORSDOF 6
