REMARK  Name = ZINC32939859
REMARK  10 active torsions:
REMARK  status: ('A' for Active; 'I' for Inactive)
REMARK    1  A    between atoms: C_1  and  C_2
REMARK    2  A    between atoms: C_2  and  N_3
REMARK    3  A    between atoms: N_3  and  S_4
REMARK    4  A    between atoms: S_4  and  C_7
REMARK    5  A    between atoms: C_10  and  C_13
REMARK    6  A    between atoms: C_14  and  C_15
REMARK    7  A    between atoms: N_17  and  C_18
REMARK    8  A    between atoms: C_18  and  C_19
REMARK    9  A    between atoms: C_19  and  C_21
REMARK   10  A    between atoms: C_19  and  C_27
REMARK                            x       y       z     vdW  Elec       q    Type
REMARK                         _______ _______ _______ _____ _____    ______ ____
ROOT
ATOM      1  C   UNL     1      -6.565   4.546   2.426  0.00  0.00    +0.237 C 
ATOM      2  O   UNL     1      -6.067   5.236   3.296  0.00  0.00    -0.271 OA
ATOM      3  N   UNL     1      -5.813   4.117   1.394  0.00  0.00    -0.311 N 
ATOM      4  H   UNL     1      -6.263   3.493   0.607  0.00  0.00    +0.149 HD
ENDROOT
BRANCH   1   6
ATOM      5  C   UNL     1      -8.735   4.614   3.533  0.00  0.00    +0.013 C 
ATOM      6  C   UNL     1      -7.982   4.184   2.500  0.00  0.00    +0.068 C 
BRANCH   5  10
ATOM      7  C   UNL     1     -12.839   3.566   3.747  0.00  0.00    +0.105 A 
ATOM      8  C   UNL     1     -12.277   4.349   4.739  0.00  0.00    +0.029 A 
ATOM      9  C   UNL     1     -10.943   4.694   4.676  0.00  0.00    +0.010 A 
ATOM     10  C   UNL     1     -10.159   4.250   3.607  0.00  0.00    -0.025 A 
ATOM     11  C   UNL     1     -10.736   3.463   2.606  0.00  0.00    +0.010 A 
ATOM     12  C   UNL     1     -12.070   3.122   2.685  0.00  0.00    +0.029 A 
BRANCH   7  13
ATOM     13  S   UNL     1     -14.545   3.130   3.836  0.00  0.00    +0.058 S 
ATOM     14  O   UNL     1     -14.700   1.940   3.075  0.00  0.00    -0.153 OA
ATOM     15  O   UNL     1     -14.914   3.213   5.205  0.00  0.00    -0.153 OA
BRANCH  13  16
ATOM     16  N   UNL     1     -15.393   4.311   3.045  0.00  0.00    -0.190 NA
ATOM     17  H   UNL     1     -15.962   5.049   3.630  0.00  0.00    +0.148 HD
BRANCH  16  19
ATOM     18  C   UNL     1     -16.349   5.369   1.057  0.00  0.00    +0.022 C 
ATOM     19  C   UNL     1     -15.212   4.503   1.603  0.00  0.00    +0.102 C 
ENDBRANCH  16  19
ENDBRANCH  13  16
ENDBRANCH   7  13
ENDBRANCH   5  10
ENDBRANCH   1   6
BRANCH   3  20
ATOM     20  C   UNL     1      -4.395   4.479   1.320  0.00  0.00    +0.117 C 
BRANCH  20  21
ATOM     21  C   UNL     1      -3.778   3.868   0.060  0.00  0.00    +0.068 C 
BRANCH  21  22
ATOM     22  C   UNL     1      -2.295   4.136   0.046  0.00  0.00    -0.013 A 
ATOM     23  C   UNL     1      -1.702   5.341   0.047  0.00  0.00    +0.088 A 
ATOM     24  N   UNL     1      -0.342   5.191   0.033  0.00  0.00    -0.360 N 
ATOM     25  H   UNL     1       0.309   6.077   0.031  0.00  0.00    +0.165 HD
ATOM     26  C   UNL     1      -0.018   3.852   0.022  0.00  0.00    +0.047 A 
ATOM     27  C   UNL     1      -1.228   3.133   0.031  0.00  0.00    +0.003 A 
ATOM     28  C   UNL     1      -1.208   1.738   0.017  0.00  0.00    +0.010 A 
ATOM     29  C   UNL     1      -0.013   1.076   0.008  0.00  0.00    +0.001 A 
ATOM     30  C   UNL     1       1.183   1.781   0.000  0.00  0.00    +0.002 A 
ATOM     31  C   UNL     1       1.187   3.158   0.007  0.00  0.00    +0.026 A 
ENDBRANCH  21  22
BRANCH  21  32
ATOM     32  C   UNL     1      -4.412   4.484  -1.160  0.00  0.00    -0.038 A 
ATOM     33  C   UNL     1      -4.326   5.848  -1.369  0.00  0.00    +0.004 A 
ATOM     34  C   UNL     1      -4.904   6.413  -2.490  0.00  0.00    +0.000 A 
ATOM     35  C   UNL     1      -5.575   5.616  -3.398  0.00  0.00    +0.000 A 
ATOM     36  C   UNL     1      -5.664   4.253  -3.187  0.00  0.00    +0.000 A 
ATOM     37  C   UNL     1      -5.083   3.687  -2.068  0.00  0.00    +0.004 A 
ENDBRANCH  21  32
ENDBRANCH  20  21
ENDBRANCH   3  20
TORSDOF 9
