REMARK  Name = ZINC64774371
REMARK  10 active torsions:
REMARK  status: ('A' for Active; 'I' for Inactive)
REMARK    1  A    between atoms: C_1  and  C_2
REMARK    2  A    between atoms: C_2  and  C_3
REMARK    3  A    between atoms: C_3  and  O_4
REMARK    4  A    between atoms: O_4  and  C_5
REMARK    5  A    between atoms: C_6  and  C_13
REMARK    6  A    between atoms: C_10  and  O_11
REMARK    7  A    between atoms: O_11  and  C_12
REMARK    8  A    between atoms: C_21  and  S_27
REMARK    9  A    between atoms: S_27  and  C_28
REMARK   10  A    between atoms: C_28  and  C_29
REMARK                            x       y       z     vdW  Elec       q    Type
REMARK                         _______ _______ _______ _____ _____    ______ ____
ROOT
ATOM      1  C   UNL     1       3.533  -2.286   0.811  0.00  0.00    +0.050 C 
ATOM      2  C   UNL     1       4.083  -3.495   0.049  0.00  0.00    +0.105 C 
ATOM      3  C   UNL     1       5.266  -4.084   0.758  0.00  0.00    +0.219 C 
ATOM      4  O   UNL     1       5.581  -5.225   0.495  0.00  0.00    -0.275 OA
ATOM      5  N   UNL     1       5.995  -3.419   1.665  0.00  0.00    -0.273 N 
ATOM      6  C   UNL     1       5.643  -2.159   2.061  0.00  0.00    +0.117 C 
ATOM      7  N   UNL     1       6.101  -1.659   3.172  0.00  0.00    -0.212 NA
ATOM      8  C   UNL     1       5.689  -0.476   3.645  0.00  0.00    +0.182 C 
ATOM      9  N   UNL     1       4.756   0.241   3.035  0.00  0.00    -0.154 NA
ATOM     10  C   UNL     1       4.232  -0.137   1.879  0.00  0.00    +0.249 C 
ATOM     11  O   UNL     1       3.350   0.532   1.375  0.00  0.00    -0.273 OA
ATOM     12  C   UNL     1       4.705  -1.373   1.179  0.00  0.00    +0.148 C 
ATOM     13  H   UNL     1       6.782  -3.838   2.047  0.00  0.00    +0.156 HD
ENDROOT
BRANCH   1  15
ATOM     14  C   UNL     1       1.476  -2.546   2.220  0.00  0.00    +0.165 A 
ATOM     15  C   UNL     1       2.838  -2.751   2.065  0.00  0.00    +0.003 A 
ATOM     16  C   UNL     1       3.559  -3.382   3.062  0.00  0.00    +0.008 A 
ATOM     17  C   UNL     1       2.924  -3.810   4.213  0.00  0.00    +0.004 A 
ATOM     18  C   UNL     1       1.566  -3.609   4.373  0.00  0.00    +0.049 A 
ATOM     19  C   UNL     1       0.839  -2.971   3.381  0.00  0.00    +0.162 A 
BRANCH  19  20
ATOM     20  O   UNL     1      -0.497  -2.767   3.539  0.00  0.00    -0.491 OA
ATOM     21  C   UNL     1      -1.084  -3.231   4.757  0.00  0.00    +0.277 C 
ENDBRANCH  19  20
BRANCH  14  22
ATOM     22  O   UNL     1       0.765  -1.924   1.241  0.00  0.00    -0.488 OA
BRANCH  22  23
ATOM     23  C   UNL     1       0.508  -0.529   1.412  0.00  0.00    +0.229 C 
BRANCH  23  25
ATOM     24  C   UNL     1      -0.455   1.514   0.343  0.00  0.00    +0.007 C 
ATOM     25  C   UNL     1      -0.179   0.020   0.160  0.00  0.00    +0.038 C 
ENDBRANCH  23  25
ENDBRANCH  22  23
ENDBRANCH  14  22
ENDBRANCH   1  15
BRANCH   8  26
ATOM     26  S   UNL     1       6.410   0.147   5.128  0.00  0.00    -0.084 S 
BRANCH  26  27
ATOM     27  C   UNL     1       5.572   1.734   5.390  0.00  0.00    +0.103 C 
BRANCH  27  28
ATOM     28  C   UNL     1       6.102   2.381   6.643  0.00  0.00    -0.023 C 
ATOM     29  C   UNL     1       6.764   3.509   6.568  0.00  0.00    +0.005 C 
ENDBRANCH  27  28
ENDBRANCH  26  27
ENDBRANCH   8  26
TORSDOF 8
