REMARK  Name = ZINC05188605
REMARK  7 active torsions:
REMARK  status: ('A' for Active; 'I' for Inactive)
REMARK    1  A    between atoms: C_1  and  C_2
REMARK    2  A    between atoms: C_5  and  N_9
REMARK    3  A    between atoms: C_7  and  C_8
REMARK    4  A    between atoms: C_11  and  N_16
REMARK    5  A    between atoms: N_19  and  C_20
REMARK    6  A    between atoms: C_23  and  N_26
REMARK    7  A    between atoms: C_27  and  C_29
REMARK                            x       y       z     vdW  Elec       q    Type
REMARK                         _______ _______ _______ _____ _____    ______ ____
ROOT
ATOM      1  N   UNL     1      -4.528   7.205   0.402  0.00  0.00    -0.294 N 
ATOM      2  C   UNL     1      -5.589   7.900  -0.055  0.00  0.00    +0.304 C 
ATOM      3  O   UNL     1      -6.010   7.699  -1.178  0.00  0.00    -0.253 OA
ATOM      4  N   UNL     1      -6.184   8.817   0.733  0.00  0.00    -0.269 N 
ATOM      5  H   UNL     1      -4.193   7.365   1.298  0.00  0.00    +0.151 HD
ATOM      6  H   UNL     1      -5.803   9.033   1.599  0.00  0.00    +0.156 HD
ENDROOT
BRANCH   1   9
ATOM      7  N   UNL     1      -2.274   4.449  -0.194  0.00  0.00    -0.270 N 
ATOM      8  C   UNL     1      -2.459   5.882   0.058  0.00  0.00    +0.136 C 
ATOM      9  C   UNL     1      -3.882   6.208  -0.455  0.00  0.00    +0.101 C 
ATOM     10  C   UNL     1      -4.582   4.835  -0.330  0.00  0.00    +0.120 C 
ATOM     11  C   UNL     1      -3.450   3.833  -0.406  0.00  0.00    +0.222 C 
ATOM     12  O   UNL     1      -3.585   2.648  -0.627  0.00  0.00    -0.275 OA
BRANCH   7  17
ATOM     13  C   UNL     1       2.760   1.833  -0.241  0.00  0.00    +0.044 C 
ATOM     14  C   UNL     1       1.423   2.528  -0.229  0.00  0.00    -0.047 A 
ATOM     15  C   UNL     1       0.260   1.788  -0.341  0.00  0.00    +0.005 A 
ATOM     16  C   UNL     1      -0.967   2.421  -0.329  0.00  0.00    +0.024 A 
ATOM     17  C   UNL     1      -1.032   3.803  -0.206  0.00  0.00    +0.037 A 
ATOM     18  C   UNL     1       0.137   4.543  -0.090  0.00  0.00    +0.027 A 
ATOM     19  C   UNL     1       1.362   3.904  -0.107  0.00  0.00    -0.046 A 
ATOM     20  C   UNL     1       2.632   4.706   0.014  0.00  0.00    +0.044 C 
ENDBRANCH   7  17
ENDBRANCH   1   9
BRANCH   4  21
ATOM     21  C   UNL     1      -7.353   9.459   0.302  0.00  0.00    +0.035 A 
ATOM     22  C   UNL     1      -7.601  10.773   0.676  0.00  0.00    +0.025 A 
ATOM     23  C   UNL     1      -8.750  11.407   0.248  0.00  0.00    +0.025 A 
ATOM     24  C   UNL     1      -9.662  10.727  -0.549  0.00  0.00    +0.033 A 
ATOM     25  C   UNL     1      -9.416   9.412  -0.919  0.00  0.00    +0.025 A 
ATOM     26  C   UNL     1      -8.265   8.779  -0.494  0.00  0.00    +0.025 A 
BRANCH  24  27
ATOM     27  N   UNL     1     -10.830  11.369  -0.980  0.00  0.00    -0.286 N 
ATOM     28  C   UNL     1     -11.969  10.665  -1.135  0.00  0.00    +0.214 C 
ATOM     29  O   UNL     1     -12.007   9.496  -0.813  0.00  0.00    -0.276 OA
ATOM     30  C   UNL     1     -13.194  11.329  -1.708  0.00  0.00    +0.109 C 
ATOM     31  H   UNL     1     -10.820  12.321  -1.167  0.00  0.00    +0.155 HD
ENDBRANCH  24  27
ENDBRANCH   4  21
TORSDOF 4
