REMARK  Name = ZINC12586045
REMARK  8 active torsions:
REMARK  status: ('A' for Active; 'I' for Inactive)
REMARK    1  A    between atoms: C_1  and  C_2
REMARK    2  A    between atoms: C_2  and  C_3
REMARK    3  A    between atoms: C_5  and  C_8
REMARK    4  A    between atoms: C_8  and  N_9
REMARK    5  A    between atoms: C_19  and  C_21
REMARK    6  A    between atoms: C_21  and  C_22
REMARK    7  A    between atoms: N_24  and  C_25
REMARK    8  A    between atoms: C_28  and  C_31
REMARK                            x       y       z     vdW  Elec       q    Type
REMARK                         _______ _______ _______ _____ _____    ______ ____
ROOT
ATOM      1  N   UNL     1      -1.855   0.915   1.319  0.00  0.00    -0.311 N 
ATOM      2  C   UNL     1      -1.771  -0.435   1.672  0.00  0.00    +0.052 A 
ATOM      3  C   UNL     1      -2.773  -1.314   1.285  0.00  0.00    +0.025 A 
ATOM      4  C   UNL     1      -2.713  -2.641   1.669  0.00  0.00    +0.002 A 
ATOM      5  C   UNL     1      -1.658  -3.098   2.437  0.00  0.00    +0.002 A 
ATOM      6  C   UNL     1      -0.650  -2.231   2.818  0.00  0.00    +0.025 A 
ATOM      7  C   UNL     1      -0.700  -0.901   2.432  0.00  0.00    +0.055 A 
ATOM      8  N   UNL     1       0.327  -0.020   2.801  0.00  0.00    -0.282 N 
ATOM      9  C   UNL     1       0.402   1.184   2.197  0.00  0.00    +0.238 C 
ATOM     10  O   UNL     1       1.218   2.003   2.564  0.00  0.00    -0.273 OA
ATOM     11  C   UNL     1      -0.537   1.503   1.062  0.00  0.00    +0.169 C 
ATOM     12  H   UNL     1       0.974  -0.273   3.479  0.00  0.00    +0.155 HD
ENDROOT
BRANCH   1  13
ATOM     13  C   UNL     1      -2.749   1.103   0.169  0.00  0.00    +0.161 C 
BRANCH  13  16
ATOM     14  C   UNL     1      -3.904   4.592   0.283  0.00  0.00    +0.078 A 
ATOM     15  N   UNL     1      -3.771   3.309   0.526  0.00  0.00    -0.247 NA
ATOM     16  C   UNL     1      -2.890   2.575  -0.122  0.00  0.00    +0.066 A 
ATOM     17  C   UNL     1      -2.108   3.179  -1.053  0.00  0.00    +0.071 A 
ATOM     18  S   UNL     1      -2.716   4.856  -0.955  0.00  0.00    -0.080 S 
BRANCH  14  20
ATOM     19  C   UNL     1      -4.135   6.301   2.065  0.00  0.00    +0.011 C 
ATOM     20  C   UNL     1      -4.847   5.583   0.916  0.00  0.00    +0.059 C 
ENDBRANCH  14  20
ENDBRANCH  13  16
ENDBRANCH   1  13
BRANCH  11  21
ATOM     21  C   UNL     1       0.028   0.932  -0.240  0.00  0.00    +0.128 C 
BRANCH  21  22
ATOM     22  C   UNL     1       1.303   1.654  -0.594  0.00  0.00    +0.219 C 
ATOM     23  O   UNL     1       1.658   2.613   0.059  0.00  0.00    -0.275 OA
ATOM     24  N   UNL     1       2.049   1.235  -1.635  0.00  0.00    -0.285 N 
ATOM     25  H   UNL     1       1.731   0.512  -2.199  0.00  0.00    +0.155 HD
BRANCH  24  26
ATOM     26  C   UNL     1       3.280   1.842  -1.903  0.00  0.00    +0.033 A 
ATOM     27  C   UNL     1       3.447   3.204  -1.686  0.00  0.00    +0.023 A 
ATOM     28  C   UNL     1       4.665   3.800  -1.948  0.00  0.00    +0.005 A 
ATOM     29  C   UNL     1       5.716   3.044  -2.435  0.00  0.00    -0.050 A 
ATOM     30  C   UNL     1       5.552   1.688  -2.656  0.00  0.00    +0.005 A 
ATOM     31  C   UNL     1       4.337   1.086  -2.392  0.00  0.00    +0.023 A 
ATOM     32  C   UNL     1       7.042   3.698  -2.724  0.00  0.00    +0.044 C 
ENDBRANCH  24  26
ENDBRANCH  21  22
ENDBRANCH  11  21
TORSDOF 6
