REMARK  Name = ZINC38211801
REMARK  10 active torsions:
REMARK  status: ('A' for Active; 'I' for Inactive)
REMARK    1  A    between atoms: C_4  and  C_7
REMARK    2  A    between atoms: C_7  and  N_8
REMARK    3  A    between atoms: N_8  and  C_9
REMARK    4  A    between atoms: N_8  and  C_25
REMARK    5  A    between atoms: C_9  and  C_10
REMARK    6  A    between atoms: C_10  and  C_12
REMARK    7  A    between atoms: C_10  and  O_24
REMARK    8  A    between atoms: C_25  and  C_26
REMARK    9  A    between atoms: C_26  and  C_28
REMARK   10  A    between atoms: C_26  and  O_40
REMARK                            x       y       z     vdW  Elec       q    Type
REMARK                         _______ _______ _______ _____ _____    ______ ____
ROOT
ATOM      1  N   UNL     1       4.074  -0.331   0.671  0.00  0.00    +0.386 N 
ATOM      2  H   UNL     1       4.397   0.616   0.805  0.00  0.00    -0.081 HD
ENDROOT
BRANCH   1   3
ATOM      3  C   UNL     1       3.717  -0.532  -0.739  0.00  0.00    -0.043 C 
BRANCH   3   7
ATOM      4  C   UNL     1       1.947  -4.390  -1.225  0.00  0.00    +0.000 A 
ATOM      5  C   UNL     1       1.146  -3.284  -1.005  0.00  0.00    +0.000 A 
ATOM      6  C   UNL     1       1.719  -2.036  -0.848  0.00  0.00    +0.002 A 
ATOM      7  C   UNL     1       3.092  -1.893  -0.910  0.00  0.00    -0.064 A 
ATOM      8  C   UNL     1       3.893  -2.998  -1.129  0.00  0.00    +0.002 A 
ATOM      9  C   UNL     1       3.320  -4.247  -1.288  0.00  0.00    +0.000 A 
ENDBRANCH   3   7
ENDBRANCH   1   3
BRANCH   1  10
ATOM     10  C   UNL     1       2.895  -0.569   1.514  0.00  0.00    -0.043 C 
BRANCH  10  11
ATOM     11  C   UNL     1       1.845   0.509   1.239  0.00  0.00    +0.139 C 
BRANCH  11  12
ATOM     12  C   UNL     1       0.565   0.185   2.012  0.00  0.00    +0.200 C 
ATOM     13  C   UNL     1      -0.495   1.256   1.729  0.00  0.00    +0.052 C 
ATOM     14  C   UNL     1      -1.719   0.964   2.601  0.00  0.00    +0.042 C 
ATOM     15  C   UNL     1      -2.091  -0.492   2.482  0.00  0.00    -0.003 A 
ATOM     16  C   UNL     1      -3.358  -0.890   2.874  0.00  0.00    +0.045 A 
ATOM     17  C   UNL     1      -3.732  -2.218   2.782  0.00  0.00    +0.124 A 
ATOM     18  C   UNL     1      -2.836  -3.156   2.297  0.00  0.00    +0.042 A 
ATOM     19  C   UNL     1      -1.573  -2.764   1.905  0.00  0.00    +0.049 A 
ATOM     20  C   UNL     1      -1.196  -1.427   1.994  0.00  0.00    +0.124 A 
ATOM     21  O   UNL     1       0.054  -1.079   1.588  0.00  0.00    -0.486 OA
ATOM     22  F   UNL     1      -4.970  -2.600   3.166  0.00  0.00    -0.205 F 
ENDBRANCH  11  12
BRANCH  11  23
ATOM     23  O   UNL     1       2.346   1.780   1.658  0.00  0.00    -0.390 OA
ATOM     24  H   UNL     1       2.562   1.827   2.599  0.00  0.00    +0.210 HD
ENDBRANCH  11  23
ENDBRANCH  10  11
ENDBRANCH   1  10
BRANCH   1  25
ATOM     25  C   UNL     1       5.141  -1.270   1.045  0.00  0.00    -0.043 C 
BRANCH  25  26
ATOM     26  C   UNL     1       6.466  -0.803   0.440  0.00  0.00    +0.139 C 
BRANCH  26  27
ATOM     27  C   UNL     1       7.607  -1.665   0.984  0.00  0.00    +0.200 C 
ATOM     28  C   UNL     1       8.917  -1.294   0.278  0.00  0.00    +0.052 C 
ATOM     29  C   UNL     1      10.053  -2.094   0.921  0.00  0.00    +0.042 C 
ATOM     30  C   UNL     1       9.656  -3.545   1.024  0.00  0.00    -0.003 A 
ATOM     31  C   UNL     1      10.647  -4.494   1.219  0.00  0.00    +0.045 A 
ATOM     32  C   UNL     1      10.319  -5.833   1.322  0.00  0.00    +0.124 A 
ATOM     33  C   UNL     1       8.995  -6.229   1.231  0.00  0.00    +0.042 A 
ATOM     34  C   UNL     1       8.006  -5.287   1.036  0.00  0.00    +0.049 A 
ATOM     35  C   UNL     1       8.334  -3.939   0.929  0.00  0.00    +0.124 A 
ATOM     36  O   UNL     1       7.332  -3.043   0.727  0.00  0.00    -0.486 OA
ATOM     37  F   UNL     1      11.289  -6.754   1.511  0.00  0.00    -0.205 F 
ENDBRANCH  26  27
BRANCH  26  38
ATOM     38  O   UNL     1       6.411  -0.927  -0.982  0.00  0.00    -0.390 OA
ATOM     39  H   UNL     1       6.354  -1.840  -1.295  0.00  0.00    +0.210 HD
ENDBRANCH  26  38
ENDBRANCH  25  26
ENDBRANCH   1  25
TORSDOF 10
