REMARK  Name = ZINC62576188
REMARK  10 active torsions:
REMARK  status: ('A' for Active; 'I' for Inactive)
REMARK    1  A    between atoms: C_1  and  C_2
REMARK    2  A    between atoms: C_5  and  C_8
REMARK    3  A    between atoms: C_10  and  C_14
REMARK    4  A    between atoms: C_11  and  C_13
REMARK    5  A    between atoms: C_14  and  C_15
REMARK    6  A    between atoms: C_15  and  N_16
REMARK    7  A    between atoms: N_16  and  S_17
REMARK    8  A    between atoms: S_17  and  C_20
REMARK    9  A    between atoms: C_21  and  C_27
REMARK   10  A    between atoms: C_25  and  C_26
REMARK                            x       y       z     vdW  Elec       q    Type
REMARK                         _______ _______ _______ _____ _____    ______ ____
ROOT
ATOM      1  C   UNL     1       0.101  -7.514   1.536  0.00  0.00    +0.076 C 
ENDROOT
BRANCH   1   4
ATOM      2  C   UNL     1       0.058  -4.251  -0.021  0.00  0.00    +0.228 A 
ATOM      3  N   UNL     1       0.068  -5.023   1.040  0.00  0.00    -0.214 NA
ATOM      4  C   UNL     1       0.085  -6.303   0.639  0.00  0.00    +0.084 A 
ATOM      5  C   UNL     1       0.085  -6.314  -0.707  0.00  0.00    +0.126 A 
ATOM      6  O   UNL     1       0.062  -5.030  -1.117  0.00  0.00    -0.440 OA
ATOM      7  C   UNL     1       0.101  -7.534  -1.591  0.00  0.00    +0.088 C 
BRANCH   2  12
ATOM      8  C   UNL     1      -0.018   1.503   0.010  0.00  0.00    +0.044 C 
ATOM      9  C   UNL     1       0.002  -0.004   0.002  0.00  0.00    -0.050 A 
ATOM     10  C   UNL     1       0.006  -0.686  -1.202  0.00  0.00    +0.004 A 
ATOM     11  C   UNL     1       0.024  -2.066  -1.216  0.00  0.00    +0.013 A 
ATOM     12  C   UNL     1       0.039  -2.773  -0.013  0.00  0.00    +0.037 A 
ATOM     13  C   UNL     1       0.036  -2.079   1.198  0.00  0.00    +0.013 A 
ATOM     14  C   UNL     1       0.023  -0.699   1.198  0.00  0.00    +0.004 A 
ENDBRANCH   2  12
ENDBRANCH   1   4
BRANCH   1  15
ATOM     15  C   UNL     1      -1.336  -7.943   1.839  0.00  0.00    +0.112 C 
BRANCH  15  16
ATOM     16  N   UNL     1      -1.320  -9.120   2.711  0.00  0.00    -0.189 NA
ATOM     17  H   UNL     1      -0.502  -9.629   2.825  0.00  0.00    +0.148 HD
BRANCH  16  18
ATOM     18  S   UNL     1      -2.699  -9.583   3.503  0.00  0.00    +0.062 S 
ATOM     19  O   UNL     1      -2.373 -10.756   4.236  0.00  0.00    -0.153 OA
ATOM     20  O   UNL     1      -3.221  -8.417   4.124  0.00  0.00    -0.153 OA
BRANCH  18  21
ATOM     21  C   UNL     1      -3.867 -10.066   2.275  0.00  0.00    +0.148 A 
ATOM     22  C   UNL     1      -4.764  -9.255   1.667  0.00  0.00    +0.060 A 
ATOM     23  N   UNL     1      -5.471 -10.004   0.795  0.00  0.00    -0.280 N 
ATOM     24  H   UNL     1      -6.184  -9.688   0.218  0.00  0.00    +0.189 HD
ATOM     25  N   UNL     1      -4.992 -11.319   0.869  0.00  0.00    -0.177 NA
ATOM     26  C   UNL     1      -4.027 -11.353   1.752  0.00  0.00    +0.086 A 
ATOM     27  C   UNL     1      -3.228 -12.570   2.141  0.00  0.00    +0.069 C 
ATOM     28  C   UNL     1      -4.943  -7.780   1.919  0.00  0.00    +0.067 C 
ENDBRANCH  18  21
ENDBRANCH  16  18
ENDBRANCH  15  16
ENDBRANCH   1  15
TORSDOF 6
