REMARK  Name = ZINC14470988
REMARK  7 active torsions:
REMARK  status: ('A' for Active; 'I' for Inactive)
REMARK    1  A    between atoms: C_1  and  C_2
REMARK    2  A    between atoms: C_2  and  O_3
REMARK    3  A    between atoms: O_3  and  C_4
REMARK    4  A    between atoms: C_7  and  N_10
REMARK    5  A    between atoms: C_11  and  C_13
REMARK    6  A    between atoms: C_20  and  C_29
REMARK    7  A    between atoms: C_33  and  N_35
REMARK                            x       y       z     vdW  Elec       q    Type
REMARK                         _______ _______ _______ _____ _____    ______ ____
ROOT
ATOM      1  C   UNL     1      -0.376   6.047   2.150  0.00  0.00    +0.058 A 
ATOM      2  C   UNL     1      -0.651   7.415   2.124  0.00  0.00    +0.015 A 
ATOM      3  C   UNL     1      -0.258   8.167   1.039  0.00  0.00    +0.001 A 
ATOM      4  C   UNL     1       0.406   7.572  -0.018  0.00  0.00    +0.006 A 
ATOM      5  C   UNL     1       0.692   6.215  -0.009  0.00  0.00    -0.019 A 
ATOM      6  C   UNL     1       0.300   5.444   1.072  0.00  0.00    +0.044 A 
ATOM      7  N   UNL     1       0.549   4.082   1.139  0.00  0.00    -0.336 N 
ATOM      8  C   UNL     1       1.719   3.693   0.351  0.00  0.00    +0.105 C 
ATOM      9  C   UNL     1       1.508   4.104  -1.108  0.00  0.00    +0.029 C 
ATOM     10  C   UNL     1       1.426   5.643  -1.186  0.00  0.00    +0.049 C 
ATOM     11  C   UNL     1       2.870   6.091  -1.180  0.00  0.00    -0.023 C 
ATOM     12  C   UNL     1       3.655   5.111  -1.551  0.00  0.00    -0.030 C 
ATOM     13  C   UNL     1       2.845   3.870  -1.867  0.00  0.00    +0.033 C 
ATOM     14  H   UNL     1      -0.264   3.551   0.866  0.00  0.00    +0.147 HD
ENDROOT
BRANCH   8  15
ATOM     15  C   UNL     1       1.904   2.199   0.430  0.00  0.00    -0.025 A 
ATOM     16  C   UNL     1       0.803   1.363   0.389  0.00  0.00    +0.007 A 
ATOM     17  C   UNL     1       0.973  -0.006   0.461  0.00  0.00    +0.022 A 
ATOM     18  C   UNL     1       2.244  -0.541   0.575  0.00  0.00    +0.071 A 
ATOM     19  C   UNL     1       3.344   0.296   0.617  0.00  0.00    +0.145 A 
ATOM     20  C   UNL     1       3.174   1.666   0.545  0.00  0.00    +0.039 A 
ATOM     21 CL   UNL     1       2.457  -2.262   0.666  0.00  0.00    -0.081 Cl
BRANCH  19  22
ATOM     22  N   UNL     1       4.704  -0.275   0.739  0.00  0.00    +0.058 N 
ATOM     23  O   UNL     1       5.673   0.462   0.776  0.00  0.00    -0.126 OA
ATOM     24  O   UNL     1       4.854  -1.482   0.803  0.00  0.00    -0.126 OA
ENDBRANCH  19  22
ENDBRANCH   8  15
BRANCH   1  26
ATOM     25  N   UNL     1      -1.440   5.811   4.338  0.00  0.00    -0.281 N 
ATOM     26  C   UNL     1      -0.793   5.233   3.307  0.00  0.00    +0.250 C 
ATOM     27  O   UNL     1      -0.554   4.041   3.329  0.00  0.00    -0.270 OA
ATOM     28  H   UNL     1      -1.564   6.772   4.356  0.00  0.00    +0.155 HD
BRANCH  25  32
ATOM     29  C   UNL     1      -2.913   3.462   7.453  0.00  0.00    +0.121 A 
ATOM     30  C   UNL     1      -2.449   4.744   7.710  0.00  0.00    +0.047 A 
ATOM     31  C   UNL     1      -1.961   5.522   6.679  0.00  0.00    +0.027 A 
ATOM     32  C   UNL     1      -1.935   5.021   5.385  0.00  0.00    +0.034 A 
ATOM     33  C   UNL     1      -2.404   3.740   5.127  0.00  0.00    +0.027 A 
ATOM     34  C   UNL     1      -2.887   2.961   6.159  0.00  0.00    +0.047 A 
BRANCH  29  35
ATOM     35  O   UNL     1      -3.393   2.696   8.468  0.00  0.00    -0.492 OA
BRANCH  35  37
ATOM     36  C   UNL     1      -4.354   0.681   9.393  0.00  0.00    +0.048 C 
ATOM     37  C   UNL     1      -3.855   1.387   8.131  0.00  0.00    +0.225 C 
ENDBRANCH  35  37
ENDBRANCH  29  35
ENDBRANCH  25  32
ENDBRANCH   1  26
TORSDOF 6
