REMARK  Name = ZINC29618106
REMARK  6 active torsions:
REMARK  status: ('A' for Active; 'I' for Inactive)
REMARK    1  A    between atoms: C_1  and  C_2
REMARK    2  A    between atoms: C_3  and  C_25
REMARK    3  A    between atoms: C_5  and  S_7
REMARK    4  A    between atoms: S_7  and  C_8
REMARK    5  A    between atoms: C_8  and  C_9
REMARK    6  A    between atoms: C_25  and  C_26
REMARK                            x       y       z     vdW  Elec       q    Type
REMARK                         _______ _______ _______ _____ _____    ______ ____
ROOT
ATOM      1  C   UNL     1       3.417   3.413   0.700  0.00  0.00    +0.234 C 
ATOM      2  O   UNL     1       3.360   2.248   1.034  0.00  0.00    -0.274 OA
ATOM      3  N   UNL     1       2.288   4.087   0.406  0.00  0.00    -0.237 N 
ATOM      4  C   UNL     1       1.067   3.401   0.405  0.00  0.00    +0.055 A 
ATOM      5  C   UNL     1       0.997   2.098  -0.063  0.00  0.00    +0.025 A 
ATOM      6  C   UNL     1      -0.213   1.427  -0.062  0.00  0.00    +0.002 A 
ATOM      7  C   UNL     1      -1.359   2.050   0.397  0.00  0.00    +0.001 A 
ATOM      8  C   UNL     1      -1.300   3.349   0.872  0.00  0.00    +0.017 A 
ATOM      9  C   UNL     1      -0.093   4.023   0.874  0.00  0.00    +0.035 A 
ATOM     10  S   UNL     1       0.013   5.683   1.468  0.00  0.00    -0.086 S 
ATOM     11  C   UNL     1       1.369   6.330   0.541  0.00  0.00    +0.035 A 
ATOM     12  C   UNL     1       2.367   5.453   0.108  0.00  0.00    +0.055 A 
ATOM     13  C   UNL     1       3.438   5.949  -0.621  0.00  0.00    +0.025 A 
ATOM     14  C   UNL     1       3.509   7.299  -0.911  0.00  0.00    +0.002 A 
ATOM     15  C   UNL     1       2.519   8.162  -0.480  0.00  0.00    +0.001 A 
ATOM     16  C   UNL     1       1.446   7.679   0.248  0.00  0.00    +0.017 A 
ENDROOT
BRANCH   1  17
ATOM     17  C   UNL     1       4.752   4.107   0.614  0.00  0.00    +0.173 C 
BRANCH  17  18
ATOM     18  S   UNL     1       5.985   3.161   1.543  0.00  0.00    -0.089 S 
BRANCH  18  23
ATOM     19  C   UNL     1       8.774   7.208  -0.289  0.00  0.00    +0.066 C 
ATOM     20  C   UNL     1       8.664   5.927   0.497  0.00  0.00    +0.050 A 
ATOM     21  C   UNL     1       9.745   5.401   1.120  0.00  0.00    +0.022 A 
ATOM     22  S   UNL     1       9.027   3.941   1.857  0.00  0.00    -0.065 S 
ATOM     23  C   UNL     1       7.406   4.170   1.281  0.00  0.00    +0.135 A 
ATOM     24  N   UNL     1       7.512   5.290   0.590  0.00  0.00    -0.238 NA
BRANCH  21  25
ATOM     25  C   UNL     1      11.164   5.907   1.174  0.00  0.00    +0.139 C 
BRANCH  25  26
ATOM     26  C   UNL     1      11.326   6.821   2.362  0.00  0.00    +0.215 C 
ATOM     27  O   UNL     1      10.382   7.039   3.092  0.00  0.00    -0.276 OA
ATOM     28  N   UNL     1      12.519   7.395   2.613  0.00  0.00    -0.329 N 
ATOM     29  H   UNL     1      12.637   8.061   3.480  0.00  0.00    +0.145 HD
ATOM     30  H   UNL     1      13.375   7.197   1.951  0.00  0.00    +0.145 HD
ENDBRANCH  25  26
ENDBRANCH  21  25
ENDBRANCH  18  23
ENDBRANCH  17  18
ENDBRANCH   1  17
TORSDOF 5
