REMARK  Name = ZINC08514325
REMARK  4 active torsions:
REMARK  status: ('A' for Active; 'I' for Inactive)
REMARK    1  A    between atoms: C_3  and  C_6
REMARK    2  A    between atoms: C_7  and  C_8
REMARK    3  A    between atoms: N_13  and  S_16
REMARK    4  A    between atoms: S_16  and  C_19
REMARK                            x       y       z     vdW  Elec       q    Type
REMARK                         _______ _______ _______ _____ _____    ______ ____
ROOT
ATOM      1  C   UNL     1      -3.761   3.409  -3.634  0.00  0.00    +0.240 C 
ATOM      2  O   UNL     1      -3.658   4.544  -4.063  0.00  0.00    -0.271 OA
ATOM      3  N   UNL     1      -3.044   3.028  -2.559  0.00  0.00    -0.295 N 
ATOM      4  C   UNL     1      -2.050   3.932  -1.963  0.00  0.00    +0.125 C 
ATOM      5  C   UNL     1      -0.697   3.211  -1.916  0.00  0.00    +0.128 C 
ATOM      6  N   UNL     1      -0.894   1.883  -1.319  0.00  0.00    -0.174 NA
ATOM      7  C   UNL     1      -1.883   0.976  -1.918  0.00  0.00    +0.128 C 
ATOM      8  C   UNL     1      -3.240   1.699  -1.962  0.00  0.00    +0.125 C 
ENDROOT
BRANCH   6   9
ATOM      9  S   UNL     1      -0.011   1.413   0.001  0.00  0.00    +0.061 S 
ATOM     10  O   UNL     1       0.007  -0.008  -0.007  0.00  0.00    -0.153 OA
ATOM     11  O   UNL     1       1.179   2.190  -0.008  0.00  0.00    -0.153 OA
BRANCH   9  12
ATOM     12  C   UNL     1      -0.917   1.897   1.433  0.00  0.00    +0.109 A 
ATOM     13  C   UNL     1      -0.703   3.142   1.995  0.00  0.00    +0.032 A 
ATOM     14  C   UNL     1      -1.414   3.531   3.116  0.00  0.00    +0.051 A 
ATOM     15  C   UNL     1      -2.335   2.663   3.680  0.00  0.00    +0.162 A 
ATOM     16  C   UNL     1      -2.546   1.412   3.119  0.00  0.00    +0.164 A 
ATOM     17  C   UNL     1      -1.836   1.028   1.994  0.00  0.00    +0.078 A 
ATOM     18  O   UNL     1      -3.456   0.565   3.682  0.00  0.00    -0.488 OA
ATOM     19  C   UNL     1      -3.114   0.046   4.968  0.00  0.00    +0.232 C 
ATOM     20  C   UNL     1      -3.510   1.022   6.066  0.00  0.00    +0.082 C 
ATOM     21  C   UNL     1      -2.730   2.325   5.991  0.00  0.00    +0.232 C 
ATOM     22  O   UNL     1      -3.040   3.033   4.788  0.00  0.00    -0.488 OA
ENDBRANCH   9  12
ENDBRANCH   6   9
BRANCH   1  24
ATOM     23  C   UNL     1      -5.279   2.841  -5.405  0.00  0.00    +0.051 C 
ATOM     24  C   UNL     1      -4.636   2.491  -4.264  0.00  0.00    +0.071 C 
BRANCH  23  27
ATOM     25  C   UNL     1      -7.594   0.972  -7.447  0.00  0.00    +0.042 A 
ATOM     26  C   UNL     1      -6.872   2.147  -7.191  0.00  0.00    +0.049 A 
ATOM     27  C   UNL     1      -6.153   1.923  -6.035  0.00  0.00    +0.128 A 
ATOM     28  O   UNL     1      -6.436   0.674  -5.609  0.00  0.00    -0.464 OA
ATOM     29  C   UNL     1      -7.302   0.100  -6.456  0.00  0.00    +0.195 A 
ENDBRANCH  23  27
ENDBRANCH   1  24
TORSDOF 4
