REMARK  Name = ZINC06552553
REMARK  7 active torsions:
REMARK  status: ('A' for Active; 'I' for Inactive)
REMARK    1  A    between atoms: C_1  and  C_2
REMARK    2  A    between atoms: C_3  and  N_9
REMARK    3  A    between atoms: C_10  and  C_12
REMARK    4  A    between atoms: C_15  and  S_21
REMARK    5  A    between atoms: C_16  and  N_18
REMARK    6  A    between atoms: S_21  and  C_22
REMARK    7  A    between atoms: N_26  and  C_27
REMARK                            x       y       z     vdW  Elec       q    Type
REMARK                         _______ _______ _______ _____ _____    ______ ____
ROOT
ATOM      1  C   UNL     1       4.927  -2.716   0.148  0.00  0.00    +0.039 A 
ATOM      2  C   UNL     1       6.116  -1.992   0.286  0.00  0.00    +0.014 A 
ATOM      3  C   UNL     1       7.310  -2.650   0.379  0.00  0.00    +0.018 A 
ATOM      4  C   UNL     1       7.349  -4.041   0.325  0.00  0.00    +0.046 A 
ATOM      5  C   UNL     1       6.171  -4.769   0.183  0.00  0.00    +0.141 A 
ATOM      6  C   UNL     1       4.964  -4.112   0.094  0.00  0.00    +0.047 A 
ENDROOT
BRANCH   1   8
ATOM      7  N   UNL     1       3.604  -0.660   0.106  0.00  0.00    -0.281 N 
ATOM      8  C   UNL     1       3.638  -2.006   0.054  0.00  0.00    +0.248 C 
ATOM      9  O   UNL     1       2.605  -2.636  -0.070  0.00  0.00    -0.270 OA
ATOM     10  H   UNL     1       4.431  -0.155   0.136  0.00  0.00    +0.155 HD
BRANCH   7  13
ATOM     11  C   UNL     1       3.398   1.745   1.612  0.00  0.00    +0.047 C 
ATOM     12  C   UNL     1       2.231   1.186   0.839  0.00  0.00    -0.011 A 
ATOM     13  C   UNL     1       2.375   0.008   0.118  0.00  0.00    +0.038 A 
ATOM     14  C   UNL     1       1.298  -0.504  -0.593  0.00  0.00    +0.023 A 
ATOM     15  C   UNL     1       0.086   0.158  -0.580  0.00  0.00    +0.003 A 
ATOM     16  C   UNL     1      -0.056   1.331   0.138  0.00  0.00    +0.020 A 
ATOM     17  C   UNL     1       1.016   1.845   0.848  0.00  0.00    +0.046 A 
ATOM     18 CL   UNL     1       0.834   3.317   1.749  0.00  0.00    -0.083 Cl
ENDBRANCH   7  13
ENDBRANCH   1   8
BRANCH   5  19
ATOM     19  N   UNL     1       6.216  -6.247   0.126  0.00  0.00    +0.058 N 
ATOM     20  O   UNL     1       5.185  -6.884   0.001  0.00  0.00    -0.126 OA
ATOM     21  O   UNL     1       7.284  -6.828   0.204  0.00  0.00    -0.126 OA
ENDBRANCH   5  19
BRANCH   4  22
ATOM     22  S   UNL     1       8.894  -4.881   0.438  0.00  0.00    -0.048 S 
BRANCH  22  23
ATOM     23  C   UNL     1       8.820  -5.435   2.109  0.00  0.00    +0.196 A 
ATOM     24  N   UNL     1       7.888  -5.145   2.986  0.00  0.00    -0.122 NA
ATOM     25  N   UNL     1       8.148  -5.722   4.105  0.00  0.00    -0.137 NA
ATOM     26  C   UNL     1       9.257  -6.401   4.012  0.00  0.00    +0.225 A 
ATOM     27  N   UNL     1       9.724  -6.242   2.737  0.00  0.00    -0.311 N 
ATOM     28  C   UNL     1      10.943  -6.819   2.165  0.00  0.00    +0.152 C 
ENDBRANCH  22  23
ENDBRANCH   4  22
TORSDOF 5
