REMARK  Name = ZINC12484381
REMARK  9 active torsions:
REMARK  status: ('A' for Active; 'I' for Inactive)
REMARK    1  A    between atoms: C_1  and  C_2
REMARK    2  A    between atoms: C_2  and  O_3
REMARK    3  A    between atoms: O_3  and  C_4
REMARK    4  A    between atoms: C_7  and  N_10
REMARK    5  A    between atoms: N_10  and  S_11
REMARK    6  A    between atoms: S_11  and  C_14
REMARK    7  A    between atoms: C_17  and  N_20
REMARK    8  A    between atoms: C_21  and  C_22
REMARK    9  A    between atoms: C_26  and  N_28
REMARK                            x       y       z     vdW  Elec       q    Type
REMARK                         _______ _______ _______ _____ _____    ______ ____
ROOT
ATOM      1  C   UNL     1       1.519   2.282   0.035  0.00  0.00    +0.109 A 
ATOM      2  C   UNL     1       2.239   2.391   1.212  0.00  0.00    +0.031 A 
ATOM      3  C   UNL     1       3.528   2.883   1.192  0.00  0.00    +0.029 A 
ATOM      4  C   UNL     1       4.101   3.281  -0.018  0.00  0.00    +0.064 A 
ATOM      5  C   UNL     1       3.366   3.174  -1.200  0.00  0.00    +0.029 A 
ATOM      6  C   UNL     1       2.080   2.675  -1.167  0.00  0.00    +0.031 A 
ENDROOT
BRANCH   1   7
ATOM      7  S   UNL     1      -0.124   1.646   0.069  0.00  0.00    +0.072 S 
ATOM      8  O   UNL     1      -0.819   2.258  -1.009  0.00  0.00    -0.150 OA
ATOM      9  O   UNL     1      -0.570   1.744   1.415  0.00  0.00    -0.150 OA
BRANCH   7  10
ATOM     10  N   UNL     1      -0.032   0.031  -0.283  0.00  0.00    -0.216 N 
ATOM     11  H   UNL     1      -0.449  -0.315  -1.087  0.00  0.00    +0.174 HD
BRANCH  10  15
ATOM     12  C   UNL     1       1.993  -2.550   2.289  0.00  0.00    +0.121 A 
ATOM     13  C   UNL     1       0.738  -2.070   2.635  0.00  0.00    +0.047 A 
ATOM     14  C   UNL     1       0.067  -1.215   1.784  0.00  0.00    +0.028 A 
ATOM     15  C   UNL     1       0.648  -0.836   0.581  0.00  0.00    +0.048 A 
ATOM     16  C   UNL     1       1.901  -1.321   0.233  0.00  0.00    +0.028 A 
ATOM     17  C   UNL     1       2.574  -2.171   1.088  0.00  0.00    +0.047 A 
BRANCH  12  18
ATOM     18  O   UNL     1       2.653  -3.393   3.128  0.00  0.00    -0.492 OA
BRANCH  18  20
ATOM     19  C   UNL     1       4.524  -4.779   3.773  0.00  0.00    +0.048 C 
ATOM     20  C   UNL     1       3.941  -3.848   2.708  0.00  0.00    +0.225 C 
ENDBRANCH  18  20
ENDBRANCH  12  18
ENDBRANCH  10  15
ENDBRANCH   7  10
ENDBRANCH   1   7
BRANCH   4  21
ATOM     21  N   UNL     1       5.377   3.775  -0.044  0.00  0.00    -0.255 NA
ATOM     22  C   UNL     1       5.755   4.652   0.842  0.00  0.00    +0.119 C 
BRANCH  22  23
ATOM     23  C   UNL     1       7.128   5.183   0.814  0.00  0.00    -0.005 A 
ATOM     24  C   UNL     1       8.031   4.744  -0.159  0.00  0.00    +0.011 A 
ATOM     25  C   UNL     1       9.313   5.250  -0.183  0.00  0.00    +0.023 A 
ATOM     26  C   UNL     1       9.711   6.182   0.761  0.00  0.00    +0.071 A 
ATOM     27  C   UNL     1       8.824   6.617   1.731  0.00  0.00    +0.145 A 
ATOM     28  C   UNL     1       7.536   6.124   1.764  0.00  0.00    +0.043 A 
ATOM     29 CL   UNL     1      11.330   6.808   0.728  0.00  0.00    -0.081 Cl
BRANCH  27  30
ATOM     30  N   UNL     1       9.258   7.614   2.736  0.00  0.00    +0.058 N 
ATOM     31  O   UNL     1       8.479   7.998   3.589  0.00  0.00    -0.126 OA
ATOM     32  O   UNL     1      10.395   8.050   2.708  0.00  0.00    -0.126 OA
ENDBRANCH  27  30
ENDBRANCH  22  23
ENDBRANCH   4  21
TORSDOF 8
