REMARK  Name = ZINC59984741
REMARK  5 active torsions:
REMARK  status: ('A' for Active; 'I' for Inactive)
REMARK    1  A    between atoms: C_3  and  N_8
REMARK    2  A    between atoms: N_8  and  S_9
REMARK    3  A    between atoms: S_9  and  C_12
REMARK    4  A    between atoms: C_15  and  N_18
REMARK    5  A    between atoms: C_19  and  C_21
REMARK                            x       y       z     vdW  Elec       q    Type
REMARK                         _______ _______ _______ _____ _____    ______ ____
ROOT
ATOM      1  C   UNL     1       5.539  -0.065   0.592  0.00  0.00    +0.109 A 
ATOM      2  C   UNL     1       4.611  -1.090   0.593  0.00  0.00    +0.030 A 
ATOM      3  C   UNL     1       4.922  -2.305   0.016  0.00  0.00    +0.025 A 
ATOM      4  C   UNL     1       6.168  -2.497  -0.567  0.00  0.00    +0.034 A 
ATOM      5  C   UNL     1       7.098  -1.466  -0.566  0.00  0.00    +0.025 A 
ATOM      6  C   UNL     1       6.779  -0.251   0.008  0.00  0.00    +0.030 A 
ENDROOT
BRANCH   4   7
ATOM      7  N   UNL     1       6.486  -3.727  -1.152  0.00  0.00    -0.281 N 
ATOM      8  C   UNL     1       7.425  -3.791  -2.117  0.00  0.00    +0.254 C 
ATOM      9  O   UNL     1       7.995  -2.780  -2.479  0.00  0.00    -0.270 OA
ATOM     10  H   UNL     1       6.031  -4.534  -0.863  0.00  0.00    +0.155 HD
BRANCH   8  11
ATOM     11  C   UNL     1       7.760  -5.085  -2.732  0.00  0.00    +0.102 A 
ATOM     12  C   UNL     1       8.836  -5.205  -3.601  0.00  0.00    +0.031 A 
ATOM     13  C   UNL     1       9.120  -6.466  -4.165  0.00  0.00    +0.037 A 
ATOM     14  C   UNL     1       8.344  -7.570  -3.855  0.00  0.00    +0.030 A 
ATOM     15  N   UNL     1       7.295  -7.455  -3.015  0.00  0.00    -0.325 N 
ATOM     16  H   UNL     1       6.761  -8.240  -2.818  0.00  0.00    +0.169 HD
ATOM     17  C   UNL     1       6.971  -6.285  -2.440  0.00  0.00    +0.261 A 
ATOM     18  O   UNL     1       6.020  -6.221  -1.681  0.00  0.00    -0.267 OA
ATOM     19  C   UNL     1       8.645  -8.930  -4.431  0.00  0.00    +0.054 C 
ATOM     20  C   UNL     1       9.437  -8.819  -5.731  0.00  0.00    +0.014 C 
ATOM     21  C   UNL     1      10.702  -7.986  -5.482  0.00  0.00    +0.080 C 
ATOM     22  C   UNL     1      10.254  -6.592  -5.097  0.00  0.00    +0.165 C 
ATOM     23  O   UNL     1      10.810  -5.611  -5.542  0.00  0.00    -0.292 OA
ENDBRANCH   8  11
ENDBRANCH   4   7
BRANCH   1  24
ATOM     24  S   UNL     1       5.138   1.484   1.331  0.00  0.00    +0.072 S 
ATOM     25  O   UNL     1       6.370   2.155   1.559  0.00  0.00    -0.150 OA
ATOM     26  O   UNL     1       4.215   1.210   2.375  0.00  0.00    -0.150 OA
BRANCH  24  27
ATOM     27  N   UNL     1       4.320   2.370   0.196  0.00  0.00    -0.216 N 
ATOM     28  H   UNL     1       3.393   2.612   0.346  0.00  0.00    +0.174 HD
BRANCH  27  31
ATOM     29  C   UNL     1       4.933   3.109  -3.352  0.00  0.00    +0.005 A 
ATOM     30  C   UNL     1       4.294   2.714  -2.192  0.00  0.00    +0.024 A 
ATOM     31  C   UNL     1       4.964   2.769  -0.977  0.00  0.00    +0.051 A 
ATOM     32  C   UNL     1       6.277   3.221  -0.930  0.00  0.00    +0.062 A 
ATOM     33  C   UNL     1       6.912   3.616  -2.094  0.00  0.00    +0.125 A 
ATOM     34  C   UNL     1       6.239   3.559  -3.304  0.00  0.00    +0.038 A 
ATOM     35  F   UNL     1       8.188   4.056  -2.051  0.00  0.00    -0.205 F 
ENDBRANCH  27  31
ENDBRANCH  24  27
ENDBRANCH   1  24
TORSDOF 5
