REMARK  Name = ZINC39688182
REMARK  6 active torsions:
REMARK  status: ('A' for Active; 'I' for Inactive)
REMARK    1  A    between atoms: C_6  and  O_7
REMARK    2  A    between atoms: O_7  and  C_8
REMARK    3  A    between atoms: C_8  and  C_9
REMARK    4  A    between atoms: C_9  and  N_10
REMARK    5  A    between atoms: C_11  and  C_13
REMARK    6  A    between atoms: C_24  and  C_26
REMARK                            x       y       z     vdW  Elec       q    Type
REMARK                         _______ _______ _______ _____ _____    ______ ____
ROOT
ATOM      1  C   UNL     1      -5.297  -2.108  -2.130  0.00  0.00    +0.100 C 
ATOM      2  C   UNL     1      -5.508  -0.631  -2.529  0.00  0.00    +0.121 C 
ATOM      3  N   UNL     1      -6.823  -0.612  -3.212  0.00  0.00    -0.296 N 
ATOM      4  C   UNL     1      -7.662  -1.545  -2.423  0.00  0.00    +0.115 C 
ATOM      5  C   UNL     1      -6.713  -2.705  -2.060  0.00  0.00    -0.004 C 
ATOM      6  C   UNL     1      -7.007  -3.204  -0.649  0.00  0.00    -0.010 C 
ATOM      7  C   UNL     1      -8.398  -3.845  -0.619  0.00  0.00    -0.082 C 
ATOM      8  N   UNL     1      -8.446  -4.959  -1.574  0.00  0.00    +0.379 N 
ATOM      9  C   UNL     1      -8.255  -4.456  -2.940  0.00  0.00    -0.082 C 
ATOM     10  C   UNL     1      -6.858  -3.841  -3.068  0.00  0.00    -0.010 C 
ATOM     11  C   UNL     1      -7.176   0.095  -4.304  0.00  0.00    +0.247 C 
ATOM     12  O   UNL     1      -6.337   0.722  -4.920  0.00  0.00    -0.270 OA
ATOM     13  H   UNL     1      -7.716  -5.620  -1.355  0.00  0.00    -0.086 HD
ATOM     14  H   UNL     1      -9.342  -5.418  -1.509  0.00  0.00    -0.086 HD
ENDROOT
BRANCH  11  15
ATOM     15  C   UNL     1      -8.585   0.106  -4.753  0.00  0.00    +0.042 A 
ATOM     16  C   UNL     1      -9.607  -0.225  -3.863  0.00  0.00    +0.051 A 
ATOM     17  C   UNL     1     -10.922  -0.212  -4.288  0.00  0.00    +0.127 A 
ATOM     18  C   UNL     1     -11.226   0.128  -5.595  0.00  0.00    +0.076 A 
ATOM     19  C   UNL     1     -10.216   0.458  -6.484  0.00  0.00    +0.127 A 
ATOM     20  C   UNL     1      -8.898   0.454  -6.068  0.00  0.00    +0.051 A 
ATOM     21  F   UNL     1     -10.520   0.789  -7.758  0.00  0.00    -0.205 F 
ATOM     22  F   UNL     1     -11.912  -0.533  -3.426  0.00  0.00    -0.205 F 
ENDBRANCH  11  15
BRANCH   1  24
ATOM     23  N   UNL     1      -3.821  -3.242  -0.500  0.00  0.00    -0.312 N 
ATOM     24  C   UNL     1      -4.624  -2.197  -0.785  0.00  0.00    +0.218 C 
ATOM     25  O   UNL     1      -4.804  -1.329   0.042  0.00  0.00    -0.275 OA
ATOM     26  H   UNL     1      -3.677  -3.937  -1.162  0.00  0.00    +0.149 HD
BRANCH  23  27
ATOM     27  C   UNL     1      -3.167  -3.329   0.807  0.00  0.00    +0.145 C 
BRANCH  27  28
ATOM     28  C   UNL     1      -2.319  -4.601   0.870  0.00  0.00    +0.247 C 
BRANCH  28  29
ATOM     29  O   UNL     1      -1.255  -4.512  -0.080  0.00  0.00    -0.490 OA
BRANCH  29  35
ATOM     30  C   UNL     1       0.652  -5.549  -1.053  0.00  0.00    +0.048 A 
ATOM     31  C   UNL     1       1.518  -6.623  -1.126  0.00  0.00    +0.042 A 
ATOM     32  C   UNL     1       1.333  -7.719  -0.300  0.00  0.00    +0.124 A 
ATOM     33  C   UNL     1       0.280  -7.740   0.599  0.00  0.00    +0.042 A 
ATOM     34  C   UNL     1      -0.588  -6.668   0.673  0.00  0.00    +0.048 A 
ATOM     35  C   UNL     1      -0.403  -5.569  -0.152  0.00  0.00    +0.121 A 
ATOM     36  F   UNL     1       2.180  -8.769  -0.372  0.00  0.00    -0.205 F 
ENDBRANCH  29  35
ENDBRANCH  28  29
ENDBRANCH  27  28
ENDBRANCH  23  27
ENDBRANCH   1  24
TORSDOF 6
