REMARK  Name = ZINC12120068
REMARK  11 active torsions:
REMARK  status: ('A' for Active; 'I' for Inactive)
REMARK    1  A    between atoms: C_1  and  C_2
REMARK    2  A    between atoms: C_2  and  C_3
REMARK    3  A    between atoms: C_3  and  C_4
REMARK    4  A    between atoms: C_4  and  C_5
REMARK    5  A    between atoms: C_5  and  N_6
REMARK    6  A    between atoms: C_9  and  N_19
REMARK    7  A    between atoms: C_14  and  C_18
REMARK    8  A    between atoms: C_20  and  C_22
REMARK    9  A    between atoms: C_22  and  C_23
REMARK   10  A    between atoms: C_23  and  C_24
REMARK   11  A    between atoms: C_23  and  C_25
REMARK                            x       y       z     vdW  Elec       q    Type
REMARK                         _______ _______ _______ _____ _____    ______ ____
ROOT
ATOM      1  N   UNL     1      -7.339   0.887   4.300  0.00  0.00    -0.265 N 
ATOM      2  C   UNL     1      -6.405   0.548   3.310  0.00  0.00    +0.080 A 
ATOM      3  C   UNL     1      -5.124   1.072   3.338  0.00  0.00    +0.050 A 
ATOM      4  C   UNL     1      -4.215   0.723   2.348  0.00  0.00    +0.035 A 
ATOM      5  C   UNL     1      -4.593  -0.144   1.331  0.00  0.00    +0.027 A 
ATOM      6  C   UNL     1      -5.871  -0.672   1.307  0.00  0.00    +0.049 A 
ATOM      7  C   UNL     1      -6.780  -0.327   2.292  0.00  0.00    +0.143 A 
ATOM      8  O   UNL     1      -8.042  -0.836   2.277  0.00  0.00    -0.478 OA
ATOM      9  C   UNL     1      -8.657  -1.065   3.547  0.00  0.00    +0.256 C 
ATOM     10  C   UNL     1      -8.454   0.137   4.433  0.00  0.00    +0.260 C 
ATOM     11  O   UNL     1      -9.289   0.430   5.263  0.00  0.00    -0.271 OA
ATOM     12  C   UNL     1     -10.155  -1.307   3.352  0.00  0.00    +0.062 C 
ENDROOT
BRANCH   4  13
ATOM     13  N   UNL     1      -2.918   1.251   2.371  0.00  0.00    -0.285 N 
ATOM     14  C   UNL     1      -1.882   0.514   1.924  0.00  0.00    +0.217 C 
ATOM     15  O   UNL     1      -2.057  -0.639   1.591  0.00  0.00    -0.275 OA
ATOM     16  H   UNL     1      -2.765   2.147   2.709  0.00  0.00    +0.155 HD
BRANCH  14  17
ATOM     17  C   UNL     1      -0.506   1.122   1.838  0.00  0.00    +0.099 C 
BRANCH  17  18
ATOM     18  C   UNL     1       0.479   0.081   1.303  0.00  0.00    -0.008 C 
ATOM     19  C   UNL     1       1.897   0.657   1.333  0.00  0.00    +0.008 C 
ATOM     20  C   UNL     1       0.107  -0.283  -0.135  0.00  0.00    +0.008 C 
ENDBRANCH  17  18
ENDBRANCH  14  17
ENDBRANCH   4  13
BRANCH   1  21
ATOM     21  C   UNL     1      -7.107   2.038   5.177  0.00  0.00    +0.114 C 
BRANCH  21  22
ATOM     22  C   UNL     1      -7.712   3.292   4.543  0.00  0.00    +0.019 C 
BRANCH  22  23
ATOM     23  C   UNL     1      -7.471   4.494   5.458  0.00  0.00    +0.001 C 
BRANCH  23  25
ATOM     24  C   UNL     1      -7.834   6.950   5.740  0.00  0.00    +0.004 C 
ATOM     25  C   UNL     1      -8.075   5.748   4.824  0.00  0.00    -0.003 C 
ENDBRANCH  23  25
ENDBRANCH  22  23
ENDBRANCH  21  22
ENDBRANCH   1  21
TORSDOF 7
