REMARK  Name = ZINC02923085
REMARK  11 active torsions:
REMARK  status: ('A' for Active; 'I' for Inactive)
REMARK    1  A    between atoms: C_1  and  C_2
REMARK    2  A    between atoms: C_2  and  C_3
REMARK    3  A    between atoms: C_3  and  O_4
REMARK    4  A    between atoms: O_4  and  C_5
REMARK    5  A    between atoms: C_5  and  C_7
REMARK    6  A    between atoms: C_8  and  C_37
REMARK    7  A    between atoms: C_12  and  C_14
REMARK    8  A    between atoms: C_18  and  N_20
REMARK    9  A    between atoms: C_26  and  C_29
REMARK   10  A    between atoms: C_32  and  O_35
REMARK   11  A    between atoms: O_35  and  C_36
REMARK                            x       y       z     vdW  Elec       q    Type
REMARK                         _______ _______ _______ _____ _____    ______ ____
ROOT
ATOM      1  C   UNL     1      -0.692   6.027   1.223  0.00  0.00    +0.065 C 
ATOM      2  C   UNL     1      -2.021   6.229   1.262  0.00  0.00    +0.016 C 
ATOM      3  N   UNL     1      -2.780   6.064   0.137  0.00  0.00    -0.321 N 
ATOM      4  C   UNL     1      -2.202   6.082  -1.104  0.00  0.00    +0.016 C 
ATOM      5  C   UNL     1      -0.876   5.876  -1.245  0.00  0.00    +0.024 C 
ATOM      6  C   UNL     1      -0.005   5.608  -0.043  0.00  0.00    +0.092 C 
ATOM      7  C   UNL     1      -0.269   5.908  -2.513  0.00  0.00    +0.162 C 
ATOM      8  O   UNL     1       0.926   5.712  -2.607  0.00  0.00    -0.292 OA
ATOM      9  C   UNL     1      -1.073   6.178  -3.755  0.00  0.00    +0.088 C 
ATOM     10  C   UNL     1      -2.280   7.048  -3.389  0.00  0.00    +0.032 C 
ATOM     11  C   UNL     1      -3.082   6.333  -2.304  0.00  0.00    +0.059 C 
ATOM     12  C   UNL     1      -2.677   6.642   2.554  0.00  0.00    +0.061 C 
ATOM     13  H   UNL     1      -3.866   5.913   0.224  0.00  0.00    +0.152 HD
ENDROOT
BRANCH   6  14
ATOM     14  C   UNL     1       0.304   4.135   0.025  0.00  0.00    -0.033 A 
ATOM     15  C   UNL     1      -0.723   3.218   0.156  0.00  0.00    +0.005 A 
ATOM     16  C   UNL     1      -0.440   1.867   0.213  0.00  0.00    +0.003 A 
ATOM     17  C   UNL     1       0.871   1.431   0.149  0.00  0.00    +0.033 A 
ATOM     18  C   UNL     1       1.897   2.347   0.018  0.00  0.00    +0.126 A 
ATOM     19  C   UNL     1       1.614   3.699  -0.044  0.00  0.00    +0.037 A 
BRANCH  18  20
ATOM     20  N   UNL     1       3.300   1.881  -0.056  0.00  0.00    +0.056 N 
ATOM     21  O   UNL     1       3.550   0.690  -0.002  0.00  0.00    -0.126 OA
ATOM     22  O   UNL     1       4.205   2.688  -0.171  0.00  0.00    -0.126 OA
ENDBRANCH  18  20
ENDBRANCH   6  14
BRANCH  10  23
ATOM     23  C   UNL     1      -3.145   7.251  -4.606  0.00  0.00    -0.043 A 
ATOM     24  C   UNL     1      -3.699   6.160  -5.250  0.00  0.00    +0.007 A 
ATOM     25  C   UNL     1      -4.497   6.345  -6.362  0.00  0.00    +0.046 A 
ATOM     26  C   UNL     1      -4.733   7.625  -6.840  0.00  0.00    +0.120 A 
ATOM     27  C   UNL     1      -4.172   8.718  -6.196  0.00  0.00    +0.046 A 
ATOM     28  C   UNL     1      -3.380   8.529  -5.080  0.00  0.00    +0.007 A 
BRANCH  26  29
ATOM     29  O   UNL     1      -5.514   7.809  -7.938  0.00  0.00    -0.495 OA
ATOM     30  C   UNL     1      -6.058   6.638  -8.550  0.00  0.00    +0.277 C 
ENDBRANCH  26  29
ENDBRANCH  10  23
BRANCH   1  31
ATOM     31  C   UNL     1       0.072   6.212   2.398  0.00  0.00    +0.338 C 
ATOM     32  O   UNL     1      -0.450   6.668   3.398  0.00  0.00    -0.245 OA
BRANCH  31  33
ATOM     33  O   UNL     1       1.381   5.883   2.411  0.00  0.00    -0.461 OA
BRANCH  33  34
ATOM     34  C   UNL     1       2.092   6.097   3.632  0.00  0.00    +0.232 C 
BRANCH  34  36
ATOM     35  C   UNL     1       4.311   5.897   4.763  0.00  0.00    +0.007 C 
ATOM     36  C   UNL     1       3.550   5.668   3.455  0.00  0.00    +0.038 C 
ENDBRANCH  34  36
ENDBRANCH  33  34
ENDBRANCH  31  33
ENDBRANCH   1  31
TORSDOF 8
