REMARK  Name = ZINC32943415
REMARK  9 active torsions:
REMARK  status: ('A' for Active; 'I' for Inactive)
REMARK    1  A    between atoms: C_1  and  C_2
REMARK    2  A    between atoms: C_5  and  C_9
REMARK    3  A    between atoms: C_9  and  N_11
REMARK    4  A    between atoms: N_13  and  C_14
REMARK    5  A    between atoms: C_17  and  O_21
REMARK    6  A    between atoms: O_21  and  C_22
REMARK    7  A    between atoms: N_23  and  C_24
REMARK    8  A    between atoms: C_24  and  C_25
REMARK    9  A    between atoms: C_25  and  C_26
REMARK                            x       y       z     vdW  Elec       q    Type
REMARK                         _______ _______ _______ _____ _____    ______ ____
ROOT
ATOM      1  N   UNL     1      -3.071  -1.744  -3.783  0.00  0.00    -0.143 NA
ATOM      2  C   UNL     1      -3.543  -2.243  -2.587  0.00  0.00    +0.194 C 
ATOM      3  N   UNL     1      -4.640  -2.960  -2.564  0.00  0.00    -0.328 N 
ATOM      4  N   UNL     1      -2.864  -1.989  -1.422  0.00  0.00    -0.357 N 
ATOM      5  H   UNL     1      -3.188  -2.459  -0.482  0.00  0.00    +0.162 HD
ATOM      6  H   UNL     1      -5.061  -3.289  -1.602  0.00  0.00    +0.169 HD
ENDROOT
BRANCH   3   7
ATOM      7  C   UNL     1      -5.262  -3.301  -3.737  0.00  0.00    +0.043 A 
ATOM      8  C   UNL     1      -5.807  -4.576  -3.896  0.00  0.00    +0.029 A 
ATOM      9  C   UNL     1      -6.432  -4.915  -5.078  0.00  0.00    +0.049 A 
ATOM     10  C   UNL     1      -6.520  -3.990  -6.109  0.00  0.00    +0.138 A 
ATOM     11  C   UNL     1      -5.979  -2.721  -5.956  0.00  0.00    +0.084 A 
ATOM     12  C   UNL     1      -5.357  -2.372  -4.774  0.00  0.00    +0.049 A 
ATOM     13 CL   UNL     1      -6.093  -1.568  -7.249  0.00  0.00    -0.080 Cl
BRANCH  10  14
ATOM     14  O   UNL     1      -7.138  -4.329  -7.273  0.00  0.00    -0.494 OA
ATOM     15  C   UNL     1      -7.672  -5.651  -7.363  0.00  0.00    +0.277 C 
ENDBRANCH  10  14
ENDBRANCH   3   7
BRANCH   1  16
ATOM     16  C   UNL     1      -1.999  -0.927  -3.796  0.00  0.00    +0.270 C 
ATOM     17  O   UNL     1      -1.391  -0.707  -2.768  0.00  0.00    -0.268 OA
BRANCH  16  22
ATOM     18  C   UNL     1      -0.309   1.515  -8.726  0.00  0.00    +0.047 C 
ATOM     19  C   UNL     1      -0.751   0.876  -7.435  0.00  0.00    -0.015 A 
ATOM     20  C   UNL     1      -1.910   0.121  -7.402  0.00  0.00    +0.007 A 
ATOM     21  C   UNL     1      -2.317  -0.472  -6.225  0.00  0.00    +0.013 A 
ATOM     22  C   UNL     1      -1.564  -0.300  -5.062  0.00  0.00    +0.042 A 
ATOM     23  C   UNL     1      -0.396   0.463  -5.100  0.00  0.00    +0.051 A 
ATOM     24  C   UNL     1       0.005   1.047  -6.287  0.00  0.00    +0.127 A 
ATOM     25  F   UNL     1       1.135   1.785  -6.327  0.00  0.00    -0.205 F 
ENDBRANCH  16  22
ENDBRANCH   1  16
BRANCH   4  26
ATOM     26  C   UNL     1      -1.706  -1.090  -1.429  0.00  0.00    +0.120 C 
BRANCH  26  27
ATOM     27  C   UNL     1      -1.212  -0.883   0.004  0.00  0.00    +0.058 C 
BRANCH  27  28
ATOM     28  C   UNL     1      -0.022   0.041  -0.004  0.00  0.00    -0.021 A 
ATOM     29  C   UNL     1       1.270  -0.321  -0.017  0.00  0.00    +0.087 A 
ATOM     30  N   UNL     1       2.067   0.791  -0.020  0.00  0.00    -0.360 N 
ATOM     31  H   UNL     1       3.162   0.683  -0.030  0.00  0.00    +0.165 HD
ATOM     32  C   UNL     1       1.287   1.926  -0.008  0.00  0.00    +0.047 A 
ATOM     33  C   UNL     1      -0.056   1.506   0.003  0.00  0.00    +0.003 A 
ATOM     34  C   UNL     1      -1.081   2.452   0.022  0.00  0.00    +0.010 A 
ATOM     35  C   UNL     1      -0.775   3.784   0.020  0.00  0.00    +0.001 A 
ATOM     36  C   UNL     1       0.548   4.204   0.010  0.00  0.00    +0.002 A 
ATOM     37  C   UNL     1       1.576   3.286  -0.004  0.00  0.00    +0.026 A 
ENDBRANCH  27  28
ENDBRANCH  26  27
ENDBRANCH   4  26
TORSDOF 7
