REMARK  Name = ZINC63362070
REMARK  9 active torsions:
REMARK  status: ('A' for Active; 'I' for Inactive)
REMARK    1  A    between atoms: C_1  and  C_2
REMARK    2  A    between atoms: N_18  and  C_21
REMARK    3  A    between atoms: C_26  and  C_27
REMARK    4  A    between atoms: N_29  and  C_30
REMARK    5  A    between atoms: C_30  and  C_31
REMARK    6  A    between atoms: C_34  and  O_39
REMARK    7  A    between atoms: C_35  and  O_37
REMARK    8  A    between atoms: O_37  and  C_38
REMARK    9  A    between atoms: O_39  and  C_40
REMARK                            x       y       z     vdW  Elec       q    Type
REMARK                         _______ _______ _______ _____ _____    ______ ____
ROOT
ATOM      1  C   UNL     1      -2.555  -1.845   1.833  0.00  0.00    +0.058 A 
ATOM      2  C   UNL     1      -3.449  -1.139   2.624  0.00  0.00    +0.025 A 
ATOM      3  C   UNL     1      -4.565  -1.768   3.138  0.00  0.00    +0.002 A 
ATOM      4  C   UNL     1      -4.802  -3.106   2.869  0.00  0.00    +0.001 A 
ATOM      5  C   UNL     1      -3.924  -3.824   2.085  0.00  0.00    +0.015 A 
ATOM      6  C   UNL     1      -2.794  -3.199   1.554  0.00  0.00    +0.059 A 
ENDROOT
BRANCH   1  23
ATOM      7  C   UNL     1      -0.019   1.526   0.010  0.00  0.00    +0.044 C 
ATOM      8  C   UNL     1       0.002  -0.004   0.002  0.00  0.00    +0.137 C 
ATOM      9  C   UNL     1       0.719  -0.543  -1.236  0.00  0.00    +0.139 C 
ATOM     10  C   UNL     1       1.839  -1.452  -0.749  0.00  0.00    -0.034 C 
ATOM     11  C   UNL     1       1.637  -2.633  -1.327  0.00  0.00    -0.001 A 
ATOM     12  C   UNL     1       2.414  -3.883  -1.292  0.00  0.00    +0.010 A 
ATOM     13  C   UNL     1       1.905  -4.924  -2.003  0.00  0.00    +0.001 A 
ATOM     14  C   UNL     1       0.716  -4.847  -2.735  0.00  0.00    +0.002 A 
ATOM     15  C   UNL     1      -0.060  -3.737  -2.826  0.00  0.00    +0.026 A 
ATOM     16  C   UNL     1       0.375  -2.575  -2.125  0.00  0.00    +0.043 A 
ATOM     17  N   UNL     1      -0.163  -1.376  -2.056  0.00  0.00    -0.375 N 
ATOM     18  C   UNL     1       2.883  -1.028   0.254  0.00  0.00    +0.052 C 
ATOM     19  C   UNL     1       2.130  -0.431   1.460  0.00  0.00    +0.115 C 
ATOM     20  N   UNL     1       0.694  -0.542   1.192  0.00  0.00    -0.268 N 
ATOM     21  C   UNL     1      -0.238  -1.157   1.933  0.00  0.00    +0.317 C 
ATOM     22  O   UNL     1      -0.032  -1.613   3.040  0.00  0.00    -0.252 OA
ATOM     23  N   UNL     1      -1.425  -1.211   1.312  0.00  0.00    -0.192 N 
ATOM     24  C   UNL     1      -1.393  -0.576   0.122  0.00  0.00    +0.253 C 
ATOM     25  O   UNL     1      -2.295  -0.483  -0.682  0.00  0.00    -0.272 OA
ATOM     26  H   UNL     1      -0.994  -1.089  -2.467  0.00  0.00    +0.160 HD
ENDBRANCH   1  23
BRANCH   6  27
ATOM     27  C   UNL     1      -1.853  -3.959   0.709  0.00  0.00    +0.246 C 
ATOM     28  O   UNL     1      -0.867  -3.413   0.253  0.00  0.00    -0.270 OA
ATOM     29  N   UNL     1      -2.087  -5.260   0.443  0.00  0.00    -0.307 N 
ATOM     30  H   UNL     1      -2.873  -5.696   0.807  0.00  0.00    +0.149 HD
BRANCH  29  31
ATOM     31  C   UNL     1      -1.153  -6.015  -0.396  0.00  0.00    +0.140 C 
BRANCH  31  32
ATOM     32  C   UNL     1      -1.640  -7.434  -0.537  0.00  0.00    -0.027 A 
ATOM     33  C   UNL     1      -1.244  -8.394   0.376  0.00  0.00    +0.009 A 
ATOM     34  C   UNL     1      -1.688  -9.697   0.250  0.00  0.00    +0.050 A 
ATOM     35  C   UNL     1      -2.532 -10.044  -0.792  0.00  0.00    +0.162 A 
ATOM     36  C   UNL     1      -2.931  -9.078  -1.711  0.00  0.00    +0.162 A 
ATOM     37  C   UNL     1      -2.486  -7.772  -1.577  0.00  0.00    +0.054 A 
BRANCH  36  38
ATOM     38  O   UNL     1      -3.760  -9.413  -2.736  0.00  0.00    -0.491 OA
ATOM     39  C   UNL     1      -4.128  -8.370  -3.641  0.00  0.00    +0.277 C 
ENDBRANCH  36  38
BRANCH  35  40
ATOM     40  O   UNL     1      -2.970 -11.325  -0.918  0.00  0.00    -0.491 OA
ATOM     41  C   UNL     1      -2.519 -12.263   0.062  0.00  0.00    +0.277 C 
ENDBRANCH  35  40
ENDBRANCH  31  32
ENDBRANCH  29  31
ENDBRANCH   6  27
TORSDOF 6
