REMARK  Name = ZINC19820938
REMARK  6 active torsions:
REMARK  status: ('A' for Active; 'I' for Inactive)
REMARK    1  A    between atoms: C_5  and  N_7
REMARK    2  A    between atoms: C_8  and  C_10
REMARK    3  A    between atoms: C_10  and  C_11
REMARK    4  A    between atoms: C_19  and  C_21
REMARK    5  A    between atoms: C_21  and  N_22
REMARK    6  A    between atoms: N_25  and  C_28
REMARK                            x       y       z     vdW  Elec       q    Type
REMARK                         _______ _______ _______ _____ _____    ______ ____
ROOT
ATOM      1  C   UNL     1      -0.719   1.997   1.277  0.00  0.00    +0.170 C 
ATOM      2  C   UNL     1      -0.636   3.497   1.348  0.00  0.00    +0.234 C 
ATOM      3  O   UNL     1       0.429   4.005   1.629  0.00  0.00    -0.274 OA
ATOM      4  N   UNL     1      -1.679   4.295   1.116  0.00  0.00    -0.312 N 
ATOM      5  C   UNL     1      -3.035   3.829   0.857  0.00  0.00    +0.123 C 
ATOM      6  C   UNL     1      -3.025   2.383   0.356  0.00  0.00    +0.127 C 
ATOM      7  N   UNL     1      -2.134   1.600   1.228  0.00  0.00    -0.289 N 
ATOM      8  C   UNL     1      -2.597   0.562   1.953  0.00  0.00    +0.200 C 
ATOM      9  O   UNL     1      -1.841  -0.066   2.664  0.00  0.00    -0.278 OA
ATOM     10  H   UNL     1      -1.462   5.373   1.129  0.00  0.00    +0.149 HD
ENDROOT
BRANCH   1  11
ATOM     11  C   UNL     1      -0.004   1.503   0.018  0.00  0.00    +0.128 C 
BRANCH  11  13
ATOM     12  N   UNL     1       0.585  -0.664  -1.018  0.00  0.00    -0.284 N 
ATOM     13  C   UNL     1       0.005  -0.004   0.004  0.00  0.00    +0.219 C 
ATOM     14  O   UNL     1      -0.509  -0.622   0.912  0.00  0.00    -0.275 OA
ATOM     15  H   UNL     1       0.970  -0.108  -1.885  0.00  0.00    +0.155 HD
BRANCH  12  20
ATOM     16  C   UNL     1       0.820  -4.096   0.284  0.00  0.00    +0.002 A 
ATOM     17  C   UNL     1       0.918  -4.817  -0.892  0.00  0.00    +0.002 A 
ATOM     18  C   UNL     1       0.905  -4.163  -2.110  0.00  0.00    +0.022 A 
ATOM     19  C   UNL     1       0.790  -2.786  -2.156  0.00  0.00    +0.062 A 
ATOM     20  C   UNL     1       0.697  -2.059  -0.976  0.00  0.00    +0.052 A 
ATOM     21  C   UNL     1       0.710  -2.720   0.246  0.00  0.00    +0.025 A 
ATOM     22 CL   UNL     1       0.768  -1.966  -3.686  0.00  0.00    -0.082 Cl
ENDBRANCH  12  20
ENDBRANCH  11  13
ENDBRANCH   1  11
BRANCH   8  23
ATOM     23  C   UNL     1      -4.053   0.182   1.879  0.00  0.00    +0.019 C 
BRANCH  23  24
ATOM     24  N   UNL     1      -4.303  -0.971   2.754  0.00  0.00    +0.387 N 
ATOM     25  C   UNL     1      -3.607  -2.168   2.260  0.00  0.00    -0.059 C 
ATOM     26  C   UNL     1      -3.827  -3.323   3.239  0.00  0.00    +0.086 C 
ATOM     27  N   UNL     1      -5.268  -3.576   3.379  0.00  0.00    -0.333 N 
ATOM     28  C   UNL     1      -5.963  -2.380   3.874  0.00  0.00    +0.086 C 
ATOM     29  C   UNL     1      -5.744  -1.224   2.895  0.00  0.00    -0.059 C 
ATOM     30  H   UNL     1      -3.901  -0.732   3.750  0.00  0.00    -0.081 HD
BRANCH  27  31
ATOM     31  C   UNL     1      -5.505  -4.673   4.211  0.00  0.00    +0.031 A 
ATOM     32  C   UNL     1      -6.307  -4.532   5.337  0.00  0.00    +0.023 A 
ATOM     33  C   UNL     1      -6.544  -5.619   6.155  0.00  0.00    +0.003 A 
ATOM     34  C   UNL     1      -5.976  -6.845   5.861  0.00  0.00    +0.020 A 
ATOM     35  C   UNL     1      -5.173  -6.988   4.743  0.00  0.00    +0.043 A 
ATOM     36  C   UNL     1      -4.936  -5.904   3.918  0.00  0.00    +0.043 A 
ATOM     37 CL   UNL     1      -4.462  -8.529   4.378  0.00  0.00    -0.083 Cl
ENDBRANCH  27  31
ENDBRANCH  23  24
ENDBRANCH   8  23
TORSDOF 6
