REMARK  Name = ZINC06808822
REMARK  6 active torsions:
REMARK  status: ('A' for Active; 'I' for Inactive)
REMARK    1  A    between atoms: C_1  and  C_2
REMARK    2  A    between atoms: C_7  and  C_31
REMARK    3  A    between atoms: C_10  and  C_12
REMARK    4  A    between atoms: C_12  and  N_13
REMARK    5  A    between atoms: C_17  and  S_23
REMARK    6  A    between atoms: S_23  and  N_26
REMARK                            x       y       z     vdW  Elec       q    Type
REMARK                         _______ _______ _______ _____ _____    ______ ____
ROOT
ATOM      1  N   UNL     1       3.488   1.666   0.003  0.00  0.00    -0.265 N 
ATOM      2  C   UNL     1       2.218   2.194   0.234  0.00  0.00    +0.091 A 
ATOM      3  C   UNL     1       0.982   1.622   0.491  0.00  0.00    +0.031 A 
ATOM      4  C   UNL     1      -0.123   2.429   0.677  0.00  0.00    +0.031 A 
ATOM      5  C   UNL     1       0.003   3.806   0.618  0.00  0.00    +0.109 A 
ATOM      6  C   UNL     1       1.232   4.383   0.363  0.00  0.00    +0.077 A 
ATOM      7  C   UNL     1       2.346   3.581   0.170  0.00  0.00    +0.159 A 
ATOM      8  O   UNL     1       3.647   3.854  -0.091  0.00  0.00    -0.407 OA
ATOM      9  C   UNL     1       4.329   2.702  -0.191  0.00  0.00    +0.422 A 
ATOM     10  O   UNL     1       5.519   2.607  -0.419  0.00  0.00    -0.223 OA
ENDROOT
BRANCH   5  11
ATOM     11  S   UNL     1      -1.411   4.828   0.863  0.00  0.00    +0.061 S 
ATOM     12  O   UNL     1      -2.336   4.065   1.625  0.00  0.00    -0.153 OA
ATOM     13  O   UNL     1      -0.929   6.093   1.293  0.00  0.00    -0.153 OA
BRANCH  11  14
ATOM     14  N   UNL     1      -2.106   5.066  -0.622  0.00  0.00    -0.177 NA
ATOM     15  C   UNL     1      -1.795   6.166  -1.547  0.00  0.00    +0.109 C 
ATOM     16  C   UNL     1      -2.699   5.994  -2.785  0.00  0.00    +0.018 C 
ATOM     17  C   UNL     1      -3.873   5.139  -2.239  0.00  0.00    +0.018 C 
ATOM     18  C   UNL     1      -3.143   4.215  -1.232  0.00  0.00    +0.109 C 
ENDBRANCH  11  14
ENDBRANCH   5  11
BRANCH   1  19
ATOM     19  C   UNL     1       3.844   0.245  -0.026  0.00  0.00    +0.224 C 
BRANCH  19  27
ATOM     20  C   UNL     1       3.715  -0.889  -4.048  0.00  0.00    +0.028 C 
ATOM     21  C   UNL     1       4.008  -2.049  -3.095  0.00  0.00    +0.073 C 
ATOM     22  C   UNL     1       5.380  -2.656  -3.426  0.00  0.00    +0.022 C 
ATOM     23  C   UNL     1       5.724  -3.723  -2.385  0.00  0.00    +0.004 C 
ATOM     24  C   UNL     1       5.805  -3.079  -0.999  0.00  0.00    +0.022 C 
ATOM     25  C   UNL     1       4.444  -2.475  -0.641  0.00  0.00    +0.073 C 
ATOM     26  N   UNL     1       4.038  -1.555  -1.712  0.00  0.00    -0.294 N 
ATOM     27  C   UNL     1       3.694  -0.282  -1.429  0.00  0.00    +0.236 C 
ATOM     28  O   UNL     1       3.265   0.438  -2.305  0.00  0.00    -0.274 OA
ATOM     29  C   UNL     1       3.407  -3.592  -0.505  0.00  0.00    +0.028 C 
ENDBRANCH  19  27
ENDBRANCH   1  19
TORSDOF 4
