REMARK  Name = ZINC13625260
REMARK  11 active torsions:
REMARK  status: ('A' for Active; 'I' for Inactive)
REMARK    1  A    between atoms: C_1  and  C_2
REMARK    2  A    between atoms: C_6  and  C_33
REMARK    3  A    between atoms: C_10  and  C_32
REMARK    4  A    between atoms: C_15  and  C_16
REMARK    5  A    between atoms: C_16  and  C_17
REMARK    6  A    between atoms: N_19  and  C_20
REMARK    7  A    between atoms: C_23  and  C_26
REMARK    8  A    between atoms: C_26  and  N_27
REMARK    9  A    between atoms: C_33  and  C_34
REMARK   10  A    between atoms: C_33  and  C_35
REMARK   11  A    between atoms: C_33  and  C_36
REMARK                            x       y       z     vdW  Elec       q    Type
REMARK                         _______ _______ _______ _____ _____    ______ ____
ROOT
ATOM      1  C   UNL     1      -3.510   1.875   2.604  0.00  0.00    +0.045 C 
ATOM      2  C   UNL     1      -4.139   2.241   1.285  0.00  0.00    -0.029 A 
ATOM      3  C   UNL     1      -5.286   3.152   1.224  0.00  0.00    +0.022 A 
ATOM      4  C   UNL     1      -5.823   3.702   2.388  0.00  0.00    +0.023 A 
ATOM      5  C   UNL     1      -6.912   4.556   2.296  0.00  0.00    +0.025 A 
ATOM      6  C   UNL     1      -7.716   5.298   3.278  0.00  0.00    +0.003 A 
ATOM      7  C   UNL     1      -8.645   5.959   2.577  0.00  0.00    +0.200 A 
ATOM      8  O   UNL     1      -8.505   5.707   1.263  0.00  0.00    -0.462 OA
ATOM      9  C   UNL     1      -7.474   4.866   1.040  0.00  0.00    +0.141 A 
ATOM     10  C   UNL     1      -6.935   4.315  -0.112  0.00  0.00    +0.035 A 
ATOM     11  C   UNL     1      -5.848   3.462  -0.032  0.00  0.00    +0.146 A 
ATOM     12  O   UNL     1      -5.319   2.921  -1.153  0.00  0.00    -0.422 OA
ATOM     13  C   UNL     1      -4.266   2.091  -1.103  0.00  0.00    +0.341 A 
ATOM     14  O   UNL     1      -3.826   1.629  -2.140  0.00  0.00    -0.245 OA
ATOM     15  C   UNL     1      -3.656   1.738   0.120  0.00  0.00    +0.049 A 
ATOM     16  C   UNL     1      -7.533   4.646  -1.455  0.00  0.00    +0.051 C 
ENDROOT
BRANCH   6  17
ATOM     17  C   UNL     1      -7.531   5.312   4.774  0.00  0.00    -0.009 C 
ATOM     18  C   UNL     1      -8.587   6.217   5.410  0.00  0.00    +0.015 C 
ATOM     19  C   UNL     1      -7.682   3.890   5.319  0.00  0.00    +0.015 C 
ATOM     20  C   UNL     1      -6.135   5.841   5.110  0.00  0.00    +0.015 C 
ENDBRANCH   6  17
BRANCH  15  21
ATOM     21  C   UNL     1      -2.476   0.801   0.132  0.00  0.00    +0.138 C 
BRANCH  21  22
ATOM     22  C   UNL     1      -1.202   1.597   0.017  0.00  0.00    +0.222 C 
ATOM     23  O   UNL     1      -1.247   2.807  -0.067  0.00  0.00    -0.275 OA
ATOM     24  N   UNL     1      -0.011   0.966   0.007  0.00  0.00    -0.285 N 
ATOM     25  H   UNL     1       0.024  -0.004   0.007  0.00  0.00    +0.155 HD
BRANCH  24  26
ATOM     26  C   UNL     1       1.175   1.708  -0.008  0.00  0.00    +0.033 A 
ATOM     27  C   UNL     1       1.237   2.906  -0.708  0.00  0.00    +0.023 A 
ATOM     28  C   UNL     1       2.407   3.640  -0.716  0.00  0.00    +0.007 A 
ATOM     29  C   UNL     1       3.520   3.177  -0.037  0.00  0.00    -0.026 A 
ATOM     30  C   UNL     1       3.463   1.982   0.656  0.00  0.00    +0.007 A 
ATOM     31  C   UNL     1       2.294   1.246   0.673  0.00  0.00    +0.023 A 
BRANCH  29  32
ATOM     32  C   UNL     1       4.796   3.977  -0.052  0.00  0.00    +0.180 C 
BRANCH  32  33
ATOM     33  N   UNL     1       5.620   3.560  -1.190  0.00  0.00    -0.248 N 
ATOM     34  C   UNL     1       6.117   4.350  -2.157  0.00  0.00    +0.219 A 
ATOM     35  N   UNL     1       6.798   3.599  -2.985  0.00  0.00    -0.223 NA
ATOM     36  C   UNL     1       6.758   2.330  -2.581  0.00  0.00    +0.245 A 
ATOM     37  N   UNL     1       6.053   2.256  -1.482  0.00  0.00    -0.158 NA
ENDBRANCH  32  33
ENDBRANCH  29  32
ENDBRANCH  24  26
ENDBRANCH  21  22
ENDBRANCH  15  21
TORSDOF 6
