REMARK  Name = ZINC01069382
REMARK  7 active torsions:
REMARK  status: ('A' for Active; 'I' for Inactive)
REMARK    1  A    between atoms: C_1  and  S_2
REMARK    2  A    between atoms: S_2  and  C_3
REMARK    3  A    between atoms: C_7  and  C_9
REMARK    4  A    between atoms: N_11  and  C_12
REMARK    5  A    between atoms: C_13  and  C_20
REMARK    6  A    between atoms: N_22  and  C_23
REMARK    7  A    between atoms: C_23  and  C_24
REMARK                            x       y       z     vdW  Elec       q    Type
REMARK                         _______ _______ _______ _____ _____    ______ ____
ROOT
ATOM      1  C   UNL     1      -7.760   2.316  -1.434  0.00  0.00    +0.085 A 
ATOM      2  C   UNL     1      -7.045   1.279  -0.859  0.00  0.00    +0.069 A 
ATOM      3  C   UNL     1      -7.660   0.572   0.263  0.00  0.00    -0.023 A 
ATOM      4  C   UNL     1      -8.882   1.012   0.615  0.00  0.00    -0.004 A 
ATOM      5  S   UNL     1      -9.224   2.343  -0.510  0.00  0.00    -0.077 S 
ATOM      6  C   UNL     1      -9.450   0.236   1.772  0.00  0.00    +0.043 C 
ATOM      7  C   UNL     1      -8.596  -1.050   1.835  0.00  0.00    +0.010 C 
ATOM      8  C   UNL     1      -7.276  -0.582   1.190  0.00  0.00    +0.037 C 
ENDROOT
BRANCH   1  11
ATOM      9  C   UNL     1      -8.231   4.099  -2.917  0.00  0.00    +0.269 C 
ATOM     10  O   UNL     1      -9.306   4.255  -2.373  0.00  0.00    -0.268 OA
ATOM     11  N   UNL     1      -7.394   3.132  -2.491  0.00  0.00    -0.274 N 
ATOM     12  H   UNL     1      -6.536   3.007  -2.926  0.00  0.00    +0.156 HD
BRANCH   9  17
ATOM     13  C   UNL     1      -6.311   5.589  -5.663  0.00  0.00    +0.189 A 
ATOM     14  N   UNL     1      -7.105   6.553  -6.112  0.00  0.00    -0.229 NA
ATOM     15  C   UNL     1      -8.286   6.772  -5.563  0.00  0.00    +0.136 A 
ATOM     16  C   UNL     1      -8.697   5.979  -4.499  0.00  0.00    +0.090 A 
ATOM     17  C   UNL     1      -7.839   4.973  -4.049  0.00  0.00    +0.148 A 
ATOM     18  N   UNL     1      -6.662   4.815  -4.649  0.00  0.00    -0.216 NA
ATOM     19 CL   UNL     1     -10.241   6.232  -3.747  0.00  0.00    -0.080 Cl
BRANCH  13  21
ATOM     20  C   UNL     1      -4.805   6.636  -7.694  0.00  0.00    +0.093 C 
ATOM     21  S   UNL     1      -4.745   5.339  -6.432  0.00  0.00    -0.089 S 
ENDBRANCH  13  21
ENDBRANCH   9  17
ENDBRANCH   1  11
BRANCH   2  22
ATOM     22  C   UNL     1      -5.716   0.907  -1.355  0.00  0.00    +0.247 C 
ATOM     23  O   UNL     1      -5.606   0.070  -2.232  0.00  0.00    -0.270 OA
ATOM     24  N   UNL     1      -4.617   1.492  -0.839  0.00  0.00    -0.309 N 
ATOM     25  H   UNL     1      -4.704   2.158  -0.140  0.00  0.00    +0.149 HD
BRANCH  24  26
ATOM     26  C   UNL     1      -3.289   1.120  -1.334  0.00  0.00    +0.136 C 
BRANCH  26  27
ATOM     27  C   UNL     1      -2.223   1.924  -0.587  0.00  0.00    +0.135 C 
ATOM     28  C   UNL     1      -0.833   1.634  -1.185  0.00  0.00    +0.035 C 
ATOM     29  C   UNL     1      -0.013   1.086   0.008  0.00  0.00    +0.031 C 
ATOM     30  C   UNL     1      -0.810   1.621   1.224  0.00  0.00    +0.160 C 
ATOM     31  O   UNL     1      -2.186   1.524   0.793  0.00  0.00    -0.375 OA
ENDBRANCH  26  27
ENDBRANCH  24  26
ENDBRANCH   2  22
TORSDOF 6
