REMARK  Name = ZINC67000769
REMARK  8 active torsions:
REMARK  status: ('A' for Active; 'I' for Inactive)
REMARK    1  A    between atoms: C_1  and  N_2
REMARK    2  A    between atoms: N_2  and  C_3
REMARK    3  A    between atoms: C_7  and  S_9
REMARK    4  A    between atoms: S_9  and  C_10
REMARK    5  A    between atoms: C_11  and  C_13
REMARK    6  A    between atoms: N_15  and  C_16
REMARK    7  A    between atoms: C_16  and  C_17
REMARK    8  A    between atoms: C_17  and  O_27
REMARK                            x       y       z     vdW  Elec       q    Type
REMARK                         _______ _______ _______ _____ _____    ______ ____
ROOT
ATOM      1  C   UNL     1      -0.377   0.337  -2.331  0.00  0.00    +0.300 C 
ATOM      2  O   UNL     1      -0.236   1.543  -2.332  0.00  0.00    -0.265 OA
ATOM      3  N   UNL     1      -0.438  -0.336  -3.497  0.00  0.00    -0.304 N 
ATOM      4  H   UNL     1      -0.550  -1.299  -3.496  0.00  0.00    +0.149 HD
ENDROOT
BRANCH   1   7
ATOM      5  C   UNL     1      -0.634   1.743   0.113  0.00  0.00    +0.139 C 
ATOM      6  N   UNL     1      -0.539   0.281   0.125  0.00  0.00    -0.267 N 
ATOM      7  C   UNL     1      -0.483  -0.401  -1.036  0.00  0.00    +0.305 C 
ATOM      8  O   UNL     1      -0.519  -1.614  -1.030  0.00  0.00    -0.265 OA
BRANCH   6   9
ATOM      9  C   UNL     1      -0.507  -0.407   1.341  0.00  0.00    +0.037 A 
ATOM     10  C   UNL     1      -0.250  -1.773   1.361  0.00  0.00    +0.023 A 
ATOM     11  C   UNL     1      -0.219  -2.454   2.562  0.00  0.00    +0.003 A 
ATOM     12  C   UNL     1      -0.443  -1.781   3.748  0.00  0.00    +0.015 A 
ATOM     13  C   UNL     1      -0.701  -0.415   3.735  0.00  0.00    +0.009 A 
ATOM     14  C   UNL     1      -0.727   0.274   2.530  0.00  0.00    +0.038 A 
BRANCH  13  15
ATOM     15  S   UNL     1      -0.987   0.442   5.248  0.00  0.00    -0.129 S 
ATOM     16  C   UNL     1      -0.846  -0.846   6.516  0.00  0.00    +0.090 C 
ENDBRANCH  13  15
ENDBRANCH   6   9
ENDBRANCH   1   7
BRANCH   3  17
ATOM     17  C   UNL     1      -0.334   0.388  -4.766  0.00  0.00    +0.144 C 
BRANCH  17  18
ATOM     18  C   UNL     1      -0.562  -0.583  -5.927  0.00  0.00    +0.107 C 
ATOM     19  C   UNL     1      -1.922  -1.257  -5.759  0.00  0.00    +0.041 C 
ATOM     20  C   UNL     1      -2.227  -2.055  -7.033  0.00  0.00    +0.008 C 
ATOM     21  C   UNL     1      -2.497  -1.067  -8.166  0.00  0.00    +0.035 C 
ATOM     22  C   UNL     1      -1.390  -0.050  -8.257  0.00  0.00    -0.041 A 
ATOM     23  C   UNL     1      -0.504   0.176  -7.227  0.00  0.00    -0.011 A 
ATOM     24  C   UNL     1       0.491   1.134  -7.373  0.00  0.00    +0.007 A 
ATOM     25  C   UNL     1       0.600   1.859  -8.542  0.00  0.00    +0.000 A 
ATOM     26  C   UNL     1      -0.287   1.630  -9.577  0.00  0.00    +0.000 A 
ATOM     27  C   UNL     1      -1.277   0.680  -9.433  0.00  0.00    +0.004 A 
BRANCH  18  28
ATOM     28  O   UNL     1       0.462  -1.579  -5.916  0.00  0.00    -0.382 OA
ATOM     29  H   UNL     1       1.357  -1.224  -6.010  0.00  0.00    +0.211 HD
ENDBRANCH  18  28
ENDBRANCH  17  18
ENDBRANCH   3  17
TORSDOF 6
