REMARK  Name = ZINC04360151
REMARK  12 active torsions:
REMARK  status: ('A' for Active; 'I' for Inactive)
REMARK    1  A    between atoms: C_1  and  C_2
REMARK    2  A    between atoms: C_2  and  O_3
REMARK    3  A    between atoms: O_3  and  C_4
REMARK    4  A    between atoms: C_6  and  C_11
REMARK    5  A    between atoms: C_9  and  O_10
REMARK    6  A    between atoms: N_12  and  N_13
REMARK    7  A    between atoms: C_14  and  C_16
REMARK    8  A    between atoms: N_18  and  C_19
REMARK    9  A    between atoms: C_20  and  C_28
REMARK   10  A    between atoms: C_28  and  O_30
REMARK   11  A    between atoms: O_30  and  C_31
REMARK   12  A    between atoms: C_31  and  C_32
REMARK                            x       y       z     vdW  Elec       q    Type
REMARK                         _______ _______ _______ _____ _____    ______ ____
ROOT
ATOM      1  C   UNL     1      -1.090  -9.379   2.106  0.00  0.00    +0.305 C 
ATOM      2  O   UNL     1      -1.649  -8.933   3.087  0.00  0.00    -0.265 OA
ATOM      3  N   UNL     1      -0.982 -10.712   1.940  0.00  0.00    -0.271 N 
ATOM      4  H   UNL     1      -0.535 -11.069   1.156  0.00  0.00    +0.156 HD
ENDROOT
BRANCH   3   5
ATOM      5  C   UNL     1      -1.509 -11.572   2.887  0.00  0.00    +0.087 A 
ATOM      6  C   UNL     1      -1.502 -12.962   2.890  0.00  0.00    +0.091 A 
ATOM      7  C   UNL     1      -2.126 -13.632   4.018  0.00  0.00    -0.021 A 
ATOM      8  C   UNL     1      -2.662 -12.814   4.950  0.00  0.00    -0.004 A 
ATOM      9  S   UNL     1      -2.343 -11.178   4.354  0.00  0.00    -0.077 S 
ATOM     10  C   UNL     1      -3.370 -13.217   6.207  0.00  0.00    +0.043 C 
ATOM     11  C   UNL     1      -3.729 -14.707   6.103  0.00  0.00    +0.005 C 
ATOM     12  C   UNL     1      -2.494 -15.481   5.633  0.00  0.00    +0.005 C 
ATOM     13  C   UNL     1      -2.195 -15.147   4.171  0.00  0.00    +0.037 C 
BRANCH   6  14
ATOM     14  C   UNL     1      -0.887 -13.721   1.800  0.00  0.00    +0.342 C 
ATOM     15  O   UNL     1       0.287 -14.032   1.862  0.00  0.00    -0.245 OA
BRANCH  14  16
ATOM     16  O   UNL     1      -1.622 -14.077   0.726  0.00  0.00    -0.461 OA
BRANCH  16  17
ATOM     17  C   UNL     1      -0.947 -14.828  -0.316  0.00  0.00    +0.229 C 
ATOM     18  C   UNL     1      -1.934 -15.138  -1.443  0.00  0.00    +0.048 C 
ENDBRANCH  16  17
ENDBRANCH  14  16
ENDBRANCH   6  14
ENDBRANCH   3   5
BRANCH   1  20
ATOM     19  N   UNL     1      -0.630  -7.120   1.251  0.00  0.00    -0.199 N 
ATOM     20  C   UNL     1      -0.522  -8.453   1.085  0.00  0.00    +0.318 C 
ATOM     21  O   UNL     1       0.037  -8.899   0.104  0.00  0.00    -0.263 OA
ATOM     22  H   UNL     1      -1.077  -6.763   2.035  0.00  0.00    +0.178 HD
BRANCH  19  24
ATOM     23  C   UNL     1      -0.201  -4.964   0.452  0.00  0.00    +0.138 C 
ATOM     24  N   UNL     1      -0.097  -6.249   0.292  0.00  0.00    -0.187 NA
BRANCH  23  27
ATOM     25  C   UNL     1       0.777  -1.811  -1.336  0.00  0.00    +0.162 A 
ATOM     26  C   UNL     1       0.249  -2.665  -0.387  0.00  0.00    +0.059 A 
ATOM     27  C   UNL     1       0.360  -4.048  -0.557  0.00  0.00    -0.002 A 
ATOM     28  C   UNL     1       1.004  -4.560  -1.687  0.00  0.00    +0.013 A 
ATOM     29  C   UNL     1       1.527  -3.701  -2.630  0.00  0.00    +0.050 A 
ATOM     30  C   UNL     1       1.412  -2.329  -2.463  0.00  0.00    +0.158 A 
BRANCH  30  31
ATOM     31  O   UNL     1       1.925  -1.487  -3.399  0.00  0.00    -0.503 OA
ATOM     32  H   UNL     1       2.845  -1.234  -3.239  0.00  0.00    +0.292 HD
ENDBRANCH  30  31
BRANCH  25  33
ATOM     33  O   UNL     1       0.671  -0.465  -1.174  0.00  0.00    -0.489 OA
BRANCH  33  35
ATOM     34  C   UNL     1      -0.019   1.526   0.010  0.00  0.00    +0.048 C 
ATOM     35  C   UNL     1       0.002  -0.004   0.002  0.00  0.00    +0.226 C 
ENDBRANCH  33  35
ENDBRANCH  25  33
ENDBRANCH  23  27
ENDBRANCH  19  24
ENDBRANCH   1  20
TORSDOF 10
