REMARK  Name = ZINC05554381
REMARK  5 active torsions:
REMARK  status: ('A' for Active; 'I' for Inactive)
REMARK    1  A    between atoms: C_1  and  C_2
REMARK    2  A    between atoms: C_5  and  C_8
REMARK    3  A    between atoms: C_6  and  C_7
REMARK    4  A    between atoms: C_10  and  O_25
REMARK    5  A    between atoms: C_12  and  C_17
REMARK                            x       y       z     vdW  Elec       q    Type
REMARK                         _______ _______ _______ _____ _____    ______ ____
ROOT
ATOM      1  C   UNL     1      -2.926   1.675   2.450  0.00  0.00    +0.218 C 
ATOM      2  C   UNL     1      -2.175   1.055   1.266  0.00  0.00    +0.180 C 
ATOM      3  C   UNL     1      -0.736   1.583   1.261  0.00  0.00    +0.156 C 
ATOM      4  O   UNL     1      -0.766   3.014   1.261  0.00  0.00    -0.348 OA
ATOM      5  C   UNL     1      -1.468   3.575   2.373  0.00  0.00    +0.324 C 
ATOM      6  O   UNL     1      -2.816   3.100   2.374  0.00  0.00    -0.340 OA
ENDROOT
BRANCH   3   7
ATOM      7  C   UNL     1      -0.013   1.086   0.008  0.00  0.00    +0.038 C 
ATOM      8  C   UNL     1       1.390   1.700  -0.059  0.00  0.00    +0.102 C 
ATOM      9  C   UNL     1       2.130   1.116  -1.233  0.00  0.00    +0.220 C 
ATOM     10  O   UNL     1       2.980   1.778  -1.789  0.00  0.00    -0.275 OA
ATOM     11  N   UNL     1       1.867  -0.122  -1.677  0.00  0.00    -0.256 N 
ATOM     12  C   UNL     1       0.933  -0.907  -1.117  0.00  0.00    +0.220 C 
ATOM     13  O   UNL     1       0.737  -2.013  -1.572  0.00  0.00    -0.275 OA
ATOM     14  C   UNL     1       0.125  -0.439   0.064  0.00  0.00    +0.102 C 
ATOM     15  H   UNL     1       2.371  -0.464  -2.431  0.00  0.00    +0.157 HD
ENDBRANCH   3   7
BRANCH   1  20
ATOM     16  C   UNL     1      -2.126  -0.795   6.833  0.00  0.00    +0.047 C 
ATOM     17  C   UNL     1      -1.959   0.123   5.649  0.00  0.00    -0.009 A 
ATOM     18  C   UNL     1      -0.928   0.956   5.421  0.00  0.00    +0.199 A 
ATOM     19  O   UNL     1      -1.152   1.600   4.264  0.00  0.00    -0.465 OA
ATOM     20  C   UNL     1      -2.319   1.190   3.741  0.00  0.00    +0.139 A 
ATOM     21  C   UNL     1      -2.858   0.277   4.569  0.00  0.00    -0.004 A 
ATOM     22  C   UNL     1      -4.168  -0.444   4.380  0.00  0.00    +0.047 C 
ENDBRANCH   1  20
BRANCH   2  23
ATOM     23  O   UNL     1      -2.823   1.419   0.045  0.00  0.00    -0.386 OA
ATOM     24  H   UNL     1      -3.739   1.117  -0.020  0.00  0.00    +0.210 HD
ENDBRANCH   2  23
TORSDOF 3
