REMARK  Name = ZINC09012628
REMARK  8 active torsions:
REMARK  status: ('A' for Active; 'I' for Inactive)
REMARK    1  A    between atoms: C_1  and  C_2
REMARK    2  A    between atoms: C_5  and  C_8
REMARK    3  A    between atoms: C_8  and  C_10
REMARK    4  A    between atoms: C_10  and  S_11
REMARK    5  A    between atoms: S_11  and  C_12
REMARK    6  A    between atoms: C_15  and  C_18
REMARK    7  A    between atoms: N_16  and  N_17
REMARK    8  A    between atoms: C_20  and  C_24
REMARK                            x       y       z     vdW  Elec       q    Type
REMARK                         _______ _______ _______ _____ _____    ______ ____
ROOT
ATOM      1  C   UNL     1       0.045  -7.520   2.544  0.00  0.00    +0.209 A 
ATOM      2  N   UNL     1       0.175  -6.896   3.694  0.00  0.00    -0.120 NA
ATOM      3  N   UNL     1       0.234  -7.748   4.654  0.00  0.00    -0.125 NA
ATOM      4  C   UNL     1       0.147  -8.969   4.177  0.00  0.00    +0.199 A 
ATOM      5  N   UNL     1       0.018  -8.859   2.810  0.00  0.00    -0.223 N 
ENDROOT
BRANCH   4   6
ATOM      6  C   UNL     1       0.176 -10.219   4.957  0.00  0.00    +0.105 A 
ATOM      7  C   UNL     1      -0.011 -10.335   6.306  0.00  0.00    +0.061 A 
ATOM      8  C   UNL     1       0.097 -11.695   6.638  0.00  0.00    +0.093 A 
ATOM      9  N   UNL     1       0.340 -12.373   5.536  0.00  0.00    -0.173 NA
ATOM     10  N   UNL     1       0.389 -11.474   4.463  0.00  0.00    -0.273 N 
ATOM     11  H   UNL     1       0.547 -11.703   3.534  0.00  0.00    +0.189 HD
BRANCH   8  12
ATOM     12  C   UNL     1      -0.038 -12.270   8.000  0.00  0.00    +0.002 A 
ATOM     13  C   UNL     1      -0.301 -11.438   9.086  0.00  0.00    +0.013 A 
ATOM     14  C   UNL     1      -0.426 -11.977  10.350  0.00  0.00    +0.039 A 
ATOM     15  C   UNL     1      -0.290 -13.342  10.540  0.00  0.00    +0.123 A 
ATOM     16  C   UNL     1      -0.029 -14.173   9.463  0.00  0.00    +0.039 A 
ATOM     17  C   UNL     1       0.092 -13.643   8.194  0.00  0.00    +0.013 A 
ATOM     18  F   UNL     1      -0.413 -13.866  11.780  0.00  0.00    -0.205 F 
ENDBRANCH   8  12
ENDBRANCH   4   6
BRANCH   5  19
ATOM     19  N   UNL     1      -0.108  -9.878   1.908  0.00  0.00    -0.295 N 
ATOM     20  H   UNL     1       0.795 -10.243   1.646  0.00  0.00    +0.163 HD
ATOM     21  H   UNL     1      -0.703 -10.609   2.269  0.00  0.00    +0.163 HD
ENDBRANCH   5  19
BRANCH   1  22
ATOM     22  S   UNL     1      -0.078  -6.767   0.955  0.00  0.00    -0.077 S 
BRANCH  22  23
ATOM     23  C   UNL     1       0.026  -4.990   1.302  0.00  0.00    +0.157 C 
BRANCH  23  24
ATOM     24  C   UNL     1      -0.068  -4.220   0.011  0.00  0.00    +0.173 C 
ATOM     25  O   UNL     1      -0.192  -4.811  -1.041  0.00  0.00    -0.291 OA
BRANCH  24  30
ATOM     26  C   UNL     1       0.162   1.524   0.066  0.00  0.00    +0.044 C 
ATOM     27  C   UNL     1       0.102   0.019   0.051  0.00  0.00    -0.050 A 
ATOM     28  C   UNL     1      -0.039  -0.653  -1.151  0.00  0.00    +0.004 A 
ATOM     29  C   UNL     1      -0.095  -2.031  -1.172  0.00  0.00    +0.011 A 
ATOM     30  C   UNL     1      -0.008  -2.749   0.025  0.00  0.00    +0.018 A 
ATOM     31  C   UNL     1       0.135  -2.063   1.235  0.00  0.00    +0.011 A 
ATOM     32  C   UNL     1       0.194  -0.685   1.239  0.00  0.00    +0.004 A 
ENDBRANCH  24  30
ENDBRANCH  23  24
ENDBRANCH  22  23
ENDBRANCH   1  22
TORSDOF 7
