REMARK  Name = ZINC08896367
REMARK  9 active torsions:
REMARK  status: ('A' for Active; 'I' for Inactive)
REMARK    1  A    between atoms: C_1  and  C_2
REMARK    2  A    between atoms: C_2  and  C_3
REMARK    3  A    between atoms: C_2  and  C_4
REMARK    4  A    between atoms: C_2  and  C_5
REMARK    5  A    between atoms: C_12  and  N_16
REMARK    6  A    between atoms: C_13  and  C_14
REMARK    7  A    between atoms: N_16  and  C_17
REMARK    8  A    between atoms: C_17  and  N_19
REMARK    9  A    between atoms: C_20  and  C_22
REMARK                            x       y       z     vdW  Elec       q    Type
REMARK                         _______ _______ _______ _____ _____    ______ ____
ROOT
ATOM      1  C   UNL     1       0.002  -0.004   0.002  0.00  0.00    -0.000 C 
ATOM      2  C   UNL     1       0.742  -0.514   1.242  0.00  0.00    +0.009 C 
ATOM      3  C   UNL     1       0.985  -2.020   1.120  0.00  0.00    +0.037 C 
ATOM      4  C   UNL     1      -0.340  -2.706   0.809  0.00  0.00    -0.018 A 
ATOM      5  C   UNL     1      -1.390  -2.006   0.327  0.00  0.00    -0.004 A 
ATOM      6  S   UNL     1      -2.678  -3.203   0.126  0.00  0.00    -0.077 S 
ATOM      7  C   UNL     1      -1.835  -4.615   0.674  0.00  0.00    +0.089 A 
ATOM      8  C   UNL     1      -0.579  -4.126   0.999  0.00  0.00    +0.084 A 
ATOM      9  C   UNL     1      -1.437  -0.538   0.030  0.00  0.00    +0.047 C 
ENDROOT
BRANCH   1  11
ATOM     10  C   UNL     1       1.417   2.055  -0.000  0.00  0.00    +0.011 C 
ATOM     11  C   UNL     1      -0.019   1.526   0.010  0.00  0.00    -0.035 C 
ATOM     12  C   UNL     1      -0.759   2.033  -1.229  0.00  0.00    +0.011 C 
ATOM     13  C   UNL     1      -0.735   2.019   1.269  0.00  0.00    +0.011 C 
ENDBRANCH   1  11
BRANCH   8  14
ATOM     14  C   UNL     1       0.446  -4.990   1.504  0.00  0.00    +0.102 C 
ATOM     15  N   UNL     1       1.259  -5.676   1.904  0.00  0.00    -0.191 NA
ENDBRANCH   8  14
BRANCH   7  16
ATOM     16  N   UNL     1      -2.304  -5.917   0.766  0.00  0.00    -0.290 N 
ATOM     17  H   UNL     1      -1.722  -6.620   1.093  0.00  0.00    +0.154 HD
BRANCH  16  18
ATOM     18  C   UNL     1      -3.569  -6.205   0.399  0.00  0.00    +0.141 C 
ATOM     19  S   UNL     1      -4.597  -4.964  -0.179  0.00  0.00    -0.018 S 
BRANCH  18  20
ATOM     20  N   UNL     1      -4.024  -7.471   0.488  0.00  0.00    -0.264 N 
ATOM     21  C   UNL     1      -5.289  -7.759   0.122  0.00  0.00    +0.250 C 
ATOM     22  O   UNL     1      -6.019  -6.878  -0.288  0.00  0.00    -0.270 OA
ATOM     23  H   UNL     1      -3.442  -8.174   0.816  0.00  0.00    +0.157 HD
BRANCH  21  24
ATOM     24  C   UNL     1      -5.788  -9.146   0.220  0.00  0.00    +0.037 A 
ATOM     25  C   UNL     1      -4.950 -10.161   0.686  0.00  0.00    +0.014 A 
ATOM     26  C   UNL     1      -5.425 -11.453   0.781  0.00  0.00    +0.016 A 
ATOM     27  C   UNL     1      -6.724 -11.746   0.403  0.00  0.00    +0.018 A 
ATOM     28  C   UNL     1      -7.558 -10.745  -0.065  0.00  0.00    +0.016 A 
ATOM     29  C   UNL     1      -7.098  -9.448  -0.159  0.00  0.00    +0.014 A 
ATOM     30 BR   UNL     1      -7.364 -13.521   0.529  0.00  0.00    -0.050 Br
ENDBRANCH  21  24
ENDBRANCH  18  20
ENDBRANCH  16  18
ENDBRANCH   7  16
TORSDOF 6
