REMARK  Name = ZINC13280439
REMARK  7 active torsions:
REMARK  status: ('A' for Active; 'I' for Inactive)
REMARK    1  A    between atoms: C_1  and  C_2
REMARK    2  A    between atoms: C_2  and  C_4
REMARK    3  A    between atoms: C_2  and  S_16
REMARK    4  A    between atoms: S_16  and  C_17
REMARK    5  A    between atoms: C_21  and  C_34
REMARK    6  A    between atoms: N_27  and  C_28
REMARK    7  A    between atoms: C_28  and  C_29
REMARK                            x       y       z     vdW  Elec       q    Type
REMARK                         _______ _______ _______ _____ _____    ______ ____
ROOT
ATOM      1  C   UNL     1       2.344   1.375  -0.067  0.00  0.00    +0.173 A 
ATOM      2  N   UNL     1       2.398   0.066  -0.091  0.00  0.00    -0.223 NA
ATOM      3  C   UNL     1       1.276  -0.690  -0.109  0.00  0.00    +0.080 A 
ATOM      4  C   UNL     1       1.336  -2.087  -0.134  0.00  0.00    +0.043 A 
ATOM      5  C   UNL     1       0.157  -2.821  -0.151  0.00  0.00    +0.065 A 
ATOM      6  C   UNL     1      -1.084  -2.172  -0.143  0.00  0.00    +0.016 A 
ATOM      7  C   UNL     1      -1.156  -0.809  -0.119  0.00  0.00    +0.016 A 
ATOM      8  C   UNL     1       0.015  -0.052  -0.101  0.00  0.00    +0.065 A 
ATOM      9  C   UNL     1      -0.017   1.419  -0.074  0.00  0.00    +0.263 A 
ATOM     10  O   UNL     1      -1.071   2.028  -0.072  0.00  0.00    -0.267 OA
ATOM     11  N   UNL     1       1.169   2.071  -0.058  0.00  0.00    -0.280 N 
ENDROOT
BRANCH   5  12
ATOM     12  C   UNL     1       0.213  -4.299  -0.177  0.00  0.00    +0.387 C 
ATOM     13  O   UNL     1       1.287  -4.866  -0.184  0.00  0.00    -0.241 OA
ATOM     14  O   UNL     1      -0.927  -5.016  -0.194  0.00  0.00    -0.241 OA
ENDBRANCH   5  12
BRANCH   1  15
ATOM     15  S   UNL     1       3.856   2.278  -0.046  0.00  0.00    -0.075 S 
BRANCH  15  17
ATOM     16  C   UNL     1       4.917   0.149  -1.389  0.00  0.00    +0.029 C 
ATOM     17  C   UNL     1       5.040   0.910  -0.068  0.00  0.00    +0.137 C 
BRANCH  17  18
ATOM     18  C   UNL     1       6.439   1.453   0.071  0.00  0.00    +0.233 C 
ATOM     19  O   UNL     1       6.684   2.591  -0.270  0.00  0.00    -0.274 OA
ATOM     20  N   UNL     1       7.418   0.675   0.573  0.00  0.00    -0.270 N 
ATOM     21  C   UNL     1       7.154  -0.729   0.918  0.00  0.00    +0.114 C 
ATOM     22  C   UNL     1       7.793  -1.009   2.280  0.00  0.00    +0.024 C 
ATOM     23  C   UNL     1       9.307  -0.830   2.164  0.00  0.00    +0.038 C 
ATOM     24  C   UNL     1       9.634   0.501   1.540  0.00  0.00    -0.026 A 
ATOM     25  C   UNL     1       8.704   1.193   0.780  0.00  0.00    +0.039 A 
ATOM     26  C   UNL     1       9.041   2.416   0.213  0.00  0.00    +0.024 A 
ATOM     27  C   UNL     1      10.302   2.945   0.408  0.00  0.00    +0.002 A 
ATOM     28  C   UNL     1      11.228   2.255   1.169  0.00  0.00    +0.000 A 
ATOM     29  C   UNL     1      10.896   1.038   1.732  0.00  0.00    +0.005 A 
ENDBRANCH  17  18
ENDBRANCH  15  17
ENDBRANCH   1  15
BRANCH  11  30
ATOM     30  C   UNL     1       1.193   3.536  -0.032  0.00  0.00    +0.201 C 
BRANCH  30  31
ATOM     31  C   UNL     1       1.196   4.012   1.398  0.00  0.00    +0.125 A 
ATOM     32  C   UNL     1       2.288   4.238   2.150  0.00  0.00    +0.046 A 
ATOM     33  C   UNL     1       1.832   4.673   3.415  0.00  0.00    +0.041 A 
ATOM     34  C   UNL     1       0.488   4.679   3.364  0.00  0.00    +0.195 A 
ATOM     35  O   UNL     1       0.108   4.278   2.140  0.00  0.00    -0.466 OA
ENDBRANCH  30  31
ENDBRANCH  11  30
TORSDOF 6
