REMARK  Name = ZINC06465371
REMARK  14 active torsions:
REMARK  status: ('A' for Active; 'I' for Inactive)
REMARK    1  A    between atoms: C_1  and  C_2
REMARK    2  A    between atoms: C_2  and  C_4
REMARK    3  A    between atoms: C_2  and  O_16
REMARK    4  A    between atoms: N_6  and  C_7
REMARK    5  A    between atoms: C_10  and  C_13
REMARK    6  A    between atoms: C_13  and  C_14
REMARK    7  A    between atoms: C_13  and  C_15
REMARK    8  A    between atoms: O_16  and  C_17
REMARK    9  A    between atoms: C_17  and  C_19
REMARK   10  A    between atoms: C_21  and  N_29
REMARK   11  A    between atoms: C_24  and  N_25
REMARK   12  A    between atoms: N_25  and  C_26
REMARK   13  A    between atoms: C_26  and  C_27
REMARK   14  A    between atoms: C_27  and  O_28
REMARK                            x       y       z     vdW  Elec       q    Type
REMARK                         _______ _______ _______ _____ _____    ______ ____
ROOT
ATOM      1  C   UNL     1       0.357  -0.620  -1.982  0.00  0.00    +0.342 C 
ATOM      2  O   UNL     1      -0.823  -0.423  -1.771  0.00  0.00    -0.245 OA
ENDROOT
BRANCH   1   3
ATOM      3  C   UNL     1       0.806  -1.038  -3.321  0.00  0.00    +0.082 A 
ATOM      4  C   UNL     1       2.146  -1.374  -3.541  0.00  0.00    +0.049 A 
ATOM      5  C   UNL     1       2.559  -1.765  -4.795  0.00  0.00    +0.127 A 
ATOM      6  C   UNL     1       1.654  -1.827  -5.843  0.00  0.00    +0.034 A 
ATOM      7  C   UNL     1       0.329  -1.500  -5.643  0.00  0.00    +0.026 A 
ATOM      8  C   UNL     1      -0.109  -1.109  -4.384  0.00  0.00    +0.041 A 
BRANCH   5   9
ATOM      9  N   UNL     1       3.977  -2.119  -5.025  0.00  0.00    +0.056 N 
ATOM     10  O   UNL     1       4.770  -2.066  -4.114  0.00  0.00    -0.126 OA
ATOM     11  O   UNL     1       4.344  -2.463  -6.125  0.00  0.00    -0.126 OA
ENDBRANCH   5   9
BRANCH   8  12
ATOM     12  N   UNL     1      -1.443  -0.784  -4.178  0.00  0.00    -0.341 N 
ATOM     13  H   UNL     1      -1.761  -0.583  -3.284  0.00  0.00    +0.146 HD
BRANCH  12  14
ATOM     14  C   UNL     1      -2.370  -0.745  -5.312  0.00  0.00    +0.129 C 
BRANCH  14  15
ATOM     15  C   UNL     1      -3.767  -0.364  -4.815  0.00  0.00    +0.174 C 
BRANCH  15  16
ATOM     16  O   UNL     1      -3.742   0.969  -4.301  0.00  0.00    -0.393 OA
ATOM     17  H   UNL     1      -4.596   1.278  -3.968  0.00  0.00    +0.209 HD
ENDBRANCH  15  16
ENDBRANCH  14  15
ENDBRANCH  12  14
ENDBRANCH   8  12
ENDBRANCH   1   3
BRANCH   1  18
ATOM     18  O   UNL     1       1.255  -0.454  -0.992  0.00  0.00    -0.449 OA
BRANCH  18  20
ATOM     19  C   UNL     1       0.731   1.482   0.357  0.00  0.00    +0.062 C 
ATOM     20  C   UNL     1       0.750  -0.046   0.281  0.00  0.00    +0.259 C 
BRANCH  20  21
ATOM     21  C   UNL     1       1.634  -0.593   1.372  0.00  0.00    +0.258 C 
ATOM     22  O   UNL     1       2.652  -1.188   1.086  0.00  0.00    -0.271 OA
ATOM     23  N   UNL     1       1.295  -0.421   2.665  0.00  0.00    -0.282 N 
ATOM     24  H   UNL     1       0.516   0.109   2.895  0.00  0.00    +0.155 HD
BRANCH  23  25
ATOM     25  C   UNL     1       2.066  -1.007   3.675  0.00  0.00    +0.034 A 
ATOM     26  C   UNL     1       1.456  -1.488   4.825  0.00  0.00    +0.023 A 
ATOM     27  C   UNL     1       2.220  -2.066   5.821  0.00  0.00    +0.006 A 
ATOM     28  C   UNL     1       3.591  -2.165   5.671  0.00  0.00    -0.045 A 
ATOM     29  C   UNL     1       4.202  -1.686   4.527  0.00  0.00    +0.006 A 
ATOM     30  C   UNL     1       3.443  -1.113   3.526  0.00  0.00    +0.023 A 
BRANCH  28  31
ATOM     31  C   UNL     1       4.422  -2.796   6.759  0.00  0.00    +0.013 C 
ATOM     32  C   UNL     1       5.160  -4.012   6.197  0.00  0.00    +0.012 C 
ATOM     33  C   UNL     1       5.439  -1.778   7.279  0.00  0.00    +0.012 C 
ENDBRANCH  28  31
ENDBRANCH  23  25
ENDBRANCH  20  21
ENDBRANCH  18  20
ENDBRANCH   1  18
TORSDOF 11
