REMARK  Name = ZINC12473433
REMARK  11 active torsions:
REMARK  status: ('A' for Active; 'I' for Inactive)
REMARK    1  A    between atoms: C_1  and  C_2
REMARK    2  A    between atoms: C_5  and  N_8
REMARK    3  A    between atoms: C_9  and  C_11
REMARK    4  A    between atoms: C_11  and  S_12
REMARK    5  A    between atoms: S_12  and  C_14
REMARK    6  A    between atoms: C_14  and  C_15
REMARK    7  A    between atoms: N_17  and  C_18
REMARK    8  A    between atoms: N_17  and  C_28
REMARK    9  A    between atoms: C_18  and  C_19
REMARK   10  A    between atoms: N_21  and  C_22
REMARK   11  A    between atoms: C_31  and  C_34
REMARK                            x       y       z     vdW  Elec       q    Type
REMARK                         _______ _______ _______ _____ _____    ______ ____
ROOT
ATOM      1  C   UNL     1       5.346  -7.214  -0.929  0.00  0.00    +0.233 C 
ATOM      2  O   UNL     1       6.321  -6.499  -0.836  0.00  0.00    -0.274 OA
ATOM      3  N   UNL     1       5.485  -8.554  -0.873  0.00  0.00    -0.262 N 
ENDROOT
BRANCH   3   4
ATOM      4  C   UNL     1       4.352  -9.375  -0.878  0.00  0.00    +0.037 A 
ATOM      5  C   UNL     1       3.497  -9.387   0.216  0.00  0.00    +0.024 A 
ATOM      6  C   UNL     1       2.377 -10.195   0.207  0.00  0.00    +0.005 A 
ATOM      7  C   UNL     1       2.112 -11.000  -0.886  0.00  0.00    -0.050 A 
ATOM      8  C   UNL     1       2.965 -10.995  -1.975  0.00  0.00    +0.005 A 
ATOM      9  C   UNL     1       4.084 -10.185  -1.974  0.00  0.00    +0.024 A 
ATOM     10  C   UNL     1       0.893 -11.885  -0.890  0.00  0.00    +0.044 C 
ENDBRANCH   3   4
BRANCH   1  11
ATOM     11  C   UNL     1       3.979  -6.605  -1.108  0.00  0.00    +0.200 C 
BRANCH  11  12
ATOM     12  S   UNL     1       4.139  -4.809  -1.309  0.00  0.00    +0.040 S 
ATOM     13  O   UNL     1       4.875  -4.529  -2.492  0.00  0.00    -0.256 OA
BRANCH  12  14
ATOM     14  C   UNL     1       2.429  -4.237  -1.510  0.00  0.00    +0.200 C 
BRANCH  14  16
ATOM     15  N   UNL     1       1.250  -2.090  -1.857  0.00  0.00    -0.285 N 
ATOM     16  C   UNL     1       2.419  -2.740  -1.689  0.00  0.00    +0.230 C 
ATOM     17  O   UNL     1       3.462  -2.121  -1.682  0.00  0.00    -0.274 OA
ATOM     18  H   UNL     1       0.412  -2.574  -1.794  0.00  0.00    +0.155 HD
BRANCH  15  23
ATOM     19  C   UNL     1       1.233   3.479  -2.938  0.00  0.00    +0.044 C 
ATOM     20  C   UNL     1       1.238   2.000  -2.651  0.00  0.00    -0.050 A 
ATOM     21  C   UNL     1       2.267   1.208  -3.126  0.00  0.00    +0.005 A 
ATOM     22  C   UNL     1       2.274  -0.148  -2.864  0.00  0.00    +0.023 A 
ATOM     23  C   UNL     1       1.246  -0.716  -2.123  0.00  0.00    +0.033 A 
ATOM     24  C   UNL     1       0.214   0.082  -1.648  0.00  0.00    +0.023 A 
ATOM     25  C   UNL     1       0.213   1.437  -1.913  0.00  0.00    +0.005 A 
ENDBRANCH  15  23
ENDBRANCH  14  16
ENDBRANCH  12  14
ENDBRANCH  11  12
ENDBRANCH   1  11
BRANCH   3  26
ATOM     26  C   UNL     1       6.822  -9.149  -0.808  0.00  0.00    +0.209 C 
BRANCH  26  27
ATOM     27  C   UNL     1       7.235  -9.299   0.633  0.00  0.00    +0.231 C 
ATOM     28  O   UNL     1       6.486  -8.943   1.519  0.00  0.00    -0.274 OA
ATOM     29  N   UNL     1       8.436  -9.829   0.939  0.00  0.00    -0.311 N 
ATOM     30  H   UNL     1       9.035 -10.113   0.230  0.00  0.00    +0.149 HD
BRANCH  29  31
ATOM     31  C   UNL     1       8.838  -9.974   2.340  0.00  0.00    +0.073 C 
ATOM     32  C   UNL     1       9.454  -8.663   2.832  0.00  0.00    +0.022 C 
ATOM     33  C   UNL     1       9.874  -8.815   4.296  0.00  0.00    +0.002 C 
ATOM     34  C   UNL     1      10.904  -9.940   4.417  0.00  0.00    +0.000 C 
ATOM     35  C   UNL     1      10.287 -11.251   3.925  0.00  0.00    +0.002 C 
ATOM     36  C   UNL     1       9.868 -11.099   2.461  0.00  0.00    +0.022 C 
ENDBRANCH  29  31
ENDBRANCH  26  27
ENDBRANCH   3  26
TORSDOF 9
