REMARK  Name = ZINC02518576
REMARK  7 active torsions:
REMARK  status: ('A' for Active; 'I' for Inactive)
REMARK    1  A    between atoms: C_3  and  N_9
REMARK    2  A    between atoms: C_10  and  C_12
REMARK    3  A    between atoms: N_14  and  N_15
REMARK    4  A    between atoms: C_16  and  C_17
REMARK    5  A    between atoms: C_20  and  O_23
REMARK    6  A    between atoms: O_23  and  C_24
REMARK    7  A    between atoms: C_24  and  C_26
REMARK                            x       y       z     vdW  Elec       q    Type
REMARK                         _______ _______ _______ _____ _____    ______ ____
ROOT
ATOM      1  C   UNL     1     -10.049  -3.616   0.329  0.00  0.00    +0.318 C 
ATOM      2  O   UNL     1      -9.037  -4.287   0.346  0.00  0.00    -0.263 OA
ATOM      3  N   UNL     1      -9.965  -2.273   0.262  0.00  0.00    -0.199 N 
ATOM      4  H   UNL     1     -10.774  -1.737   0.248  0.00  0.00    +0.178 HD
ENDROOT
BRANCH   1   6
ATOM      5  N   UNL     1     -11.466  -5.622   0.448  0.00  0.00    -0.276 N 
ATOM      6  C   UNL     1     -11.383  -4.279   0.381  0.00  0.00    +0.305 C 
ATOM      7  O   UNL     1     -12.395  -3.608   0.364  0.00  0.00    -0.265 OA
ATOM      8  H   UNL     1     -10.661  -6.154   0.542  0.00  0.00    +0.155 HD
BRANCH   5  11
ATOM      9  C   UNL     1     -15.010  -6.238  -0.314  0.00  0.00    +0.003 A 
ATOM     10  C   UNL     1     -13.778  -5.616  -0.248  0.00  0.00    +0.025 A 
ATOM     11  C   UNL     1     -12.714  -6.249   0.380  0.00  0.00    +0.054 A 
ATOM     12  C   UNL     1     -12.890  -7.511   0.937  0.00  0.00    +0.080 A 
ATOM     13  C   UNL     1     -14.128  -8.125   0.874  0.00  0.00    +0.061 A 
ATOM     14  C   UNL     1     -15.185  -7.490   0.246  0.00  0.00    +0.021 A 
ATOM     15 CL   UNL     1     -14.353  -9.697   1.576  0.00  0.00    -0.082 Cl
ATOM     16 CL   UNL     1     -11.562  -8.311   1.717  0.00  0.00    -0.080 Cl
ENDBRANCH   5  11
ENDBRANCH   1   6
BRANCH   3  17
ATOM     17  N   UNL     1      -8.711  -1.650   0.213  0.00  0.00    -0.187 NA
ATOM     18  C   UNL     1      -8.631  -0.355   0.149  0.00  0.00    +0.138 C 
BRANCH  18  19
ATOM     19  C   UNL     1      -7.312   0.300   0.097  0.00  0.00    -0.005 A 
ATOM     20  C   UNL     1      -7.223   1.693   0.028  0.00  0.00    +0.013 A 
ATOM     21  C   UNL     1      -5.988   2.301  -0.020  0.00  0.00    +0.047 A 
ATOM     22  C   UNL     1      -4.831   1.531   0.000  0.00  0.00    +0.132 A 
ATOM     23  C   UNL     1      -4.915   0.146   0.063  0.00  0.00    +0.047 A 
ATOM     24  C   UNL     1      -6.146  -0.471   0.117  0.00  0.00    +0.013 A 
BRANCH  22  25
ATOM     25  O   UNL     1      -3.615   2.135  -0.047  0.00  0.00    -0.422 OA
BRANCH  25  26
ATOM     26  C   UNL     1      -3.168   2.747   1.069  0.00  0.00    +0.351 C 
ATOM     27  O   UNL     1      -3.885   2.825   2.049  0.00  0.00    -0.244 OA
BRANCH  26  28
ATOM     28  C   UNL     1      -1.819   3.315   1.102  0.00  0.00    +0.097 A 
ATOM     29  C   UNL     1      -1.175   3.978   2.136  0.00  0.00    +0.022 A 
ATOM     30  C   UNL     1       0.106   4.409   1.899  0.00  0.00    +0.008 A 
ATOM     31  C   UNL     1       0.670   4.177   0.684  0.00  0.00    +0.046 A 
ATOM     32  S   UNL     1      -0.578   3.340  -0.180  0.00  0.00    -0.090 S 
ENDBRANCH  26  28
ENDBRANCH  25  26
ENDBRANCH  22  25
ENDBRANCH  18  19
ENDBRANCH   3  17
TORSDOF 7
