REMARK  Name = ZINC29872535
REMARK  7 active torsions:
REMARK  status: ('A' for Active; 'I' for Inactive)
REMARK    1  A    between atoms: C_1  and  C_2
REMARK    2  A    between atoms: N_11  and  C_15
REMARK    3  A    between atoms: C_15  and  C_16
REMARK    4  A    between atoms: C_21  and  C_24
REMARK    5  A    between atoms: C_26  and  C_30
REMARK    6  A    between atoms: C_30  and  O_32
REMARK    7  A    between atoms: O_32  and  C_33
REMARK                            x       y       z     vdW  Elec       q    Type
REMARK                         _______ _______ _______ _____ _____    ______ ____
ROOT
ATOM      1  C   UNL     1      -3.260  -1.886   2.395  0.00  0.00    +0.237 C 
ATOM      2  O   UNL     1      -2.349  -2.223   1.669  0.00  0.00    -0.274 OA
ATOM      3  N   UNL     1      -4.237  -2.763   2.700  0.00  0.00    -0.263 N 
ATOM      4  C   UNL     1      -4.200  -4.053   2.184  0.00  0.00    +0.165 A 
ATOM      5  N   UNL     1      -5.050  -5.042   2.371  0.00  0.00    -0.225 NA
ATOM      6  C   UNL     1      -4.869  -6.221   1.795  0.00  0.00    +0.082 A 
ATOM      7  C   UNL     1      -3.765  -6.388   1.008  0.00  0.00    +0.077 A 
ATOM      8  S   UNL     1      -3.017  -4.771   1.135  0.00  0.00    -0.060 S 
ATOM      9  H   UNL     1      -5.064  -2.458   3.359  0.00  0.00    +0.157 HD
ENDROOT
BRANCH   6  10
ATOM     10  C   UNL     1      -5.834  -7.330   2.004  0.00  0.00    +0.019 A 
ATOM     11  C   UNL     1      -7.048  -7.255   2.711  0.00  0.00    +0.044 A 
ATOM     12  C   UNL     1      -7.624  -8.505   2.654  0.00  0.00    +0.125 A 
ATOM     13  N   UNL     1      -6.779  -9.325   1.939  0.00  0.00    -0.355 N 
ATOM     14  H   UNL     1      -7.045 -10.379   1.775  0.00  0.00    +0.166 HD
ATOM     15  C   UNL     1      -5.702  -8.611   1.550  0.00  0.00    +0.093 A 
BRANCH  12  16
ATOM     16  C   UNL     1      -8.904  -8.895   3.253  0.00  0.00    +0.355 C 
ATOM     17  O   UNL     1      -9.564  -8.076   3.864  0.00  0.00    -0.243 OA
BRANCH  16  18
ATOM     18  O   UNL     1      -9.350 -10.162   3.126  0.00  0.00    -0.463 OA
ATOM     19  C   UNL     1     -10.625 -10.476   3.744  0.00  0.00    +0.280 C 
ENDBRANCH  16  18
ENDBRANCH  12  16
ENDBRANCH   6  10
BRANCH   1  20
ATOM     20  C   UNL     1      -3.301  -0.488   2.955  0.00  0.00    +0.214 C 
BRANCH  20  30
ATOM     21  C   UNL     1      -1.536   3.561   2.539  0.00  0.00    +0.010 C 
ATOM     22  C   UNL     1      -0.790   3.101   1.286  0.00  0.00    +0.018 C 
ATOM     23  C   UNL     1      -1.527   3.600   0.040  0.00  0.00    +0.006 C 
ATOM     24  C   UNL     1      -0.790   3.122  -1.213  0.00  0.00    +0.000 C 
ATOM     25  C   UNL     1      -0.753   1.593  -1.233  0.00  0.00    +0.003 C 
ATOM     26  C   UNL     1      -0.013   1.086   0.008  0.00  0.00    +0.035 C 
ATOM     27  C   UNL     1      -0.726   1.577   1.263  0.00  0.00    +0.115 C 
ATOM     28  C   UNL     1      -2.117   0.991   1.342  0.00  0.00    +0.247 C 
ATOM     29  O   UNL     1      -3.023   1.142   0.552  0.00  0.00    -0.273 OA
ATOM     30  N   UNL     1      -2.136   0.263   2.478  0.00  0.00    -0.215 N 
ATOM     31  C   UNL     1      -0.960   0.312   3.115  0.00  0.00    +0.310 C 
ATOM     32  O   UNL     1      -0.734  -0.264   4.161  0.00  0.00    -0.252 OA
ATOM     33  N   UNL     1      -0.056   1.072   2.468  0.00  0.00    -0.285 N 
ATOM     34  H   UNL     1       0.989   1.346   2.672  0.00  0.00    +0.151 HD
ENDBRANCH  20  30
ENDBRANCH   1  20
TORSDOF 5
