REMARK  Name = ZINC39293339
REMARK  18 active torsions:
REMARK  status: ('A' for Active; 'I' for Inactive)
REMARK    1  A    between atoms: C_1  and  C_2
REMARK    2  A    between atoms: C_2  and  C_3
REMARK    3  A    between atoms: C_2  and  C_4
REMARK    4  A    between atoms: C_2  and  O_5
REMARK    5  A    between atoms: O_5  and  C_6
REMARK    6  A    between atoms: C_6  and  C_8
REMARK    7  A    between atoms: C_8  and  C_9
REMARK    8  A    between atoms: C_9  and  C_11
REMARK    9  A    between atoms: C_9  and  C_34
REMARK   10  A    between atoms: C_11  and  N_12
REMARK   11  A    between atoms: C_18  and  O_33
REMARK   12  A    between atoms: C_29  and  O_30
REMARK   13  A    between atoms: O_30  and  C_31
REMARK   14  A    between atoms: C_34  and  O_36
REMARK   15  A    between atoms: O_36  and  C_37
REMARK   16  A    between atoms: C_37  and  C_38
REMARK   17  A    between atoms: C_37  and  C_39
REMARK   18  A    between atoms: C_37  and  C_40
REMARK                            x       y       z     vdW  Elec       q    Type
REMARK                         _______ _______ _______ _____ _____    ______ ____
ROOT
ATOM      1  N   UNL     1       6.321   0.022  -3.604  0.00  0.00    +0.383 N 
ATOM      2  C   UNL     1       6.958  -0.216  -4.868  0.00  0.00    -0.077 C 
ATOM      3  C   UNL     1       8.029   0.771  -5.229  0.00  0.00    +0.001 C 
ATOM      4  C   UNL     1       9.345   0.475  -4.538  0.00  0.00    +0.053 C 
ATOM      5  C   UNL     1       9.829  -0.902  -4.851  0.00  0.00    -0.014 C 
ATOM      6  C   UNL     1      10.934  -1.185  -5.455  0.00  0.00    +0.001 C 
ATOM      7  C   UNL     1      11.910  -0.154  -5.927  0.00  0.00    +0.141 C 
ATOM      8  C   UNL     1      11.274   1.216  -6.034  0.00  0.00    +0.081 C 
ATOM      9  C   UNL     1      10.370   1.558  -4.881  0.00  0.00    +0.191 C 
ATOM     10  O   UNL     1      11.095   1.755  -3.661  0.00  0.00    -0.484 OA
ATOM     11  C   UNL     1      10.312   1.389  -2.623  0.00  0.00    +0.167 A 
ATOM     12  C   UNL     1       9.213   0.621  -3.032  0.00  0.00    +0.013 A 
ATOM     13  C   UNL     1       8.303   0.116  -2.156  0.00  0.00    -0.056 A 
ATOM     14  C   UNL     1       8.546   0.355  -0.794  0.00  0.00    +0.006 A 
ATOM     15  C   UNL     1       9.610   1.114  -0.369  0.00  0.00    +0.049 A 
ATOM     16  C   UNL     1      10.518   1.665  -1.265  0.00  0.00    +0.162 A 
ATOM     17  C   UNL     1       7.002  -0.565  -2.468  0.00  0.00    -0.043 C 
ATOM     18  H   UNL     1       6.261   1.019  -3.461  0.00  0.00    -0.081 HD
ENDROOT
BRANCH  16  19
ATOM     19  O   UNL     1      11.558   2.433  -0.845  0.00  0.00    -0.491 OA
ATOM     20  C   UNL     1      11.676   2.651   0.563  0.00  0.00    +0.277 C 
ENDBRANCH  16  19
BRANCH   7  21
ATOM     21  O   UNL     1      13.001  -0.090  -5.006  0.00  0.00    -0.388 OA
ATOM     22  H   UNL     1      13.483  -0.922  -4.909  0.00  0.00    +0.210 HD
ENDBRANCH   7  21
BRANCH   1  23
ATOM     23  C   UNL     1       4.957  -0.522  -3.661  0.00  0.00    -0.063 C 
BRANCH  23  24
ATOM     24  C   UNL     1       4.165  -0.039  -2.444  0.00  0.00    +0.092 C 
BRANCH  24  25
ATOM     25  C   UNL     1       3.968   1.453  -2.533  0.00  0.00    +0.309 C 
ATOM     26  O   UNL     1       2.851   1.913  -2.570  0.00  0.00    -0.251 OA
BRANCH  25  27
ATOM     27  O   UNL     1       5.032   2.269  -2.572  0.00  0.00    -0.459 OA
BRANCH  27  28
ATOM     28  C   UNL     1       4.771   3.672  -2.656  0.00  0.00    +0.105 C 
ATOM     29  C   UNL     1       3.959   4.114  -1.437  0.00  0.00    +0.055 C 
ATOM     30  C   UNL     1       6.097   4.436  -2.689  0.00  0.00    +0.055 C 
ATOM     31  C   UNL     1       3.980   3.968  -3.931  0.00  0.00    +0.055 C 
ENDBRANCH  27  28
ENDBRANCH  25  27
ENDBRANCH  24  25
BRANCH  24  32
ATOM     32  C   UNL     1       2.801  -0.732  -2.415  0.00  0.00    +0.133 C 
BRANCH  32  33
ATOM     33  C   UNL     1       2.071  -0.351  -1.154  0.00  0.00    +0.308 C 
ATOM     34  O   UNL     1       2.587   0.399  -0.359  0.00  0.00    -0.251 OA
BRANCH  33  35
ATOM     35  O   UNL     1       0.846  -0.844  -0.913  0.00  0.00    -0.459 OA
BRANCH  35  37
ATOM     36  C   UNL     1       0.051   1.081   0.313  0.00  0.00    +0.055 C 
ATOM     37  C   UNL     1       0.211  -0.441   0.302  0.00  0.00    +0.105 C 
ATOM     38  C   UNL     1       1.070  -0.872   1.493  0.00  0.00    +0.055 C 
ATOM     39  C   UNL     1      -1.166  -1.099   0.402  0.00  0.00    +0.055 C 
ENDBRANCH  35  37
ENDBRANCH  33  35
ENDBRANCH  32  33
ENDBRANCH  24  32
ENDBRANCH  23  24
ENDBRANCH   1  23
TORSDOF 11
