REMARK  Name = ZINC03623585
REMARK  5 active torsions:
REMARK  status: ('A' for Active; 'I' for Inactive)
REMARK    1  A    between atoms: C_1  and  C_2
REMARK    2  A    between atoms: C_5  and  N_8
REMARK    3  A    between atoms: C_17  and  C_21
REMARK    4  A    between atoms: C_17  and  N_25
REMARK    5  A    between atoms: C_26  and  C_28
REMARK                            x       y       z     vdW  Elec       q    Type
REMARK                         _______ _______ _______ _____ _____    ______ ____
ROOT
ATOM      1  N   UNL     1       1.127   1.699   0.025  0.00  0.00    -0.249 N 
ATOM      2  C   UNL     1       1.087   3.079   0.051  0.00  0.00    +0.125 A 
ATOM      3  C   UNL     1      -0.131   3.692   0.046  0.00  0.00    +0.097 A 
ATOM      4  C   UNL     1      -1.304   2.928   0.015  0.00  0.00    +0.262 A 
ATOM      5  O   UNL     1      -2.394   3.473   0.011  0.00  0.00    -0.267 OA
ATOM      6  N   UNL     1      -1.216   1.581  -0.016  0.00  0.00    -0.274 N 
ATOM      7  H   UNL     1      -2.047   1.027  -0.046  0.00  0.00    +0.173 HD
ATOM      8  C   UNL     1      -0.010   0.983  -0.006  0.00  0.00    +0.335 A 
ATOM      9  O   UNL     1       0.051  -0.231  -0.029  0.00  0.00    -0.246 OA
ATOM     10  C   UNL     1       0.134   5.179   0.080  0.00  0.00    +0.240 C 
ATOM     11  C   UNL     1       1.647   5.269   0.103  0.00  0.00    +0.256 C 
ATOM     12  O   UNL     1       2.314   6.281   0.133  0.00  0.00    -0.272 OA
ATOM     13  N   UNL     1       2.103   4.004   0.084  0.00  0.00    -0.269 N 
ATOM     14  H   UNL     1       3.044   3.770   0.093  0.00  0.00    +0.156 HD
ENDROOT
BRANCH   1  19
ATOM     15  C   UNL     1       6.133  -0.972   0.044  0.00  0.00    +0.044 C 
ATOM     16  C   UNL     1       4.804  -0.263   0.039  0.00  0.00    -0.050 A 
ATOM     17  C   UNL     1       4.436   0.505  -1.051  0.00  0.00    +0.005 A 
ATOM     18  C   UNL     1       3.218   1.156  -1.058  0.00  0.00    +0.026 A 
ATOM     19  C   UNL     1       2.363   1.039   0.029  0.00  0.00    +0.053 A 
ATOM     20  C   UNL     1       2.737   0.272   1.124  0.00  0.00    +0.026 A 
ATOM     21  C   UNL     1       3.954  -0.382   1.123  0.00  0.00    +0.005 A 
ENDBRANCH   1  19
BRANCH  10  22
ATOM     22  C   UNL     1      -0.466   5.804   1.341  0.00  0.00    +0.424 C 
ATOM     23  F   UNL     1       0.169   5.276   2.470  0.00  0.00    -0.167 F 
ATOM     24  F   UNL     1      -0.279   7.191   1.307  0.00  0.00    -0.167 F 
ATOM     25  F   UNL     1      -1.834   5.519   1.397  0.00  0.00    -0.167 F 
ENDBRANCH  10  22
BRANCH  10  26
ATOM     26  N   UNL     1      -0.403   5.825  -1.120  0.00  0.00    -0.287 N 
ATOM     27  C   UNL     1      -0.029   5.396  -2.342  0.00  0.00    +0.247 C 
ATOM     28  O   UNL     1       0.829   4.541  -2.449  0.00  0.00    -0.270 OA
ATOM     29  H   UNL     1      -1.028   6.562  -1.036  0.00  0.00    +0.151 HD
BRANCH  27  30
ATOM     30  C   UNL     1      -0.661   5.964  -3.551  0.00  0.00    +0.055 A 
ATOM     31  C   UNL     1      -0.277   5.530  -4.826  0.00  0.00    +0.016 A 
ATOM     32  C   UNL     1      -0.904   6.090  -5.925  0.00  0.00    +0.020 A 
ATOM     33  C   UNL     1      -1.873   7.059  -5.732  0.00  0.00    +0.111 A 
ATOM     34  N   UNL     1      -2.211   7.452  -4.519  0.00  0.00    -0.263 NA
ATOM     35  C   UNL     1      -1.647   6.945  -3.442  0.00  0.00    +0.123 A 
ENDBRANCH  27  30
ENDBRANCH  10  26
TORSDOF 4
