REMARK  Name = ZINC03328446
REMARK  5 active torsions:
REMARK  status: ('A' for Active; 'I' for Inactive)
REMARK    1  A    between atoms: C_1  and  C_2
REMARK    2  A    between atoms: C_5  and  N_9
REMARK    3  A    between atoms: C_6  and  C_8
REMARK    4  A    between atoms: N_20  and  S_21
REMARK    5  A    between atoms: S_21  and  C_24
REMARK                            x       y       z     vdW  Elec       q    Type
REMARK                         _______ _______ _______ _____ _____    ______ ____
ROOT
ATOM      1  N   UNL     1       5.279   2.362   4.216  0.00  0.00    -0.296 N 
ATOM      2  C   UNL     1       4.992   1.104   3.708  0.00  0.00    +0.165 A 
ATOM      3  C   UNL     1       4.565   0.967   2.365  0.00  0.00    +0.179 A 
ATOM      4  N   UNL     1       4.284  -0.221   1.872  0.00  0.00    -0.226 NA
ATOM      5  C   UNL     1       4.413  -1.310   2.645  0.00  0.00    +0.091 A 
ATOM      6  C   UNL     1       4.123  -2.588   2.141  0.00  0.00    +0.030 A 
ATOM      7  C   UNL     1       4.256  -3.679   2.947  0.00  0.00    +0.002 A 
ATOM      8  C   UNL     1       4.676  -3.545   4.268  0.00  0.00    +0.002 A 
ATOM      9  C   UNL     1       4.965  -2.320   4.789  0.00  0.00    +0.030 A 
ATOM     10  C   UNL     1       4.839  -1.174   3.987  0.00  0.00    +0.091 A 
ATOM     11  N   UNL     1       5.117   0.043   4.478  0.00  0.00    -0.227 NA
ATOM     12  N   UNL     1       4.438   2.093   1.565  0.00  0.00    -0.196 N 
ATOM     13  H   UNL     1       5.272   3.135   3.629  0.00  0.00    +0.154 HD
ATOM     14  H   UNL     1       4.640   2.970   1.926  0.00  0.00    +0.175 HD
ENDROOT
BRANCH   1  19
ATOM     15  C   UNL     1       6.500   2.989   9.719  0.00  0.00    +0.044 C 
ATOM     16  C   UNL     1       6.176   2.822   8.256  0.00  0.00    -0.050 A 
ATOM     17  C   UNL     1       5.413   1.747   7.837  0.00  0.00    +0.005 A 
ATOM     18  C   UNL     1       5.114   1.592   6.498  0.00  0.00    +0.024 A 
ATOM     19  C   UNL     1       5.580   2.517   5.572  0.00  0.00    +0.035 A 
ATOM     20  C   UNL     1       6.349   3.593   5.996  0.00  0.00    -0.029 A 
ATOM     21  C   UNL     1       6.640   3.745   7.337  0.00  0.00    +0.008 A 
ATOM     22  C   UNL     1       6.861   4.596   4.994  0.00  0.00    +0.045 C 
ENDBRANCH   1  19
BRANCH  12  23
ATOM     23  S   UNL     1       3.939   1.939  -0.007  0.00  0.00    +0.080 S 
ATOM     24  O   UNL     1       4.731   0.912  -0.586  0.00  0.00    -0.149 OA
ATOM     25  O   UNL     1       3.883   3.253  -0.545  0.00  0.00    -0.149 OA
BRANCH  23  26
ATOM     26  C   UNL     1       2.283   1.338   0.029  0.00  0.00    +0.147 A 
ATOM     27  C   UNL     1       1.122   2.037   0.063  0.00  0.00    +0.038 A 
ATOM     28  C   UNL     1      -0.076   1.347   0.087  0.00  0.00    +0.025 A 
ATOM     29  C   UNL     1      -0.053  -0.010   0.075  0.00  0.00    +0.057 A 
ATOM     30  S   UNL     1       1.699  -0.349   0.029  0.00  0.00    -0.061 S 
ATOM     31 BR   UNL     1      -1.501  -1.225   0.101  0.00  0.00    -0.043 Br
ENDBRANCH  23  26
ENDBRANCH  12  23
TORSDOF 3
