REMARK  Name = ZINC02359883
REMARK  4 active torsions:
REMARK  status: ('A' for Active; 'I' for Inactive)
REMARK    1  A    between atoms: C_4  and  C_7
REMARK    2  A    between atoms: C_8  and  C_9
REMARK    3  A    between atoms: C_17  and  C_29
REMARK    4  A    between atoms: C_20  and  C_22
REMARK                            x       y       z     vdW  Elec       q    Type
REMARK                         _______ _______ _______ _____ _____    ______ ____
ROOT
ATOM      1  C   UNL     1       4.993  -2.739  -0.062  0.00  0.00    +0.243 C 
ATOM      2  O   UNL     1       6.037  -2.113  -0.070  0.00  0.00    -0.270 OA
ATOM      3  N   UNL     1       5.016  -4.086  -0.070  0.00  0.00    -0.250 N 
ATOM      4  C   UNL     1       6.237  -4.764  -0.086  0.00  0.00    +0.243 A 
ATOM      5  N   UNL     1       7.443  -4.186  -0.090  0.00  0.00    -0.176 NA
ATOM      6  C   UNL     1       8.374  -5.109  -0.108  0.00  0.00    +0.251 A 
ATOM      7  N   UNL     1       7.749  -6.326  -0.108  0.00  0.00    -0.220 N 
ATOM      8  N   UNL     1       6.382  -6.074  -0.095  0.00  0.00    -0.131 NA
ATOM      9  C   UNL     1       8.485  -7.590  -0.109  0.00  0.00    +0.147 C 
ATOM     10  C   UNL     1       9.823  -7.359  -0.822  0.00  0.00    +0.087 C 
ATOM     11  C   UNL     1      10.442  -6.057  -0.399  0.00  0.00    +0.055 C 
ATOM     12  N   UNL     1       9.730  -5.003  -0.103  0.00  0.00    -0.215 NA
ATOM     13  H   UNL     1       4.184  -4.585  -0.064  0.00  0.00    +0.158 HD
ENDROOT
BRANCH  11  14
ATOM     14  C   UNL     1      11.908  -5.966  -0.315  0.00  0.00    -0.003 A 
ATOM     15  C   UNL     1      12.700  -7.075  -0.630  0.00  0.00    +0.011 A 
ATOM     16  C   UNL     1      14.073  -6.982  -0.549  0.00  0.00    +0.020 A 
ATOM     17  C   UNL     1      14.669  -5.794  -0.156  0.00  0.00    +0.041 A 
ATOM     18  C   UNL     1      13.890  -4.692   0.158  0.00  0.00    +0.020 A 
ATOM     19  C   UNL     1      12.516  -4.768   0.075  0.00  0.00    +0.011 A 
ATOM     20 CL   UNL     1      16.398  -5.686  -0.055  0.00  0.00    -0.084 Cl
ENDBRANCH  11  14
BRANCH   9  21
ATOM     21  C   UNL     1       8.733  -8.037   1.309  0.00  0.00    -0.023 A 
ATOM     22  C   UNL     1       9.453  -7.232   2.171  0.00  0.00    +0.006 A 
ATOM     23  C   UNL     1       9.680  -7.641   3.472  0.00  0.00    +0.000 A 
ATOM     24  C   UNL     1       9.186  -8.856   3.910  0.00  0.00    +0.000 A 
ATOM     25  C   UNL     1       8.465  -9.661   3.048  0.00  0.00    +0.000 A 
ATOM     26  C   UNL     1       8.235  -9.249   1.748  0.00  0.00    +0.006 A 
ENDBRANCH   9  21
BRANCH   1  28
ATOM     27  C   UNL     1       3.692  -0.680  -0.038  0.00  0.00    +0.013 C 
ATOM     28  C   UNL     1       3.714  -2.028  -0.045  0.00  0.00    +0.068 C 
BRANCH  27  32
ATOM     29  C   UNL     1      -0.017   1.380   0.010  0.00  0.00    +0.000 A 
ATOM     30  C   UNL     1       1.168   2.095   0.002  0.00  0.00    +0.001 A 
ATOM     31  C   UNL     1       2.377   1.433  -0.013  0.00  0.00    +0.008 A 
ATOM     32  C   UNL     1       2.405   0.035  -0.021  0.00  0.00    -0.025 A 
ATOM     33  C   UNL     1       1.203  -0.681  -0.013  0.00  0.00    +0.008 A 
ATOM     34  C   UNL     1       0.002  -0.004   0.002  0.00  0.00    +0.001 A 
ENDBRANCH  27  32
ENDBRANCH   1  28
TORSDOF 4
