REMARK  Name = ZINC39669634
REMARK  10 active torsions:
REMARK  status: ('A' for Active; 'I' for Inactive)
REMARK    1  A    between atoms: C_1  and  C_2
REMARK    2  A    between atoms: C_2  and  O_3
REMARK    3  A    between atoms: O_3  and  C_4
REMARK    4  A    between atoms: C_7  and  C_10
REMARK    5  A    between atoms: C_14  and  C_23
REMARK    6  A    between atoms: N_25  and  C_26
REMARK    7  A    between atoms: C_26  and  C_27
REMARK    8  A    between atoms: C_27  and  C_28
REMARK    9  A    between atoms: C_27  and  C_29
REMARK   10  A    between atoms: C_27  and  N_30
REMARK                            x       y       z     vdW  Elec       q    Type
REMARK                         _______ _______ _______ _____ _____    ______ ____
ROOT
ATOM      1  C   UNL     1       1.106  -6.491  -1.793  0.00  0.00    +0.247 C 
ATOM      2  O   UNL     1       0.713  -7.307  -0.981  0.00  0.00    -0.270 OA
ATOM      3  N   UNL     1       1.634  -6.904  -2.962  0.00  0.00    -0.296 N 
ATOM      4  C   UNL     1       2.268  -6.076  -4.015  0.00  0.00    +0.121 C 
ATOM      5  C   UNL     1       3.466  -6.918  -4.505  0.00  0.00    +0.100 C 
ATOM      6  C   UNL     1       3.095  -8.369  -4.157  0.00  0.00    -0.004 C 
ATOM      7  C   UNL     1       1.717  -8.289  -3.483  0.00  0.00    +0.115 C 
ATOM      8  C   UNL     1       3.015  -9.213  -5.426  0.00  0.00    -0.010 C 
ATOM      9  C   UNL     1       2.701 -10.664  -5.049  0.00  0.00    -0.082 C 
ATOM     10  N   UNL     1       3.750 -11.179  -4.160  0.00  0.00    +0.379 N 
ATOM     11  C   UNL     1       3.758 -10.420  -2.904  0.00  0.00    -0.082 C 
ATOM     12  C   UNL     1       4.116  -8.959  -3.190  0.00  0.00    -0.010 C 
ATOM     13  H   UNL     1       3.573 -12.152  -3.962  0.00  0.00    -0.086 HD
ATOM     14  H   UNL     1       4.647 -11.087  -4.612  0.00  0.00    -0.086 HD
ENDROOT
BRANCH   1  18
ATOM     15  C   UNL     1       0.813  -2.341  -0.941  0.00  0.00    +0.121 A 
ATOM     16  C   UNL     1       0.879  -2.775  -2.260  0.00  0.00    +0.046 A 
ATOM     17  C   UNL     1       0.974  -4.120  -2.540  0.00  0.00    +0.016 A 
ATOM     18  C   UNL     1       1.005  -5.049  -1.497  0.00  0.00    +0.037 A 
ATOM     19  C   UNL     1       0.939  -4.608  -0.172  0.00  0.00    +0.016 A 
ATOM     20  C   UNL     1       0.849  -3.261   0.100  0.00  0.00    +0.046 A 
BRANCH  15  21
ATOM     21  O   UNL     1       0.720  -1.015  -0.669  0.00  0.00    -0.492 OA
BRANCH  21  23
ATOM     22  C   UNL     1       0.581   1.318  -1.286  0.00  0.00    +0.048 C 
ATOM     23  C   UNL     1       0.688  -0.124  -1.786  0.00  0.00    +0.225 C 
ENDBRANCH  21  23
ENDBRANCH  15  21
ENDBRANCH   1  18
BRANCH   5  24
ATOM     24  C   UNL     1       3.643  -6.762  -5.994  0.00  0.00    +0.218 C 
ATOM     25  O   UNL     1       2.697  -6.458  -6.688  0.00  0.00    -0.275 OA
ATOM     26  N   UNL     1       4.853  -6.961  -6.553  0.00  0.00    -0.313 N 
ATOM     27  H   UNL     1       5.610  -7.204  -5.998  0.00  0.00    +0.149 HD
BRANCH  26  28
ATOM     28  C   UNL     1       5.025  -6.809  -8.000  0.00  0.00    +0.126 C 
BRANCH  28  29
ATOM     29  C   UNL     1       6.505  -6.966  -8.357  0.00  0.00    +0.032 C 
ATOM     30  C   UNL     1       6.955  -8.395  -8.050  0.00  0.00    +0.029 C 
ATOM     31  C   UNL     1       6.703  -6.677  -9.847  0.00  0.00    +0.029 C 
BRANCH  29  32
ATOM     32  N   UNL     1       7.302  -6.020  -7.565  0.00  0.00    -0.291 NA
ATOM     33  C   UNL     1       6.775  -4.654  -7.687  0.00  0.00    +0.113 C 
ATOM     34  C   UNL     1       7.596  -3.714  -6.801  0.00  0.00    +0.175 C 
ATOM     35  O   UNL     1       8.974  -3.798  -7.175  0.00  0.00    -0.377 OA
ATOM     36  C   UNL     1       9.521  -5.115  -7.067  0.00  0.00    +0.175 C 
ATOM     37  C   UNL     1       8.719  -6.069  -7.956  0.00  0.00    +0.113 C 
ENDBRANCH  29  32
ENDBRANCH  28  29
ENDBRANCH  26  28
ENDBRANCH   5  24
TORSDOF 7
