REMARK  Name = ZINC20921239
REMARK  11 active torsions:
REMARK  status: ('A' for Active; 'I' for Inactive)
REMARK    1  A    between atoms: C_1  and  C_2
REMARK    2  A    between atoms: C_2  and  C_3
REMARK    3  A    between atoms: C_2  and  N_4
REMARK    4  A    between atoms: C_6  and  C_9
REMARK    5  A    between atoms: N_10  and  N_11
REMARK    6  A    between atoms: C_15  and  S_18
REMARK    7  A    between atoms: N_16  and  N_17
REMARK    8  A    between atoms: S_18  and  C_19
REMARK    9  A    between atoms: C_19  and  C_20
REMARK   10  A    between atoms: C_20  and  C_21
REMARK   11  A    between atoms: N_23  and  C_24
REMARK                            x       y       z     vdW  Elec       q    Type
REMARK                         _______ _______ _______ _____ _____    ______ ____
ROOT
ATOM      1  N   UNL     1      -1.824   3.677   6.759  0.00  0.00    -0.204 N 
ATOM      2  C   UNL     1      -2.910   4.127   7.495  0.00  0.00    +0.254 A 
ATOM      3  N   UNL     1      -4.125   4.317   7.039  0.00  0.00    -0.109 NA
ATOM      4  N   UNL     1      -4.919   4.771   8.100  0.00  0.00    -0.119 NA
ATOM      5  C   UNL     1      -4.162   4.852   9.167  0.00  0.00    +0.210 A 
ATOM      6  N   UNL     1      -2.901   4.457   8.822  0.00  0.00    -0.211 N 
ATOM      7  H   UNL     1      -0.844   3.557   7.242  0.00  0.00    +0.177 HD
ENDROOT
BRANCH   6   8
ATOM      8  N   UNL     1      -1.820   4.400   9.655  0.00  0.00    -0.294 N 
ATOM      9  H   UNL     1      -1.924   4.690  10.711  0.00  0.00    +0.163 HD
ATOM     10  H   UNL     1      -0.846   4.064   9.271  0.00  0.00    +0.163 HD
ENDBRANCH   6   8
BRANCH   1  12
ATOM     11  C   UNL     1      -0.961   2.953   4.710  0.00  0.00    +0.141 C 
ATOM     12  N   UNL     1      -1.976   3.374   5.399  0.00  0.00    -0.187 NA
BRANCH  11  15
ATOM     13  N   UNL     1      -0.699   2.014   1.213  0.00  0.00    -0.268 N 
ATOM     14  C   UNL     1      -0.137   2.180   2.427  0.00  0.00    +0.118 A 
ATOM     15  C   UNL     1      -1.121   2.634   3.278  0.00  0.00    +0.032 A 
ATOM     16  C   UNL     1      -2.311   2.738   2.526  0.00  0.00    +0.143 A 
ATOM     17  N   UNL     1      -2.049   2.374   1.299  0.00  0.00    -0.179 NA
BRANCH  13  19
ATOM     18  C   UNL     1       0.001   0.015  -0.009  0.00  0.00    +0.032 C 
ATOM     19  C   UNL     1      -0.013   1.544   0.007  0.00  0.00    +0.101 C 
ATOM     20  C   UNL     1       1.425   2.067   0.002  0.00  0.00    +0.032 C 
ENDBRANCH  13  19
ENDBRANCH  11  15
ENDBRANCH   1  12
BRANCH   5  21
ATOM     21  S   UNL     1      -4.680   5.380  10.767  0.00  0.00    -0.084 S 
BRANCH  21  22
ATOM     22  C   UNL     1      -6.441   5.759  10.555  0.00  0.00    +0.086 C 
BRANCH  22  23
ATOM     23  C   UNL     1      -7.024   6.235  11.887  0.00  0.00    +0.107 C 
BRANCH  23  24
ATOM     24  C   UNL     1      -8.487   6.550  11.711  0.00  0.00    +0.218 C 
ATOM     25  O   UNL     1      -9.012   6.407  10.627  0.00  0.00    -0.275 OA
ATOM     26  N   UNL     1      -9.213   6.990  12.758  0.00  0.00    -0.285 N 
ATOM     27  H   UNL     1      -8.757   7.047  13.758  0.00  0.00    +0.155 HD
BRANCH  26  28
ATOM     28  C   UNL     1     -10.546   7.374  12.574  0.00  0.00    +0.033 A 
ATOM     29  C   UNL     1     -11.076   8.423  13.313  0.00  0.00    +0.024 A 
ATOM     30  C   UNL     1     -12.390   8.803  13.126  0.00  0.00    +0.017 A 
ATOM     31  C   UNL     1     -13.182   8.133  12.210  0.00  0.00    +0.018 A 
ATOM     32  C   UNL     1     -12.658   7.084  11.476  0.00  0.00    +0.017 A 
ATOM     33  C   UNL     1     -11.343   6.703  11.656  0.00  0.00    +0.024 A 
ATOM     34 BR   UNL     1     -14.983   8.652  11.961  0.00  0.00    -0.050 Br
ENDBRANCH  26  28
ENDBRANCH  23  24
ENDBRANCH  22  23
ENDBRANCH  21  22
ENDBRANCH   5  21
TORSDOF 9
