REMARK  Name = ZINC20290873
REMARK  6 active torsions:
REMARK  status: ('A' for Active; 'I' for Inactive)
REMARK    1  A    between atoms: C_6  and  C_7
REMARK    2  A    between atoms: C_7  and  N_8
REMARK    3  A    between atoms: N_8  and  C_9
REMARK    4  A    between atoms: N_15  and  C_18
REMARK    5  A    between atoms: C_18  and  C_19
REMARK    6  A    between atoms: C_19  and  C_20
REMARK                            x       y       z     vdW  Elec       q    Type
REMARK                         _______ _______ _______ _____ _____    ______ ____
ROOT
ATOM      1  C   UNL     1      -2.869  -1.691  -1.607  0.00  0.00    +0.086 C 
ATOM      2  C   UNL     1      -3.331  -1.830  -2.902  0.00  0.00    +0.113 C 
ATOM      3  C   UNL     1      -4.632  -2.461  -3.191  0.00  0.00    +0.256 C 
ATOM      4  O   UNL     1      -5.337  -2.879  -2.292  0.00  0.00    -0.270 OA
ATOM      5  N   UNL     1      -5.019  -2.562  -4.479  0.00  0.00    -0.263 N 
ATOM      6  C   UNL     1      -4.252  -2.107  -5.480  0.00  0.00    +0.146 C 
ATOM      7  N   UNL     1      -3.060  -1.523  -5.291  0.00  0.00    -0.249 N 
ATOM      8  C   UNL     1      -2.548  -1.349  -4.055  0.00  0.00    +0.258 C 
ATOM      9  O   UNL     1      -1.468  -0.813  -3.896  0.00  0.00    -0.269 OA
ATOM     10  S   UNL     1      -4.825  -2.279  -7.084  0.00  0.00    -0.018 S 
ATOM     11  H   UNL     1      -5.872  -2.975  -4.687  0.00  0.00    +0.157 HD
ENDROOT
BRANCH   1  12
ATOM     12  N   UNL     1      -1.761  -0.963  -1.362  0.00  0.00    -0.345 N 
ATOM     13  H   UNL     1      -1.335  -0.471  -2.081  0.00  0.00    +0.146 HD
BRANCH  12  14
ATOM     14  C   UNL     1      -1.201  -0.915  -0.009  0.00  0.00    +0.136 C 
BRANCH  14  20
ATOM     15  C   UNL     1      -0.095   1.315   0.247  0.00  0.00    +0.009 A 
ATOM     16  C   UNL     1       1.027   2.123   0.253  0.00  0.00    +0.050 A 
ATOM     17  C   UNL     1       2.276   1.576   0.007  0.00  0.00    +0.166 A 
ATOM     18  C   UNL     1       2.397   0.211  -0.245  0.00  0.00    +0.167 A 
ATOM     19  C   UNL     1       1.269  -0.592  -0.249  0.00  0.00    +0.054 A 
ATOM     20  C   UNL     1       0.025  -0.039  -0.003  0.00  0.00    -0.027 A 
ATOM     21  O   UNL     1       3.715  -0.078  -0.454  0.00  0.00    -0.453 OA
ATOM     22  C   UNL     1       4.346   1.186  -0.732  0.00  0.00    +0.466 C 
ATOM     23  O   UNL     1       3.517   2.141  -0.044  0.00  0.00    -0.453 OA
ENDBRANCH  14  20
ENDBRANCH  12  14
ENDBRANCH   1  12
BRANCH   7  24
ATOM     24  C   UNL     1      -2.298  -1.059  -6.453  0.00  0.00    +0.120 C 
BRANCH  24  25
ATOM     25  C   UNL     1      -2.677   0.390  -6.766  0.00  0.00    +0.050 C 
BRANCH  25  26
ATOM     26  C   UNL     1      -1.893   0.867  -7.961  0.00  0.00    -0.072 C 
ATOM     27  C   UNL     1      -2.453   0.787  -9.126  0.00  0.00    -0.028 C 
ATOM     28  C   UNL     1      -1.795   1.211 -10.406  0.00  0.00    +0.027 C 
ATOM     29  C   UNL     1      -0.598   2.116 -10.108  0.00  0.00    +0.004 C 
ATOM     30  C   UNL     1       0.271   1.436  -9.042  0.00  0.00    +0.005 C 
ATOM     31  C   UNL     1      -0.514   1.411  -7.727  0.00  0.00    +0.030 C 
ENDBRANCH  25  26
ENDBRANCH  24  25
ENDBRANCH   7  24
TORSDOF 6
