REMARK  Name = ZINC02114345
REMARK  8 active torsions:
REMARK  status: ('A' for Active; 'I' for Inactive)
REMARK    1  A    between atoms: C_1  and  C_2
REMARK    2  A    between atoms: C_6  and  C_24
REMARK    3  A    between atoms: C_7  and  C_11
REMARK    4  A    between atoms: C_11  and  C_12
REMARK    5  A    between atoms: N_14  and  C_15
REMARK    6  A    between atoms: C_15  and  C_16
REMARK    7  A    between atoms: C_19  and  C_22
REMARK    8  A    between atoms: C_27  and  C_30
REMARK                            x       y       z     vdW  Elec       q    Type
REMARK                         _______ _______ _______ _____ _____    ______ ____
ROOT
ATOM      1  C   UNL     1       2.210  17.396  -3.740  0.00  0.00    +0.044 C 
ATOM      2  C   UNL     1       2.191  15.896  -3.884  0.00  0.00    -0.036 A 
ATOM      3  C   UNL     1       1.105  15.188  -3.455  0.00  0.00    +0.051 A 
ATOM      4  C   UNL     1       1.071  13.802  -3.581  0.00  0.00    +0.143 A 
ATOM      5  C   UNL     1       2.159  13.123  -4.153  0.00  0.00    +0.064 A 
ATOM      6  C   UNL     1       2.105  11.666  -4.276  0.00  0.00    -0.026 A 
ATOM      7  C   UNL     1       0.994  11.024  -3.828  0.00  0.00    +0.049 A 
ATOM      8  C   UNL     1      -0.065  11.768  -3.269  0.00  0.00    +0.341 A 
ATOM      9  O   UNL     1      -1.059  11.183  -2.876  0.00  0.00    -0.245 OA
ATOM     10  O   UNL     1      -0.005  13.103  -3.155  0.00  0.00    -0.422 OA
ATOM     11  C   UNL     1       3.251  10.898  -4.883  0.00  0.00    +0.045 C 
ATOM     12  C   UNL     1       3.280  13.846  -4.596  0.00  0.00    +0.146 A 
ATOM     13  C   UNL     1       3.284  15.240  -4.456  0.00  0.00    +0.027 A 
ATOM     14  C   UNL     1       4.572  15.684  -5.005  0.00  0.00    -0.005 A 
ATOM     15  C   UNL     1       5.206  14.576  -5.411  0.00  0.00    +0.199 A 
ATOM     16  O   UNL     1       4.445  13.495  -5.170  0.00  0.00    -0.462 OA
ATOM     17  C   UNL     1       5.078  17.101  -5.094  0.00  0.00    +0.047 C 
ENDROOT
BRANCH   7  18
ATOM     18  C   UNL     1       0.892   9.524  -3.933  0.00  0.00    +0.138 C 
BRANCH  18  19
ATOM     19  C   UNL     1       1.452   8.894  -2.684  0.00  0.00    +0.218 C 
ATOM     20  O   UNL     1       1.890   9.593  -1.796  0.00  0.00    -0.275 OA
ATOM     21  N   UNL     1       1.465   7.552  -2.554  0.00  0.00    -0.315 N 
ATOM     22  H   UNL     1       1.115   6.993  -3.265  0.00  0.00    +0.149 HD
BRANCH  21  23
ATOM     23  C   UNL     1       2.009   6.939  -1.340  0.00  0.00    +0.107 C 
BRANCH  23  24
ATOM     24  C   UNL     1       1.905   5.417  -1.447  0.00  0.00    +0.006 C 
ATOM     25  C   UNL     1       2.585   4.773  -0.237  0.00  0.00    +0.006 C 
ATOM     26  C   UNL     1       2.482   3.250  -0.344  0.00  0.00    +0.015 C 
ATOM     27  C   UNL     1       1.008   2.840  -0.379  0.00  0.00    +0.102 C 
ATOM     28  C   UNL     1       0.329   3.484  -1.589  0.00  0.00    +0.015 C 
ATOM     29  C   UNL     1       0.432   5.007  -1.482  0.00  0.00    +0.006 C 
BRANCH  27  30
ATOM     30  C   UNL     1       0.906   1.340  -0.484  0.00  0.00    +0.359 C 
ATOM     31  O   UNL     1       1.909   0.668  -0.527  0.00  0.00    -0.246 OA
ATOM     32  O   UNL     1      -0.299   0.751  -0.531  0.00  0.00    -0.246 OA
ENDBRANCH  27  30
ENDBRANCH  23  24
ENDBRANCH  21  23
ENDBRANCH  18  19
ENDBRANCH   7  18
TORSDOF 5
