REMARK  Name = ZINC04701900
REMARK  7 active torsions:
REMARK  status: ('A' for Active; 'I' for Inactive)
REMARK    1  A    between atoms: C_1  and  O_2
REMARK    2  A    between atoms: O_2  and  C_3
REMARK    3  A    between atoms: C_8  and  C_9
REMARK    4  A    between atoms: N_11  and  C_12
REMARK    5  A    between atoms: C_12  and  N_14
REMARK    6  A    between atoms: N_14  and  C_15
REMARK    7  A    between atoms: C_18  and  N_22
REMARK                            x       y       z     vdW  Elec       q    Type
REMARK                         _______ _______ _______ _____ _____    ______ ____
ROOT
ATOM      1  C   UNL     1       3.508   6.017   0.248  0.00  0.00    +0.141 C 
ATOM      2  S   UNL     1       4.978   5.198   0.564  0.00  0.00    -0.018 S 
ENDROOT
BRANCH   1   5
ATOM      3  C   UNL     1       2.340   4.009   0.480  0.00  0.00    +0.253 C 
ATOM      4  O   UNL     1       3.384   3.428   0.704  0.00  0.00    -0.270 OA
ATOM      5  N   UNL     1       2.345   5.335   0.239  0.00  0.00    -0.263 N 
ATOM      6  H   UNL     1       1.512   5.798   0.060  0.00  0.00    +0.157 HD
BRANCH   3  12
ATOM      7  C   UNL     1       1.058   1.883   0.720  0.00  0.00    +0.132 A 
ATOM      8  C   UNL     1      -0.143   1.191   0.708  0.00  0.00    +0.048 A 
ATOM      9  C   UNL     1      -1.324   1.857   0.446  0.00  0.00    +0.023 A 
ATOM     10  C   UNL     1      -1.320   3.223   0.204  0.00  0.00    +0.042 A 
ATOM     11  C   UNL     1      -0.134   3.926   0.212  0.00  0.00    +0.036 A 
ATOM     12  C   UNL     1       1.068   3.263   0.470  0.00  0.00    +0.080 A 
ATOM     13 CL   UNL     1      -2.812   4.048  -0.118  0.00  0.00    -0.084 Cl
BRANCH   7  15
ATOM     14  C   UNL     1       2.131  -0.177   1.216  0.00  0.00    +0.277 C 
ATOM     15  O   UNL     1       2.219   1.228   0.972  0.00  0.00    -0.494 OA
ENDBRANCH   7  15
ENDBRANCH   3  12
ENDBRANCH   1   5
BRANCH   1  16
ATOM     16  N   UNL     1       3.513   7.343   0.007  0.00  0.00    -0.295 N 
ATOM     17  H   UNL     1       2.689   7.795  -0.234  0.00  0.00    +0.154 HD
BRANCH  16  18
ATOM     18  C   UNL     1       4.706   8.067   0.105  0.00  0.00    +0.051 A 
ATOM     19  C   UNL     1       5.862   7.590  -0.501  0.00  0.00    +0.027 A 
ATOM     20  C   UNL     1       7.038   8.307  -0.402  0.00  0.00    +0.034 A 
ATOM     21  C   UNL     1       7.067   9.499   0.298  0.00  0.00    +0.128 A 
ATOM     22  C   UNL     1       5.919   9.978   0.902  0.00  0.00    +0.054 A 
ATOM     23  C   UNL     1       4.737   9.268   0.803  0.00  0.00    +0.064 A 
ATOM     24 CL   UNL     1       3.294   9.873   1.555  0.00  0.00    -0.082 Cl
BRANCH  21  25
ATOM     25  N   UNL     1       8.330  10.265   0.400  0.00  0.00    +0.056 N 
ATOM     26  O   UNL     1       9.341   9.844  -0.132  0.00  0.00    -0.126 OA
ATOM     27  O   UNL     1       8.357  11.315   1.017  0.00  0.00    -0.126 OA
ENDBRANCH  21  25
ENDBRANCH  16  18
ENDBRANCH   1  16
TORSDOF 6
