REMARK  Name = ZINC35891026
REMARK  13 active torsions:
REMARK  status: ('A' for Active; 'I' for Inactive)
REMARK    1  A    between atoms: C_1  and  C_2
REMARK    2  A    between atoms: C_6  and  C_8
REMARK    3  A    between atoms: C_8  and  N_9
REMARK    4  A    between atoms: N_9  and  C_10
REMARK    5  A    between atoms: N_9  and  C_17
REMARK    6  A    between atoms: C_10  and  C_11
REMARK    7  A    between atoms: C_17  and  C_18
REMARK    8  A    between atoms: C_18  and  C_20
REMARK    9  A    between atoms: C_18  and  O_31
REMARK   10  A    between atoms: N_22  and  C_23
REMARK   11  A    between atoms: C_26  and  C_30
REMARK   12  A    between atoms: C_27  and  C_29
REMARK   13  A    between atoms: O_31  and  C_32
REMARK                            x       y       z     vdW  Elec       q    Type
REMARK                         _______ _______ _______ _____ _____    ______ ____
ROOT
ATOM      1  C   UNL     1       2.563  -3.844   4.285  0.00  0.00    +0.243 C 
ENDROOT
BRANCH   1   2
ATOM      2  C   UNL     1       2.541  -4.787   5.461  0.00  0.00    +0.256 C 
ATOM      3  O   UNL     1       2.879  -5.943   5.317  0.00  0.00    -0.271 OA
ATOM      4  N   UNL     1       2.146  -4.345   6.671  0.00  0.00    -0.283 N 
ATOM      5  H   UNL     1       1.808  -3.441   6.771  0.00  0.00    +0.155 HD
BRANCH   4   6
ATOM      6  C   UNL     1       2.223  -5.190   7.784  0.00  0.00    +0.034 A 
ATOM      7  C   UNL     1       1.264  -5.112   8.785  0.00  0.00    +0.023 A 
ATOM      8  C   UNL     1       1.343  -5.947   9.882  0.00  0.00    +0.005 A 
ATOM      9  C   UNL     1       2.376  -6.861   9.984  0.00  0.00    -0.047 A 
ATOM     10  C   UNL     1       3.332  -6.942   8.989  0.00  0.00    -0.046 A 
ATOM     11  C   UNL     1       3.255  -6.113   7.886  0.00  0.00    +0.027 A 
ATOM     12  C   UNL     1       4.456  -7.939   9.104  0.00  0.00    +0.044 C 
ATOM     13  C   UNL     1       2.459  -7.771  11.182  0.00  0.00    +0.044 C 
ENDBRANCH   4   6
ENDBRANCH   1   2
BRANCH   1  14
ATOM     14  C   UNL     1       1.135  -3.399   3.961  0.00  0.00    -0.023 C 
BRANCH  14  15
ATOM     15  N   UNL     1       1.172  -2.328   2.957  0.00  0.00    +0.387 N 
ATOM     16  H   UNL     1       1.801  -1.601   3.264  0.00  0.00    -0.081 HD
BRANCH  15  17
ATOM     17  C   UNL     1      -0.176  -1.770   2.787  0.00  0.00    -0.043 C 
BRANCH  17  23
ATOM     18  C   UNL     1      -2.628  -1.933   7.146  0.00  0.00    +0.044 C 
ATOM     19  C   UNL     1      -1.782  -1.180   6.152  0.00  0.00    -0.050 A 
ATOM     20  C   UNL     1      -1.403   0.123   6.415  0.00  0.00    +0.003 A 
ATOM     21  C   UNL     1      -0.627   0.814   5.503  0.00  0.00    +0.000 A 
ATOM     22  C   UNL     1      -0.230   0.201   4.329  0.00  0.00    +0.002 A 
ATOM     23  C   UNL     1      -0.608  -1.102   4.067  0.00  0.00    -0.064 A 
ATOM     24  C   UNL     1      -1.381  -1.794   4.981  0.00  0.00    +0.005 A 
ENDBRANCH  17  23
ENDBRANCH  15  17
BRANCH  15  25
ATOM     25  C   UNL     1       1.642  -2.873   1.676  0.00  0.00    -0.046 C 
BRANCH  25  26
ATOM     26  C   UNL     1       1.730  -1.747   0.644  0.00  0.00    +0.102 C 
ATOM     27  C   UNL     1       2.172  -2.319  -0.720  0.00  0.00    +0.032 C 
ATOM     28  C   UNL     1       3.134  -1.218  -1.243  0.00  0.00    +0.030 C 
ATOM     29  C   UNL     1       3.772  -0.731   0.082  0.00  0.00    +0.160 C 
ATOM     30  O   UNL     1       2.713  -0.789   1.053  0.00  0.00    -0.378 OA
ENDBRANCH  25  26
ENDBRANCH  15  25
ENDBRANCH  14  15
ENDBRANCH   1  14
BRANCH   1  31
ATOM     31  O   UNL     1       3.124  -4.509   3.152  0.00  0.00    -0.481 OA
BRANCH  31  32
ATOM     32  C   UNL     1       4.479  -4.515   3.048  0.00  0.00    +0.124 A 
ATOM     33  C   UNL     1       5.086  -5.038   1.915  0.00  0.00    +0.048 A 
ATOM     34  C   UNL     1       6.464  -5.044   1.810  0.00  0.00    +0.045 A 
ATOM     35  C   UNL     1       7.240  -4.530   2.834  0.00  0.00    +0.159 A 
ATOM     36  C   UNL     1       6.636  -4.007   3.968  0.00  0.00    +0.162 A 
ATOM     37  C   UNL     1       5.256  -3.994   4.072  0.00  0.00    +0.087 A 
ATOM     38  F   UNL     1       7.394  -3.506   4.967  0.00  0.00    -0.202 F 
ATOM     39  F   UNL     1       8.587  -4.537   2.730  0.00  0.00    -0.202 F 
ENDBRANCH  31  32
ENDBRANCH   1  31
TORSDOF 10
