REMARK  Name = ZINC27755473
REMARK  8 active torsions:
REMARK  status: ('A' for Active; 'I' for Inactive)
REMARK    1  A    between atoms: C_1  and  C_2
REMARK    2  A    between atoms: C_2  and  C_4
REMARK    3  A    between atoms: C_7  and  C_10
REMARK    4  A    between atoms: C_13  and  C_15
REMARK    5  A    between atoms: C_17  and  C_29
REMARK    6  A    between atoms: C_19  and  C_24
REMARK    7  A    between atoms: C_19  and  O_28
REMARK    8  A    between atoms: C_29  and  C_31
REMARK                            x       y       z     vdW  Elec       q    Type
REMARK                         _______ _______ _______ _____ _____    ______ ____
ROOT
ATOM      1  C   UNL     1      -1.595   4.403   0.039  0.00  0.00    +0.156 C 
ATOM      2  C   UNL     1      -1.699   4.974  -1.379  0.00  0.00    +0.147 C 
ATOM      3  C   UNL     1      -0.306   5.447  -1.816  0.00  0.00    +0.243 C 
ATOM      4  N   UNL     1       0.208   6.400  -0.832  0.00  0.00    -0.264 N 
ATOM      5  C   UNL     1      -0.155   6.336   0.458  0.00  0.00    +0.302 C 
ATOM      6  O   UNL     1       0.310   7.145   1.237  0.00  0.00    -0.253 OA
ATOM      7  N   UNL     1      -1.010   5.413   0.923  0.00  0.00    -0.289 N 
ATOM      8  H   UNL     1       0.907   7.190  -1.144  0.00  0.00    +0.153 HD
ATOM      9  H   UNL     1      -1.269   5.425   1.992  0.00  0.00    +0.151 HD
ENDROOT
BRANCH   1  13
ATOM     10  C   UNL     1       1.069   1.903   0.002  0.00  0.00    +0.135 A 
ATOM     11  C   UNL     1      -0.013   1.076   0.008  0.00  0.00    +0.050 A 
ATOM     12  C   UNL     1      -1.153   1.900   0.017  0.00  0.00    +0.047 A 
ATOM     13  C   UNL     1      -0.719   3.177   0.025  0.00  0.00    +0.127 A 
ATOM     14  O   UNL     1       0.624   3.175   0.013  0.00  0.00    -0.458 OA
BRANCH  10  18
ATOM     15  C   UNL     1       5.131   0.690  -0.043  0.00  0.00    +0.017 A 
ATOM     16  C   UNL     1       4.806   2.053  -0.033  0.00  0.00    +0.012 A 
ATOM     17  C   UNL     1       3.499   2.442  -0.018  0.00  0.00    +0.012 A 
ATOM     18  C   UNL     1       2.482   1.481  -0.014  0.00  0.00    +0.017 A 
ATOM     19  C   UNL     1       2.805   0.120  -0.018  0.00  0.00    +0.012 A 
ATOM     20  C   UNL     1       4.112  -0.272  -0.039  0.00  0.00    +0.012 A 
BRANCH  15  22
ATOM     21  C   UNL     1       6.886  -1.197  -0.070  0.00  0.00    +0.091 C 
ATOM     22  C   UNL     1       6.537   0.270  -0.059  0.00  0.00    +0.160 C 
ATOM     23  O   UNL     1       7.419   1.103  -0.064  0.00  0.00    -0.292 OA
ENDBRANCH  15  22
ENDBRANCH  10  18
ENDBRANCH   1  13
BRANCH   3  24
ATOM     24  C   UNL     1      -0.404   6.127  -3.184  0.00  0.00    +0.436 C 
ATOM     25  F   UNL     1       0.865   6.564  -3.578  0.00  0.00    -0.166 F 
ATOM     26  F   UNL     1      -0.895   5.215  -4.124  0.00  0.00    -0.166 F 
ATOM     27  F   UNL     1      -1.269   7.223  -3.099  0.00  0.00    -0.166 F 
ENDBRANCH   3  24
BRANCH   3  28
ATOM     28  O   UNL     1       0.576   4.326  -1.902  0.00  0.00    -0.364 OA
ATOM     29  H   UNL     1       1.623   4.472  -2.202  0.00  0.00    +0.212 HD
ENDBRANCH   3  28
BRANCH   2  30
ATOM     30  C   UNL     1      -2.655   6.139  -1.387  0.00  0.00    +0.173 C 
ATOM     31  O   UNL     1      -2.233   7.270  -1.276  0.00  0.00    -0.292 OA
BRANCH  30  32
ATOM     32  C   UNL     1      -4.099   5.904  -1.530  0.00  0.00    +0.018 A 
ATOM     33  C   UNL     1      -4.588   4.600  -1.665  0.00  0.00    +0.014 A 
ATOM     34  C   UNL     1      -5.943   4.386  -1.792  0.00  0.00    +0.039 A 
ATOM     35  C   UNL     1      -6.821   5.460  -1.798  0.00  0.00    +0.123 A 
ATOM     36  C   UNL     1      -6.341   6.756  -1.671  0.00  0.00    +0.039 A 
ATOM     37  C   UNL     1      -4.989   6.983  -1.538  0.00  0.00    +0.014 A 
ATOM     38  F   UNL     1      -8.148   5.244  -1.929  0.00  0.00    -0.205 F 
ENDBRANCH  30  32
ENDBRANCH   2  30
TORSDOF 7
