REMARK  Name = ZINC65225901
REMARK  6 active torsions:
REMARK  status: ('A' for Active; 'I' for Inactive)
REMARK    1  A    between atoms: C_1  and  N_2
REMARK    2  A    between atoms: C_9  and  C_11
REMARK    3  A    between atoms: N_14  and  S_17
REMARK    4  A    between atoms: S_17  and  C_20
REMARK    5  A    between atoms: C_23  and  O_26
REMARK    6  A    between atoms: O_26  and  C_27
REMARK                            x       y       z     vdW  Elec       q    Type
REMARK                         _______ _______ _______ _____ _____    ______ ____
ROOT
ATOM      1  C   UNL     1       1.624  -5.736  -0.251  0.00  0.00    +0.042 C 
ATOM      2  C   UNL     1       1.811  -5.974   1.249  0.00  0.00    +0.027 C 
ATOM      3  C   UNL     1       2.164  -7.446   1.488  0.00  0.00    +0.110 C 
ATOM      4  N   UNL     1       3.337  -7.789   0.671  0.00  0.00    -0.177 NA
ATOM      5  C   UNL     1       3.297  -7.516  -0.772  0.00  0.00    +0.110 C 
ATOM      6  C   UNL     1       2.931  -6.044  -0.985  0.00  0.00    +0.027 C 
ENDROOT
BRANCH   1  15
ATOM      7  C   UNL     1      -0.018   1.461   0.010  0.00  0.00    +0.132 C 
ATOM      8  N   UNL     1       0.002  -0.004   0.002  0.00  0.00    -0.299 N 
ATOM      9  C   UNL     1      -1.242  -0.758   0.004  0.00  0.00    +0.109 C 
ATOM     10  C   UNL     1      -1.707  -1.172  -1.391  0.00  0.00    +0.042 C 
ATOM     11  C   UNL     1      -0.519  -1.713  -2.196  0.00  0.00    +0.146 C 
ATOM     12  N   UNL     1       0.304  -2.582  -1.351  0.00  0.00    -0.259 N 
ATOM     13  C   UNL     1       1.088  -2.114  -0.332  0.00  0.00    +0.124 A 
ATOM     14  C   UNL     1       1.701  -3.192   0.244  0.00  0.00    +0.058 A 
ATOM     15  C   UNL     1       1.243  -4.297  -0.486  0.00  0.00    +0.067 A 
ATOM     16  N   UNL     1       0.424  -3.857  -1.412  0.00  0.00    -0.175 NA
ATOM     17  C   UNL     1       1.180  -0.675  -0.013  0.00  0.00    +0.264 C 
ATOM     18  O   UNL     1       2.242  -0.130   0.224  0.00  0.00    -0.268 OA
ENDBRANCH   1  15
BRANCH   4  19
ATOM     19  S   UNL     1       4.677  -8.470   1.365  0.00  0.00    +0.061 S 
ATOM     20  O   UNL     1       5.773  -8.170   0.511  0.00  0.00    -0.153 OA
ATOM     21  O   UNL     1       4.657  -8.101   2.736  0.00  0.00    -0.153 OA
BRANCH  19  22
ATOM     22  C   UNL     1       4.461 -10.218   1.310  0.00  0.00    +0.106 A 
ATOM     23  C   UNL     1       3.834 -10.869   2.357  0.00  0.00    +0.032 A 
ATOM     24  C   UNL     1       3.664 -12.239   2.317  0.00  0.00    +0.047 A 
ATOM     25  C   UNL     1       4.121 -12.962   1.226  0.00  0.00    +0.120 A 
ATOM     26  C   UNL     1       4.749 -12.307   0.176  0.00  0.00    +0.047 A 
ATOM     27  C   UNL     1       4.912 -10.936   0.218  0.00  0.00    +0.032 A 
BRANCH  25  28
ATOM     28  O   UNL     1       3.955 -14.310   1.184  0.00  0.00    -0.495 OA
ATOM     29  C   UNL     1       4.451 -14.990   0.029  0.00  0.00    +0.277 C 
ENDBRANCH  25  28
ENDBRANCH  19  22
ENDBRANCH   4  19
TORSDOF 4
