REMARK  Name = ZINC12643378
REMARK  7 active torsions:
REMARK  status: ('A' for Active; 'I' for Inactive)
REMARK    1  A    between atoms: C_4  and  C_7
REMARK    2  A    between atoms: N_9  and  N_27
REMARK    3  A    between atoms: C_10  and  S_12
REMARK    4  A    between atoms: S_12  and  C_13
REMARK    5  A    between atoms: C_13  and  C_14
REMARK    6  A    between atoms: N_16  and  C_17
REMARK    7  A    between atoms: C_21  and  N_23
REMARK                            x       y       z     vdW  Elec       q    Type
REMARK                         _______ _______ _______ _____ _____    ______ ____
ROOT
ATOM      1  S   UNL     1      -6.283   2.695  -0.256  0.00  0.00    -0.077 S 
ENDROOT
BRANCH   1   5
ATOM      2  C   UNL     1      -8.823   5.631  -0.436  0.00  0.00    +0.092 A 
ATOM      3  C   UNL     1      -9.699   4.598  -0.510  0.00  0.00    +0.138 A 
ATOM      4  N   UNL     1      -8.958   3.442  -0.464  0.00  0.00    -0.251 N 
ATOM      5  C   UNL     1      -7.649   3.803  -0.355  0.00  0.00    +0.187 A 
ATOM      6  N   UNL     1      -7.573   5.112  -0.341  0.00  0.00    -0.221 NA
BRANCH   2  10
ATOM      7  C   UNL     1      -9.819   9.764  -0.488  0.00  0.00    +0.000 A 
ATOM      8  C   UNL     1      -8.495   9.376  -0.388  0.00  0.00    +0.001 A 
ATOM      9  C   UNL     1      -8.166   8.036  -0.370  0.00  0.00    +0.010 A 
ATOM     10  C   UNL     1      -9.171   7.073  -0.454  0.00  0.00    +0.002 A 
ATOM     11  C   UNL     1     -10.502   7.470  -0.560  0.00  0.00    +0.010 A 
ATOM     12  C   UNL     1     -10.820   8.813  -0.571  0.00  0.00    +0.001 A 
ENDBRANCH   2  10
BRANCH   4  13
ATOM     13  N   UNL     1      -9.444   2.167  -0.516  0.00  0.00    -0.296 N 
ATOM     14  H   UNL     1      -9.648   1.820   0.409  0.00  0.00    +0.163 HD
ATOM     15  H   UNL     1     -10.258   2.114  -1.110  0.00  0.00    +0.163 HD
ENDBRANCH   4  13
ENDBRANCH   1   5
BRANCH   1  16
ATOM     16  C   UNL     1      -4.922   3.882  -0.143  0.00  0.00    +0.173 C 
BRANCH  16  17
ATOM     17  C   UNL     1      -3.614   3.140  -0.047  0.00  0.00    +0.227 C 
ATOM     18  O   UNL     1      -3.604   1.927  -0.054  0.00  0.00    -0.275 OA
ATOM     19  N   UNL     1      -2.457   3.823   0.047  0.00  0.00    -0.285 N 
ATOM     20  H   UNL     1      -2.469   4.790   0.130  0.00  0.00    +0.155 HD
BRANCH  19  21
ATOM     21  C   UNL     1      -1.236   3.139   0.025  0.00  0.00    +0.036 A 
ATOM     22  C   UNL     1      -1.099   1.984  -0.735  0.00  0.00    +0.025 A 
ATOM     23  C   UNL     1       0.104   1.307  -0.750  0.00  0.00    +0.024 A 
ATOM     24  C   UNL     1       1.177   1.785  -0.017  0.00  0.00    +0.071 A 
ATOM     25  C   UNL     1       1.045   2.938   0.736  0.00  0.00    +0.146 A 
ATOM     26  C   UNL     1      -0.158   3.615   0.759  0.00  0.00    +0.057 A 
ATOM     27 CL   UNL     1       2.691   0.935  -0.043  0.00  0.00    -0.081 Cl
BRANCH  25  28
ATOM     28  N   UNL     1       2.195   3.446   1.518  0.00  0.00    +0.058 N 
ATOM     29  O   UNL     1       2.079   4.461   2.182  0.00  0.00    -0.126 OA
ATOM     30  O   UNL     1       3.256   2.849   1.499  0.00  0.00    -0.126 OA
ENDBRANCH  25  28
ENDBRANCH  19  21
ENDBRANCH  16  17
ENDBRANCH   1  16
TORSDOF 7
