REMARK  Name = ZINC61721514
REMARK  6 active torsions:
REMARK  status: ('A' for Active; 'I' for Inactive)
REMARK    1  A    between atoms: C_1  and  C_2
REMARK    2  A    between atoms: C_2  and  C_3
REMARK    3  A    between atoms: C_3  and  C_4
REMARK    4  A    between atoms: C_6  and  C_10
REMARK    5  A    between atoms: C_12  and  C_23
REMARK    6  A    between atoms: C_13  and  C_15
REMARK                            x       y       z     vdW  Elec       q    Type
REMARK                         _______ _______ _______ _____ _____    ______ ____
ROOT
ATOM      1  C   UNL     1      -2.769  -4.922   2.001  0.00  0.00    +0.109 A 
ATOM      2  N   UNL     1      -2.835  -6.237   2.124  0.00  0.00    -0.243 NA
ATOM      3  C   UNL     1      -3.503  -6.800   3.095  0.00  0.00    +0.058 A 
ATOM      4  C   UNL     1      -4.137  -5.941   3.987  0.00  0.00    +0.097 A 
ATOM      5  S   UNL     1      -3.674  -4.358   3.302  0.00  0.00    -0.062 S 
ATOM      6  C   UNL     1      -3.584  -8.297   3.241  0.00  0.00    +0.067 C 
ENDROOT
BRANCH   4   7
ATOM      7  C   UNL     1      -4.954  -6.250   5.165  0.00  0.00    +0.258 C 
ATOM      8  O   UNL     1      -5.156  -7.409   5.478  0.00  0.00    -0.269 OA
ATOM      9  N   UNL     1      -5.480  -5.251   5.900  0.00  0.00    -0.259 N 
ATOM     10  C   UNL     1      -6.254  -5.544   7.016  0.00  0.00    +0.188 A 
ATOM     11  N   UNL     1      -6.593  -6.715   7.536  0.00  0.00    -0.126 NA
ATOM     12  N   UNL     1      -7.312  -6.802   8.569  0.00  0.00    -0.148 NA
ATOM     13  C   UNL     1      -7.772  -5.737   9.196  0.00  0.00    +0.183 A 
ATOM     14  S   UNL     1      -7.074  -4.446   8.170  0.00  0.00    -0.039 S 
ATOM     15  H   UNL     1      -5.319  -4.328   5.650  0.00  0.00    +0.157 HD
ENDBRANCH   4   7
BRANCH   1  18
ATOM     16  C   UNL     1      -1.413  -2.041   0.005  0.00  0.00    +0.042 A 
ATOM     17  C   UNL     1      -2.087  -2.736   0.988  0.00  0.00    +0.034 A 
ATOM     18  C   UNL     1      -2.061  -4.135   0.968  0.00  0.00    +0.010 A 
ATOM     19  C   UNL     1      -1.346  -4.768  -0.055  0.00  0.00    +0.030 A 
ATOM     20  C   UNL     1      -0.700  -3.994  -0.997  0.00  0.00    +0.111 A 
ATOM     21  N   UNL     1      -0.755  -2.677  -0.945  0.00  0.00    -0.260 NA
BRANCH  16  22
ATOM     22  C   UNL     1      -1.433  -0.534   0.013  0.00  0.00    +0.055 C 
BRANCH  22  24
ATOM     23  C   UNL     1      -0.019   1.526   0.010  0.00  0.00    +0.004 C 
ATOM     24  C   UNL     1       0.002  -0.004   0.002  0.00  0.00    +0.003 C 
ENDBRANCH  22  24
ENDBRANCH  16  22
ENDBRANCH   1  18
TORSDOF 4
