REMARK  Name = ZINC07264498
REMARK  9 active torsions:
REMARK  status: ('A' for Active; 'I' for Inactive)
REMARK    1  A    between atoms: C_1  and  C_2
REMARK    2  A    between atoms: C_2  and  C_3
REMARK    3  A    between atoms: C_3  and  C_4
REMARK    4  A    between atoms: C_4  and  C_22
REMARK    5  A    between atoms: N_7  and  C_11
REMARK    6  A    between atoms: C_11  and  C_12
REMARK    7  A    between atoms: N_14  and  C_15
REMARK    8  A    between atoms: C_22  and  C_23
REMARK    9  A    between atoms: C_23  and  C_24
REMARK                            x       y       z     vdW  Elec       q    Type
REMARK                         _______ _______ _______ _____ _____    ______ ____
ROOT
ATOM      1  C   UNL     1      -0.018   1.512   0.010  0.00  0.00    +0.113 C 
ATOM      2  C   UNL     1       0.002  -0.004   0.002  0.00  0.00    +0.247 C 
ATOM      3  O   UNL     1      -0.954  -0.749   0.008  0.00  0.00    -0.273 OA
ATOM      4  N   UNL     1       1.304  -0.351  -0.012  0.00  0.00    -0.215 N 
ATOM      5  C   UNL     1       2.101   0.724  -0.014  0.00  0.00    +0.310 C 
ATOM      6  O   UNL     1       3.315   0.665  -0.026  0.00  0.00    -0.252 OA
ATOM      7  N   UNL     1       1.409   1.877  -0.001  0.00  0.00    -0.285 N 
ATOM      8  H   UNL     1       1.777   2.775  -0.000  0.00  0.00    +0.151 HD
ENDROOT
BRANCH   1   9
ATOM      9  C   UNL     1      -0.722   2.047  -1.238  0.00  0.00    +0.035 C 
BRANCH   9  11
ATOM     10  C   UNL     1      -0.692   2.090  -3.736  0.00  0.00    +0.004 C 
ATOM     11  C   UNL     1       0.011   1.554  -2.488  0.00  0.00    -0.001 C 
ENDBRANCH   9  11
ENDBRANCH   1   9
BRANCH   4  12
ATOM     12  C   UNL     1       1.788  -1.734  -0.024  0.00  0.00    +0.213 C 
BRANCH  12  13
ATOM     13  C   UNL     1       1.940  -2.201  -1.448  0.00  0.00    +0.231 C 
ATOM     14  O   UNL     1       1.671  -1.453  -2.364  0.00  0.00    -0.274 OA
ATOM     15  N   UNL     1       2.375  -3.451  -1.705  0.00  0.00    -0.311 N 
ATOM     16  H   UNL     1       2.590  -4.049  -0.972  0.00  0.00    +0.149 HD
BRANCH  15  17
ATOM     17  C   UNL     1       2.522  -3.905  -3.090  0.00  0.00    +0.073 C 
ATOM     18  C   UNL     1       1.145  -4.359  -3.616  0.00  0.00    +0.022 C 
ATOM     19  C   UNL     1       1.177  -4.333  -5.120  0.00  0.00    +0.002 C 
ATOM     20  C   UNL     1       1.540  -5.703  -5.726  0.00  0.00    +0.000 C 
ATOM     21  C   UNL     1       2.676  -6.411  -4.963  0.00  0.00    +0.000 C 
ATOM     22  C   UNL     1       3.780  -5.467  -4.568  0.00  0.00    +0.002 C 
ATOM     23  C   UNL     1       3.512  -4.972  -3.133  0.00  0.00    +0.022 C 
ENDBRANCH  15  17
ENDBRANCH  12  13
ENDBRANCH   4  12
BRANCH   1  24
ATOM     24  C   UNL     1      -0.698   2.034   1.278  0.00  0.00    +0.035 C 
BRANCH  24  25
ATOM     25  C   UNL     1       0.128   1.632   2.502  0.00  0.00    -0.001 C 
ATOM     26  C   UNL     1      -0.551   2.154   3.769  0.00  0.00    +0.004 C 
ENDBRANCH  24  25
ENDBRANCH   1  24
TORSDOF 7
