REMARK  Name = ZINC15709419
REMARK  8 active torsions:
REMARK  status: ('A' for Active; 'I' for Inactive)
REMARK    1  A    between atoms: C_1  and  C_2
REMARK    2  A    between atoms: C_5  and  O_35
REMARK    3  A    between atoms: C_7  and  C_32
REMARK    4  A    between atoms: C_7  and  C_33
REMARK    5  A    between atoms: C_14  and  C_16
REMARK    6  A    between atoms: C_21  and  C_23
REMARK    7  A    between atoms: C_23  and  C_24
REMARK    8  A    between atoms: C_33  and  O_34
REMARK                            x       y       z     vdW  Elec       q    Type
REMARK                         _______ _______ _______ _____ _____    ______ ____
ROOT
ATOM      1  C   UNL     1       2.020   0.071  -1.249  0.00  0.00    +0.012 C 
ATOM      2  C   UNL     1       0.689  -0.602  -0.910  0.00  0.00    -0.020 C 
ATOM      3  C   UNL     1      -0.398  -0.125  -1.880  0.00  0.00    +0.010 C 
ATOM      4  C   UNL     1      -0.082  -0.542  -3.300  0.00  0.00    +0.032 C 
ATOM      5  C   UNL     1      -0.002  -2.071  -3.364  0.00  0.00    +0.123 C 
ATOM      6  C   UNL     1       1.125  -2.541  -2.447  0.00  0.00    +0.021 C 
ATOM      7  C   UNL     1       0.845  -2.122  -1.000  0.00  0.00    +0.011 C 
ATOM      8  C   UNL     1       2.054  -2.550  -0.145  0.00  0.00    +0.049 C 
ATOM      9  C   UNL     1       1.983  -1.867   1.174  0.00  0.00    +0.014 A 
ATOM     10  C   UNL     1       1.202  -0.810   1.526  0.00  0.00    +0.056 A 
ATOM     11  N   UNL     1       1.313  -0.362   2.772  0.00  0.00    -0.243 NA
ATOM     12  C   UNL     1       2.138  -0.908   3.651  0.00  0.00    +0.109 A 
ATOM     13  S   UNL     1       2.876  -2.209   2.668  0.00  0.00    -0.072 S 
ATOM     14  C   UNL     1       0.254  -0.197   0.504  0.00  0.00    +0.053 C 
ATOM     15  C   UNL     1       1.230  -4.066  -2.521  0.00  0.00    +0.016 C 
ENDROOT
BRANCH  12  16
ATOM     16  C   UNL     1       2.384  -0.542   5.061  0.00  0.00    +0.014 A 
ATOM     17  C   UNL     1       3.306  -1.248   5.831  0.00  0.00    +0.018 A 
ATOM     18  C   UNL     1       3.503  -0.883   7.117  0.00  0.00    +0.046 A 
ATOM     19  S   UNL     1       2.380   0.492   7.298  0.00  0.00    -0.104 S 
ATOM     20  C   UNL     1       1.716   0.503   5.641  0.00  0.00    +0.055 A 
ENDBRANCH  12  16
BRANCH   5  21
ATOM     21  O   UNL     1       0.268  -2.484  -4.705  0.00  0.00    -0.391 OA
ATOM     22  H   UNL     1      -0.409  -2.218  -5.343  0.00  0.00    +0.210 HD
ENDBRANCH   5  21
BRANCH  14  23
ATOM     23  C   UNL     1       0.285   1.327   0.629  0.00  0.00    +0.106 C 
BRANCH  23  24
ATOM     24  C   UNL     1      -0.325   1.736   1.946  0.00  0.00    +0.219 C 
ATOM     25  O   UNL     1      -0.743   0.891   2.708  0.00  0.00    -0.275 OA
ATOM     26  N   UNL     1      -0.405   3.040   2.276  0.00  0.00    -0.265 N 
ATOM     27  C   UNL     1      -0.967   3.417   3.490  0.00  0.00    +0.164 A 
ATOM     28  N   UNL     1      -1.477   2.655   4.438  0.00  0.00    -0.233 NA
ATOM     29  C   UNL     1      -1.971   3.179   5.543  0.00  0.00    +0.120 A 
ATOM     30  C   UNL     1      -1.956   4.528   5.681  0.00  0.00    +0.068 A 
ATOM     31  S   UNL     1      -1.186   5.011   4.143  0.00  0.00    -0.061 S 
ATOM     32  H   UNL     1      -0.070   3.716   1.666  0.00  0.00    +0.157 HD
ENDBRANCH  23  24
ENDBRANCH  14  23
BRANCH   6  33
ATOM     33  C   UNL     1       2.445  -1.920  -2.907  0.00  0.00    +0.165 C 
BRANCH  33  34
ATOM     34  O   UNL     1       2.791  -2.436  -4.194  0.00  0.00    -0.394 OA
ATOM     35  H   UNL     1       3.619  -2.085  -4.549  0.00  0.00    +0.209 HD
ENDBRANCH  33  34
ENDBRANCH   6  33
TORSDOF 6
