REMARK  Name = ZINC15323259
REMARK  11 active torsions:
REMARK  status: ('A' for Active; 'I' for Inactive)
REMARK    1  A    between atoms: C_1  and  C_2
REMARK    2  A    between atoms: C_2  and  O_3
REMARK    3  A    between atoms: O_3  and  C_4
REMARK    4  A    between atoms: C_4  and  C_6
REMARK    5  A    between atoms: C_7  and  C_30
REMARK    6  A    between atoms: C_8  and  C_13
REMARK    7  A    between atoms: C_11  and  C_12
REMARK    8  A    between atoms: C_18  and  C_21
REMARK    9  A    between atoms: C_22  and  C_29
REMARK   10  A    between atoms: C_24  and  C_28
REMARK   11  A    between atoms: C_26  and  C_27
REMARK                            x       y       z     vdW  Elec       q    Type
REMARK                         _______ _______ _______ _____ _____    ______ ____
ROOT
ATOM      1  C   UNL     1       1.847   1.462  -0.777  0.00  0.00    +0.266 C 
ATOM      2  O   UNL     1       2.794   0.734  -1.008  0.00  0.00    -0.268 OA
ATOM      3  N   UNL     1       0.630   0.933  -0.545  0.00  0.00    -0.259 N 
ATOM      4  C   UNL     1       0.456  -0.445  -0.569  0.00  0.00    +0.165 A 
ATOM      5  N   UNL     1      -0.640  -1.152  -0.370  0.00  0.00    -0.225 NA
ATOM      6  C   UNL     1      -0.626  -2.475  -0.431  0.00  0.00    +0.081 A 
ATOM      7  C   UNL     1       0.547  -3.121  -0.706  0.00  0.00    +0.076 A 
ATOM      8  S   UNL     1       1.657  -1.730  -0.885  0.00  0.00    -0.060 S 
ATOM      9  H   UNL     1      -0.126   1.514  -0.365  0.00  0.00    +0.157 HD
ENDROOT
BRANCH   6  10
ATOM     10  C   UNL     1      -1.871  -3.248  -0.203  0.00  0.00    +0.007 A 
ATOM     11  C   UNL     1      -2.287  -4.195  -1.138  0.00  0.00    -0.041 A 
ATOM     12  C   UNL     1      -3.443  -4.916  -0.918  0.00  0.00    +0.007 A 
ATOM     13  C   UNL     1      -4.195  -4.692   0.222  0.00  0.00    -0.050 A 
ATOM     14  C   UNL     1      -3.789  -3.750   1.150  0.00  0.00    +0.007 A 
ATOM     15  C   UNL     1      -2.632  -3.027   0.943  0.00  0.00    -0.041 A 
ATOM     16  C   UNL     1      -2.191  -2.001   1.955  0.00  0.00    +0.044 C 
ATOM     17  C   UNL     1      -5.460  -5.477   0.453  0.00  0.00    +0.044 C 
ATOM     18  C   UNL     1      -1.473  -4.435  -2.383  0.00  0.00    +0.044 C 
ENDBRANCH   6  10
BRANCH   1  21
ATOM     19  C   UNL     1       2.928   4.960  -0.850  0.00  0.00    +0.083 A 
ATOM     20  C   UNL     1       3.205   3.579  -0.964  0.00  0.00    -0.006 A 
ATOM     21  C   UNL     1       2.031   2.918  -0.752  0.00  0.00    +0.106 A 
ATOM     22  N   UNL     1       1.048   3.851  -0.505  0.00  0.00    -0.354 N 
ATOM     23  H   UNL     1       0.117   3.651  -0.318  0.00  0.00    +0.166 HD
ATOM     24  C   UNL     1       1.581   5.082  -0.562  0.00  0.00    +0.028 A 
ATOM     25  C   UNL     1       0.838   6.376  -0.348  0.00  0.00    +0.064 C 
ATOM     26  C   UNL     1       4.543   2.955  -1.266  0.00  0.00    +0.047 C 
BRANCH  19  27
ATOM     27  C   UNL     1       3.893   6.062  -1.003  0.00  0.00    +0.341 C 
ATOM     28  O   UNL     1       4.507   6.471  -0.037  0.00  0.00    -0.245 OA
BRANCH  27  29
ATOM     29  O   UNL     1       4.096   6.617  -2.215  0.00  0.00    -0.461 OA
BRANCH  29  31
ATOM     30  C   UNL     1       5.155   8.197  -3.735  0.00  0.00    +0.048 C 
ATOM     31  C   UNL     1       5.062   7.698  -2.291  0.00  0.00    +0.229 C 
ENDBRANCH  29  31
ENDBRANCH  27  29
ENDBRANCH  19  27
ENDBRANCH   1  21
TORSDOF 5
