REMARK  Name = ZINC14644848
REMARK  11 active torsions:
REMARK  status: ('A' for Active; 'I' for Inactive)
REMARK    1  A    between atoms: C_1  and  C_2
REMARK    2  A    between atoms: C_2  and  C_3
REMARK    3  A    between atoms: C_2  and  C_4
REMARK    4  A    between atoms: C_4  and  C_5
REMARK    5  A    between atoms: C_5  and  O_6
REMARK    6  A    between atoms: O_6  and  C_7
REMARK    7  A    between atoms: C_11  and  C_13
REMARK    8  A    between atoms: N_15  and  C_16
REMARK    9  A    between atoms: C_16  and  N_18
REMARK   10  A    between atoms: N_18  and  N_19
REMARK   11  A    between atoms: C_20  and  C_22
REMARK                            x       y       z     vdW  Elec       q    Type
REMARK                         _______ _______ _______ _____ _____    ______ ____
ROOT
ATOM      1  C   UNL     1      -0.064   5.326   0.032  0.00  0.00    +0.250 C 
ATOM      2  O   UNL     1      -1.123   5.923   0.045  0.00  0.00    -0.270 OA
ATOM      3  N   UNL     1       1.096   6.012   0.025  0.00  0.00    -0.263 N 
ATOM      4  H   UNL     1       1.941   5.536   0.014  0.00  0.00    +0.157 HD
ENDROOT
BRANCH   1   9
ATOM      5  C   UNL     1      -1.226   1.751   0.017  0.00  0.00    +0.121 A 
ATOM      6  C   UNL     1      -0.013   1.076   0.008  0.00  0.00    +0.046 A 
ATOM      7  C   UNL     1       1.177   1.781   0.000  0.00  0.00    +0.004 A 
ATOM      8  C   UNL     1       1.166   3.161   0.008  0.00  0.00    +0.013 A 
ATOM      9  C   UNL     1      -0.049   3.848   0.023  0.00  0.00    +0.041 A 
ATOM     10  C   UNL     1      -1.248   3.135   0.031  0.00  0.00    +0.058 A 
BRANCH   5  11
ATOM     11  O   UNL     1      -2.392   1.053   0.019  0.00  0.00    -0.492 OA
BRANCH  11  12
ATOM     12  C   UNL     1      -2.294  -0.373   0.010  0.00  0.00    +0.229 C 
BRANCH  12  13
ATOM     13  C   UNL     1      -3.699  -0.980   0.013  0.00  0.00    +0.044 C 
BRANCH  13  15
ATOM     14  C   UNL     1      -4.992  -3.114   0.132  0.00  0.00    +0.007 C 
ATOM     15  C   UNL     1      -3.594  -2.507   0.004  0.00  0.00    -0.014 C 
ATOM     16  C   UNL     1      -2.957  -2.966  -1.309  0.00  0.00    +0.007 C 
ENDBRANCH  13  15
ENDBRANCH  12  13
ENDBRANCH  11  12
ENDBRANCH   5  11
ENDBRANCH   1   9
BRANCH   3  17
ATOM     17  C   UNL     1       1.081   7.360   0.033  0.00  0.00    +0.153 C 
ATOM     18  S   UNL     1      -0.410   8.200   0.051  0.00  0.00    -0.017 S 
BRANCH  17  19
ATOM     19  N   UNL     1       2.241   8.046   0.026  0.00  0.00    -0.245 N 
ATOM     20  H   UNL     1       2.231   9.016   0.031  0.00  0.00    +0.172 HD
BRANCH  19  21
ATOM     21  N   UNL     1       3.462   7.359   0.010  0.00  0.00    -0.231 N 
ATOM     22  C   UNL     1       4.622   8.045   0.003  0.00  0.00    +0.261 C 
ATOM     23  O   UNL     1       4.609   9.260   0.011  0.00  0.00    -0.269 OA
ATOM     24  H   UNL     1       3.472   6.389   0.005  0.00  0.00    +0.173 HD
BRANCH  22  25
ATOM     25  C   UNL     1       5.910   7.319  -0.013  0.00  0.00    +0.051 A 
ATOM     26  C   UNL     1       5.928   5.923  -0.015  0.00  0.00    +0.014 A 
ATOM     27  C   UNL     1       7.133   5.253  -0.036  0.00  0.00    +0.001 A 
ATOM     28  C   UNL     1       8.323   5.960  -0.043  0.00  0.00    +0.001 A 
ATOM     29  C   UNL     1       8.312   7.343  -0.035  0.00  0.00    +0.015 A 
ATOM     30  C   UNL     1       7.113   8.027  -0.020  0.00  0.00    +0.026 A 
ATOM     31  I   UNL     1       7.100  10.122  -0.007  0.00  0.00    -0.043 I 
ENDBRANCH  22  25
ENDBRANCH  19  21
ENDBRANCH  17  19
ENDBRANCH   3  17
TORSDOF 9
