REMARK  Name = ZINC16887132
REMARK  6 active torsions:
REMARK  status: ('A' for Active; 'I' for Inactive)
REMARK    1  A    between atoms: C_1  and  C_2
REMARK    2  A    between atoms: C_3  and  C_17
REMARK    3  A    between atoms: N_7  and  S_8
REMARK    4  A    between atoms: S_8  and  C_11
REMARK    5  A    between atoms: N_19  and  N_20
REMARK    6  A    between atoms: C_21  and  C_22
REMARK                            x       y       z     vdW  Elec       q    Type
REMARK                         _______ _______ _______ _____ _____    ______ ____
ROOT
ATOM      1  C   UNL     1      -2.018  -3.105  -0.122  0.00  0.00    +0.067 C 
ATOM      2  C   UNL     1      -0.851  -2.154  -0.194  0.00  0.00    +0.060 A 
ATOM      3  C   UNL     1       0.455  -2.621  -0.191  0.00  0.00    +0.100 A 
ATOM      4  S   UNL     1       1.355  -1.080  -0.290  0.00  0.00    -0.046 S 
ATOM      5  C   UNL     1      -0.017  -0.017  -0.323  0.00  0.00    +0.178 A 
ATOM      6  N   UNL     1      -1.036  -0.861  -0.254  0.00  0.00    -0.228 NA
ATOM      7  N   UNL     1      -0.040   1.359  -0.397  0.00  0.00    -0.194 N 
ATOM      8  H   UNL     1      -0.888   1.830  -0.411  0.00  0.00    +0.176 HD
ENDROOT
BRANCH   3   9
ATOM      9  C   UNL     1       0.957  -3.993  -0.125  0.00  0.00    +0.272 C 
ATOM     10  O   UNL     1       0.175  -4.925  -0.061  0.00  0.00    -0.268 OA
ATOM     11  N   UNL     1       2.284  -4.227  -0.136  0.00  0.00    -0.202 N 
ATOM     12  H   UNL     1       2.907  -3.485  -0.187  0.00  0.00    +0.178 HD
BRANCH  11  13
ATOM     13  N   UNL     1       2.764  -5.541  -0.073  0.00  0.00    -0.184 NA
ATOM     14  C   UNL     1       4.042  -5.772  -0.163  0.00  0.00    +0.176 C 
BRANCH  14  15
ATOM     15  C   UNL     1       4.990  -4.654  -0.167  0.00  0.00    +0.147 A 
ATOM     16  C   UNL     1       6.336  -4.746  -0.371  0.00  0.00    +0.051 A 
ATOM     17  C   UNL     1       6.848  -3.437  -0.289  0.00  0.00    +0.042 A 
ATOM     18  C   UNL     1       5.805  -2.619  -0.041  0.00  0.00    +0.196 A 
ATOM     19  O   UNL     1       4.684  -3.356   0.026  0.00  0.00    -0.462 OA
ENDBRANCH  14  15
ENDBRANCH  11  13
ENDBRANCH   3   9
BRANCH   7  20
ATOM     20  S   UNL     1       1.379   2.208  -0.468  0.00  0.00    +0.074 S 
ATOM     21  O   UNL     1       1.027   3.582  -0.563  0.00  0.00    -0.150 OA
ATOM     22  O   UNL     1       2.207   1.704   0.572  0.00  0.00    -0.150 OA
BRANCH  20  23
ATOM     23  C   UNL     1       2.165   1.784  -1.987  0.00  0.00    +0.109 A 
ATOM     24  C   UNL     1       3.045   0.719  -2.036  0.00  0.00    +0.029 A 
ATOM     25  C   UNL     1       3.657   0.383  -3.229  0.00  0.00    +0.002 A 
ATOM     26  C   UNL     1       3.398   1.119  -4.370  0.00  0.00    +0.000 A 
ATOM     27  C   UNL     1       2.523   2.188  -4.320  0.00  0.00    +0.002 A 
ATOM     28  C   UNL     1       1.906   2.520  -3.128  0.00  0.00    +0.029 A 
ENDBRANCH  20  23
ENDBRANCH   7  20
TORSDOF 5
