REMARK  Name = ZINC65769061
REMARK  3 active torsions:
REMARK  status: ('A' for Active; 'I' for Inactive)
REMARK    1  A    between atoms: C_7  and  C_13
REMARK    2  A    between atoms: N_15  and  N_16
REMARK    3  A    between atoms: C_17  and  C_19
REMARK                            x       y       z     vdW  Elec       q    Type
REMARK                         _______ _______ _______ _____ _____    ______ ____
ROOT
ATOM      1  C   UNL     1       0.146  -2.995   0.166  0.00  0.00    +0.281 C 
ATOM      2  O   UNL     1      -0.906  -2.501   0.522  0.00  0.00    -0.267 OA
ATOM      3  N   UNL     1       0.220  -4.318  -0.081  0.00  0.00    -0.229 N 
ATOM      4  H   UNL     1       1.060  -4.712  -0.365  0.00  0.00    +0.173 HD
ENDROOT
BRANCH   1  11
ATOM      5  C   UNL     1       0.117   1.292   0.914  0.00  0.00    +0.001 A 
ATOM      6  C   UNL     1       1.281   2.031   0.743  0.00  0.00    +0.001 A 
ATOM      7  C   UNL     1       2.449   1.423   0.338  0.00  0.00    +0.014 A 
ATOM      8  C   UNL     1       2.457   0.052   0.099  0.00  0.00    +0.050 A 
ATOM      9  C   UNL     1       1.272  -0.701   0.273  0.00  0.00    +0.020 A 
ATOM     10  C   UNL     1       0.104  -0.067   0.682  0.00  0.00    +0.011 A 
ATOM     11  C   UNL     1       1.343  -2.146   0.005  0.00  0.00    +0.155 A 
ATOM     12  N   UNL     1       2.482  -2.671  -0.377  0.00  0.00    -0.166 NA
ATOM     13  N   UNL     1       3.563  -2.006  -0.540  0.00  0.00    -0.242 N 
ATOM     14  H   UNL     1       4.357  -2.484  -0.826  0.00  0.00    +0.192 HD
ATOM     15  C   UNL     1       3.657  -0.676  -0.335  0.00  0.00    +0.272 A 
ATOM     16  O   UNL     1       4.712  -0.093  -0.505  0.00  0.00    -0.266 OA
ENDBRANCH   1  11
BRANCH   3  17
ATOM     17  N   UNL     1      -0.916  -5.124   0.072  0.00  0.00    -0.231 N 
ATOM     18  C   UNL     1      -0.842  -6.447  -0.175  0.00  0.00    +0.253 C 
ATOM     19  O   UNL     1       0.210  -6.941  -0.531  0.00  0.00    -0.269 OA
ATOM     20  H   UNL     1      -1.756  -4.730   0.356  0.00  0.00    +0.173 HD
BRANCH  18  21
ATOM     21  C   UNL     1      -2.035  -7.293  -0.015  0.00  0.00    +0.068 C 
ATOM     22  C   UNL     1      -1.932  -8.614  -0.123  0.00  0.00    -0.065 C 
ATOM     23  C   UNL     1      -0.578  -9.289  -0.135  0.00  0.00    +0.031 C 
ATOM     24  C   UNL     1      -0.583 -10.409   0.910  0.00  0.00    +0.004 C 
ATOM     25  C   UNL     1      -1.758 -11.350   0.641  0.00  0.00    +0.001 C 
ATOM     26  C   UNL     1      -3.077 -10.595   0.813  0.00  0.00    +0.004 C 
ATOM     27  C   UNL     1      -3.167  -9.482  -0.230  0.00  0.00    +0.031 C 
ENDBRANCH  18  21
ENDBRANCH   3  17
TORSDOF 3
