REMARK  Name = ZINC36537564
REMARK  11 active torsions:
REMARK  status: ('A' for Active; 'I' for Inactive)
REMARK    1  A    between atoms: C_1  and  C_2
REMARK    2  A    between atoms: C_2  and  C_3
REMARK    3  A    between atoms: C_2  and  C_4
REMARK    4  A    between atoms: C_2  and  N_5
REMARK    5  A    between atoms: C_6  and  C_8
REMARK    6  A    between atoms: C_8  and  C_10
REMARK    7  A    between atoms: C_8  and  N_17
REMARK    8  A    between atoms: C_15  and  O_16
REMARK    9  A    between atoms: N_17  and  C_18
REMARK   10  A    between atoms: C_19  and  C_21
REMARK   11  A    between atoms: C_25  and  N_27
REMARK                            x       y       z     vdW  Elec       q    Type
REMARK                         _______ _______ _______ _____ _____    ______ ____
ROOT
ATOM      1  C   UNL     1       2.860  -0.644  -2.561  0.00  0.00    +0.196 C 
ENDROOT
BRANCH   1   2
ATOM      2  C   UNL     1       2.104  -0.027  -3.709  0.00  0.00    +0.023 A 
ATOM      3  C   UNL     1       1.302   1.077  -3.494  0.00  0.00    +0.009 A 
ATOM      4  C   UNL     1       0.607   1.644  -4.547  0.00  0.00    +0.001 A 
ATOM      5  C   UNL     1       0.715   1.108  -5.817  0.00  0.00    +0.004 A 
ATOM      6  C   UNL     1       1.516   0.004  -6.037  0.00  0.00    +0.046 A 
ATOM      7  C   UNL     1       2.218  -0.563  -4.983  0.00  0.00    +0.122 A 
BRANCH   7   8
ATOM      8  O   UNL     1       3.012  -1.645  -5.198  0.00  0.00    -0.506 OA
ATOM      9  H   UNL     1       2.542  -2.489  -5.172  0.00  0.00    +0.292 HD
ENDBRANCH   7   8
ENDBRANCH   1   2
BRANCH   1  11
ATOM     10  N   UNL     1       0.989  -0.594  -0.944  0.00  0.00    -0.309 N 
ATOM     11  C   UNL     1       2.241  -0.207  -1.258  0.00  0.00    +0.239 C 
ATOM     12  O   UNL     1       2.869   0.493  -0.493  0.00  0.00    -0.273 OA
ATOM     13  H   UNL     1       0.460  -1.093  -1.586  0.00  0.00    +0.149 HD
BRANCH  10  15
ATOM     14  C   UNL     1       0.397   1.259   0.538  0.00  0.00    +0.031 C 
ATOM     15  C   UNL     1       0.426  -0.261   0.367  0.00  0.00    +0.026 C 
ATOM     16  C   UNL     1       1.292  -0.881   1.466  0.00  0.00    +0.031 C 
ATOM     17  C   UNL     1      -0.997  -0.813   0.466  0.00  0.00    +0.031 C 
ENDBRANCH  10  15
ENDBRANCH   1  11
BRANCH   1  18
ATOM     18  N   UNL     1       4.259  -0.209  -2.607  0.00  0.00    -0.285 N 
ATOM     19  C   UNL     1       4.581   1.220  -2.633  0.00  0.00    +0.133 C 
ATOM     20  C   UNL     1       5.248  -1.124  -2.624  0.00  0.00    +0.247 C 
ATOM     21  O   UNL     1       4.982  -2.306  -2.714  0.00  0.00    -0.270 OA
BRANCH  20  22
ATOM     22  C   UNL     1       6.659  -0.689  -2.535  0.00  0.00    +0.039 A 
ATOM     23  C   UNL     1       7.004   0.412  -1.749  0.00  0.00    +0.013 A 
ATOM     24  C   UNL     1       8.322   0.813  -1.669  0.00  0.00    +0.003 A 
ATOM     25  C   UNL     1       9.300   0.126  -2.367  0.00  0.00    +0.033 A 
ATOM     26  C   UNL     1       8.964  -0.965  -3.148  0.00  0.00    +0.127 A 
ATOM     27  C   UNL     1       7.651  -1.380  -3.232  0.00  0.00    +0.045 A 
BRANCH  26  28
ATOM     28  N   UNL     1      10.017  -1.693  -3.892  0.00  0.00    +0.056 N 
ATOM     29  O   UNL     1      11.169  -1.333  -3.816  0.00  0.00    -0.126 OA
ATOM     30  O   UNL     1       9.725  -2.646  -4.575  0.00  0.00    -0.126 OA
ENDBRANCH  26  28
ENDBRANCH  20  22
ENDBRANCH   1  18
TORSDOF 7
