REMARK  Name = ZINC00880484
REMARK  8 active torsions:
REMARK  status: ('A' for Active; 'I' for Inactive)
REMARK    1  A    between atoms: C_1  and  C_2
REMARK    2  A    between atoms: C_6  and  C_15
REMARK    3  A    between atoms: C_13  and  C_14
REMARK    4  A    between atoms: C_15  and  N_16
REMARK    5  A    between atoms: N_16  and  C_17
REMARK    6  A    between atoms: C_17  and  C_18
REMARK    7  A    between atoms: C_18  and  N_19
REMARK    8  A    between atoms: N_27  and  C_28
REMARK                            x       y       z     vdW  Elec       q    Type
REMARK                         _______ _______ _______ _____ _____    ______ ____
ROOT
ATOM      1  N   UNL     1      -5.481   3.970  -1.327  0.00  0.00    -0.280 N 
ATOM      2  C   UNL     1      -6.247   2.997  -1.860  0.00  0.00    +0.303 C 
ATOM      3  O   UNL     1      -6.527   2.014  -1.201  0.00  0.00    -0.253 OA
ATOM      4  N   UNL     1      -6.702   3.114  -3.123  0.00  0.00    -0.296 N 
ATOM      5  H   UNL     1      -6.448   4.003  -3.719  0.00  0.00    +0.151 HD
ENDROOT
BRANCH   4   6
ATOM      6  C   UNL     1      -7.534   2.056  -3.702  0.00  0.00    +0.074 C 
ATOM      7  C   UNL     1      -6.637   0.961  -4.282  0.00  0.00    +0.022 C 
ATOM      8  C   UNL     1      -7.506  -0.143  -4.887  0.00  0.00    +0.002 C 
ATOM      9  C   UNL     1      -8.377   0.445  -5.999  0.00  0.00    +0.000 C 
ATOM     10  C   UNL     1      -9.274   1.540  -5.419  0.00  0.00    +0.002 C 
ATOM     11  C   UNL     1      -8.405   2.644  -4.814  0.00  0.00    +0.022 C 
ENDBRANCH   4   6
BRANCH   1  12
ATOM     12  C   UNL     1      -4.986   3.843   0.046  0.00  0.00    +0.150 C 
BRANCH  12  18
ATOM     13  C   UNL     1       2.471   3.924  -0.001  0.00  0.00    +0.044 C 
ATOM     14  C   UNL     1       1.165   3.172   0.007  0.00  0.00    -0.047 A 
ATOM     15  C   UNL     1      -0.014   3.863   0.021  0.00  0.00    +0.013 A 
ATOM     16  C   UNL     1      -1.226   3.165   0.030  0.00  0.00    -0.001 A 
ATOM     17  C   UNL     1      -2.507   3.874   0.045  0.00  0.00    +0.020 A 
ATOM     18  C   UNL     1      -3.650   3.145   0.036  0.00  0.00    +0.035 A 
ATOM     19  C   UNL     1      -3.594   1.735   0.029  0.00  0.00    +0.254 A 
ATOM     20  O   UNL     1      -4.634   1.099   0.031  0.00  0.00    -0.268 OA
ATOM     21  N   UNL     1      -2.423   1.075   0.020  0.00  0.00    -0.322 N 
ATOM     22  H   UNL     1      -2.411  -0.025   0.014  0.00  0.00    +0.169 HD
ATOM     23  C   UNL     1      -1.225   1.757   0.017  0.00  0.00    +0.049 A 
ATOM     24  C   UNL     1      -0.013   1.076   0.008  0.00  0.00    +0.030 A 
ATOM     25  C   UNL     1       1.170   1.784   0.001  0.00  0.00    -0.046 A 
ATOM     26  C   UNL     1       2.482   1.043  -0.015  0.00  0.00    +0.044 C 
ENDBRANCH  12  18
ENDBRANCH   1  12
BRANCH   1  27
ATOM     27  C   UNL     1      -5.143   5.154  -2.121  0.00  0.00    +0.125 C 
BRANCH  27  28
ATOM     28  C   UNL     1      -3.842   4.901  -2.885  0.00  0.00    +0.103 C 
BRANCH  28  29
ATOM     29  N   UNL     1      -3.503   6.088  -3.682  0.00  0.00    -0.297 NA
ATOM     30  C   UNL     1      -4.491   6.306  -4.748  0.00  0.00    +0.112 C 
ATOM     31  C   UNL     1      -4.134   7.583  -5.514  0.00  0.00    +0.175 C 
ATOM     32  O   UNL     1      -2.802   7.471  -6.023  0.00  0.00    -0.377 OA
ATOM     33  C   UNL     1      -1.814   7.259  -5.011  0.00  0.00    +0.175 C 
ATOM     34  C   UNL     1      -2.148   5.979  -4.241  0.00  0.00    +0.112 C 
ENDBRANCH  28  29
ENDBRANCH  27  28
ENDBRANCH   1  27
TORSDOF 6
