REMARK  Name = ZINC20514925
REMARK  7 active torsions:
REMARK  status: ('A' for Active; 'I' for Inactive)
REMARK    1  A    between atoms: C_7  and  C_11
REMARK    2  A    between atoms: C_11  and  C_12
REMARK    3  A    between atoms: C_12  and  N_13
REMARK    4  A    between atoms: C_14  and  C_16
REMARK    5  A    between atoms: C_16  and  C_17
REMARK    6  A    between atoms: N_24  and  C_25
REMARK    7  A    between atoms: C_25  and  C_26
REMARK                            x       y       z     vdW  Elec       q    Type
REMARK                         _______ _______ _______ _____ _____    ______ ____
ROOT
ATOM      1  C   UNL     1      -3.726   6.339  -1.069  0.00  0.00    +0.089 C 
ENDROOT
BRANCH   1   2
ATOM      2  C   UNL     1      -3.967   4.905  -1.545  0.00  0.00    +0.028 C 
ATOM      3  C   UNL     1      -2.662   4.162  -1.573  0.00  0.00    +0.200 C 
ATOM      4  O   UNL     1      -1.682   4.726  -2.012  0.00  0.00    -0.278 OA
ATOM      5  N   UNL     1      -2.535   2.906  -1.133  0.00  0.00    -0.318 N 
ATOM      6  C   UNL     1      -3.643   2.152  -0.554  0.00  0.00    +0.085 C 
ATOM      7  C   UNL     1      -4.975   2.800  -0.936  0.00  0.00    -0.058 C 
ATOM      8  N   UNL     1      -4.905   4.239  -0.632  0.00  0.00    +0.391 N 
ATOM      9  H   UNL     1      -1.542   2.442  -1.224  0.00  0.00    +0.149 HD
ATOM     10  H   UNL     1      -4.534   4.362   0.397  0.00  0.00    -0.080 HD
BRANCH   8  11
ATOM     11  C   UNL     1      -6.236   4.857  -0.700  0.00  0.00    -0.042 C 
BRANCH  11  12
ATOM     12  C   UNL     1      -7.017   4.506   0.540  0.00  0.00    -0.064 A 
ATOM     13  C   UNL     1      -7.796   3.364   0.566  0.00  0.00    +0.004 A 
ATOM     14  C   UNL     1      -8.517   3.044   1.701  0.00  0.00    +0.038 A 
ATOM     15  C   UNL     1      -8.450   3.861   2.816  0.00  0.00    +0.123 A 
ATOM     16  C   UNL     1      -7.665   5.002   2.791  0.00  0.00    +0.038 A 
ATOM     17  C   UNL     1      -6.949   5.323   1.653  0.00  0.00    +0.004 A 
ATOM     18  F   UNL     1      -9.150   3.547   3.928  0.00  0.00    -0.205 F 
ENDBRANCH  11  12
ENDBRANCH   8  11
ENDBRANCH   1   2
BRANCH   1  20
ATOM     19  N   UNL     1      -2.759   7.465   0.910  0.00  0.00    -0.315 N 
ATOM     20  C   UNL     1      -3.142   6.315   0.320  0.00  0.00    +0.212 C 
ATOM     21  O   UNL     1      -3.015   5.261   0.907  0.00  0.00    -0.276 OA
ATOM     22  H   UNL     1      -2.874   8.420   0.378  0.00  0.00    +0.149 HD
BRANCH  19  23
ATOM     23  C   UNL     1      -2.191   7.441   2.260  0.00  0.00    +0.109 C 
BRANCH  23  24
ATOM     24  C   UNL     1      -1.843   8.867   2.692  0.00  0.00    +0.056 C 
BRANCH  24  31
ATOM     25  C   UNL     1       2.489   8.160   4.336  0.00  0.00    +0.001 A 
ATOM     26  C   UNL     1       2.561   8.231   5.721  0.00  0.00    +0.002 A 
ATOM     27  C   UNL     1       1.433   8.487   6.470  0.00  0.00    +0.026 A 
ATOM     28  C   UNL     1       0.210   8.676   5.836  0.00  0.00    +0.047 A 
ATOM     29  C   UNL     1       0.143   8.603   4.433  0.00  0.00    +0.003 A 
ATOM     30  C   UNL     1       1.298   8.342   3.693  0.00  0.00    +0.010 A 
ATOM     31  C   UNL     1      -1.259   8.843   4.081  0.00  0.00    -0.021 A 
ATOM     32  C   UNL     1      -1.923   9.043   5.231  0.00  0.00    +0.087 A 
ATOM     33  N   UNL     1      -1.062   8.941   6.290  0.00  0.00    -0.360 N 
ATOM     34  H   UNL     1      -1.252   9.039   7.369  0.00  0.00    +0.165 HD
ENDBRANCH  24  31
ENDBRANCH  23  24
ENDBRANCH  19  23
ENDBRANCH   1  20
TORSDOF 7
