REMARK  Name = ZINC03166502
REMARK  6 active torsions:
REMARK  status: ('A' for Active; 'I' for Inactive)
REMARK    1  A    between atoms: C_4  and  C_7
REMARK    2  A    between atoms: C_7  and  C_9
REMARK    3  A    between atoms: C_7  and  O_24
REMARK    4  A    between atoms: N_11  and  N_12
REMARK    5  A    between atoms: C_13  and  C_14
REMARK    6  A    between atoms: C_16  and  N_21
REMARK                            x       y       z     vdW  Elec       q    Type
REMARK                         _______ _______ _______ _____ _____    ______ ____
ROOT
ATOM      1  C   UNL     1       1.254   4.104  -1.404  0.00  0.00    +0.265 C 
ATOM      2  O   UNL     1       2.228   4.739  -1.749  0.00  0.00    -0.271 OA
ATOM      3  N   UNL     1       0.265   3.854  -2.285  0.00  0.00    -0.205 N 
ATOM      4  H   UNL     1      -0.513   3.346  -2.009  0.00  0.00    +0.177 HD
ENDROOT
BRANCH   3   5
ATOM      5  N   UNL     1       0.362   4.329  -3.599  0.00  0.00    -0.188 NA
ATOM      6  C   UNL     1      -0.591   4.089  -4.448  0.00  0.00    +0.142 C 
BRANCH   6   7
ATOM      7  C   UNL     1      -0.489   4.589  -5.830  0.00  0.00    +0.044 A 
ATOM      8  C   UNL     1      -1.512   4.333  -6.747  0.00  0.00    +0.046 A 
ATOM      9  C   UNL     1      -1.412   4.803  -8.039  0.00  0.00    +0.128 A 
ATOM     10  C   UNL     1      -0.300   5.529  -8.434  0.00  0.00    +0.051 A 
ATOM     11  C   UNL     1       0.719   5.790  -7.536  0.00  0.00    +0.067 A 
ATOM     12  C   UNL     1       0.631   5.329  -6.232  0.00  0.00    +0.202 A 
ATOM     13 BR   UNL     1       2.232   6.781  -8.087  0.00  0.00    -0.046 Br
ATOM     14  O   UNL     1       1.629   5.589  -5.348  0.00  0.00    -0.286 OA
BRANCH   9  15
ATOM     15  N   UNL     1      -2.496   4.531  -9.009  0.00  0.00    +0.056 N 
ATOM     16  O   UNL     1      -3.475   3.893  -8.665  0.00  0.00    -0.126 OA
ATOM     17  O   UNL     1      -2.410   4.945 -10.151  0.00  0.00    -0.126 OA
ENDBRANCH   9  15
ENDBRANCH   6   7
ENDBRANCH   3   5
BRANCH   1  18
ATOM     18  C   UNL     1       1.151   3.592   0.010  0.00  0.00    +0.232 C 
BRANCH  18  22
ATOM     19  C   UNL     1       1.208  -0.679  -0.014  0.00  0.00    +0.000 A 
ATOM     20  C   UNL     1       0.002  -0.004   0.002  0.00  0.00    +0.000 A 
ATOM     21  C   UNL     1      -0.017   1.378   0.010  0.00  0.00    +0.006 A 
ATOM     22  C   UNL     1       1.171   2.086   0.002  0.00  0.00    -0.010 A 
ATOM     23  C   UNL     1       2.377   1.411  -0.014  0.00  0.00    +0.006 A 
ATOM     24  C   UNL     1       2.396   0.029  -0.021  0.00  0.00    +0.000 A 
ENDBRANCH  18  22
BRANCH  18  25
ATOM     25  O   UNL     1       2.255   4.080   0.775  0.00  0.00    -0.378 OA
ATOM     26  H   UNL     1       3.119   3.808   0.436  0.00  0.00    +0.211 HD
ENDBRANCH  18  25
ENDBRANCH   1  18
TORSDOF 6
