REMARK  Name = ZINC35747733
REMARK  15 active torsions:
REMARK  status: ('A' for Active; 'I' for Inactive)
REMARK    1  A    between atoms: C_1  and  C_2
REMARK    2  A    between atoms: C_5  and  C_38
REMARK    3  A    between atoms: C_6  and  C_8
REMARK    4  A    between atoms: C_17  and  C_19
REMARK    5  A    between atoms: C_19  and  N_20
REMARK    6  A    between atoms: N_20  and  C_21
REMARK    7  A    between atoms: N_20  and  C_34
REMARK    8  A    between atoms: C_21  and  C_22
REMARK    9  A    between atoms: C_22  and  C_24
REMARK   10  A    between atoms: C_22  and  O_33
REMARK   11  A    between atoms: C_24  and  O_25
REMARK   12  A    between atoms: O_25  and  C_26
REMARK   13  A    between atoms: C_34  and  C_35
REMARK   14  A    between atoms: C_35  and  C_36
REMARK   15  A    between atoms: C_35  and  C_37
REMARK                            x       y       z     vdW  Elec       q    Type
REMARK                         _______ _______ _______ _____ _____    ______ ____
ROOT
ATOM      1  C   UNL     1       3.943  -6.030   4.471  0.00  0.00    -0.003 C 
ENDROOT
BRANCH   1  11
ATOM      2  C   UNL     1      -0.299  -2.783   2.484  0.00  0.00    +0.004 A 
ATOM      3  C   UNL     1      -1.317  -2.661   3.369  0.00  0.00    +0.056 A 
ATOM      4  S   UNL     1      -0.768  -3.624   4.765  0.00  0.00    -0.076 S 
ATOM      5  C   UNL     1       0.801  -4.162   4.134  0.00  0.00    +0.116 A 
ATOM      6  C   UNL     1       0.860  -3.587   2.854  0.00  0.00    +0.080 A 
ATOM      7  C   UNL     1       2.045  -3.869   2.102  0.00  0.00    +0.260 A 
ATOM      8  O   UNL     1       2.190  -3.410   0.982  0.00  0.00    -0.267 OA
ATOM      9  N   UNL     1       2.996  -4.646   2.651  0.00  0.00    -0.312 N 
ATOM     10  H   UNL     1       3.801  -4.840   2.146  0.00  0.00    +0.170 HD
ATOM     11  C   UNL     1       2.851  -5.164   3.897  0.00  0.00    +0.094 A 
ATOM     12  N   UNL     1       1.786  -4.918   4.612  0.00  0.00    -0.229 NA
BRANCH   2  18
ATOM     13  C   UNL     1      -0.444   1.396  -0.243  0.00  0.00    +0.044 C 
ATOM     14  C   UNL     1      -0.434  -0.108  -0.153  0.00  0.00    -0.050 A 
ATOM     15  C   UNL     1      -0.486  -0.870  -1.308  0.00  0.00    +0.003 A 
ATOM     16  C   UNL     1      -0.477  -2.251  -1.233  0.00  0.00    +0.004 A 
ATOM     17  C   UNL     1      -0.417  -2.877  -0.004  0.00  0.00    -0.043 A 
ATOM     18  C   UNL     1      -0.364  -2.116   1.162  0.00  0.00    -0.013 A 
ATOM     19  C   UNL     1      -0.367  -0.724   1.080  0.00  0.00    +0.012 A 
ATOM     20  C   UNL     1      -0.408  -4.382   0.076  0.00  0.00    +0.044 C 
ENDBRANCH   2  18
ENDBRANCH   1  11
BRANCH   1  21
ATOM     21  N   UNL     1       3.562  -6.469   5.820  0.00  0.00    +0.386 N 
ATOM     22  H   UNL     1       3.348  -5.663   6.388  0.00  0.00    -0.081 HD
BRANCH  21  23
ATOM     23  C   UNL     1       4.676  -7.212   6.426  0.00  0.00    -0.043 C 
BRANCH  23  24
ATOM     24  C   UNL     1       5.856  -6.266   6.654  0.00  0.00    +0.135 C 
BRANCH  24  25
ATOM     25  O   UNL     1       5.477  -5.247   7.582  0.00  0.00    -0.390 OA
ATOM     26  H   UNL     1       5.138  -5.586   8.422  0.00  0.00    +0.210 HD
ENDBRANCH  24  25
BRANCH  24  27
ATOM     27  C   UNL     1       7.040  -7.055   7.218  0.00  0.00    +0.258 C 
BRANCH  27  28
ATOM     28  O   UNL     1       8.178  -6.196   7.322  0.00  0.00    -0.489 OA
BRANCH  28  29
ATOM     29  C   UNL     1       9.322  -6.745   7.809  0.00  0.00    +0.121 A 
ATOM     30  C   UNL     1       9.350  -8.083   8.174  0.00  0.00    +0.047 A 
ATOM     31  C   UNL     1      10.514  -8.639   8.668  0.00  0.00    +0.023 A 
ATOM     32  C   UNL     1      11.651  -7.861   8.801  0.00  0.00    +0.041 A 
ATOM     33  C   UNL     1      11.625  -6.526   8.438  0.00  0.00    +0.023 A 
ATOM     34  C   UNL     1      10.464  -5.969   7.937  0.00  0.00    +0.047 A 
ATOM     35 CL   UNL     1      13.112  -8.562   9.424  0.00  0.00    -0.084 Cl
ENDBRANCH  28  29
ENDBRANCH  27  28
ENDBRANCH  24  27
ENDBRANCH  23  24
ENDBRANCH  21  23
BRANCH  21  36
ATOM     36  C   UNL     1       2.381  -7.338   5.737  0.00  0.00    -0.075 C 
BRANCH  36  37
ATOM     37  C   UNL     1       1.894  -7.674   7.147  0.00  0.00    -0.034 C 
ATOM     38  C   UNL     1       1.424  -6.395   7.843  0.00  0.00    +0.005 C 
ATOM     39  C   UNL     1       0.732  -8.666   7.064  0.00  0.00    +0.005 C 
ENDBRANCH  36  37
ENDBRANCH  21  36
ENDBRANCH   1  21
TORSDOF 11
