REMARK  Name = ZINC35926425
REMARK  8 active torsions:
REMARK  status: ('A' for Active; 'I' for Inactive)
REMARK    1  A    between atoms: C_1  and  C_2
REMARK    2  A    between atoms: C_2  and  C_3
REMARK    3  A    between atoms: C_3  and  C_5
REMARK    4  A    between atoms: C_3  and  C_11
REMARK    5  A    between atoms: C_25  and  C_27
REMARK    6  A    between atoms: C_27  and  N_28
REMARK    7  A    between atoms: N_31  and  C_34
REMARK    8  A    between atoms: C_39  and  C_40
REMARK                            x       y       z     vdW  Elec       q    Type
REMARK                         _______ _______ _______ _____ _____    ______ ____
ROOT
ATOM      1  C   UNL     1      -3.433  -1.949   1.185  0.00  0.00    +0.223 C 
ATOM      2  O   UNL     1      -3.495  -0.744   1.067  0.00  0.00    -0.275 OA
ATOM      3  N   UNL     1      -2.750  -2.491   2.213  0.00  0.00    -0.298 N 
ATOM      4  C   UNL     1      -2.570  -3.947   2.306  0.00  0.00    +0.127 C 
ATOM      5  C   UNL     1      -1.070  -4.250   2.412  0.00  0.00    +0.127 C 
ATOM      6  N   UNL     1      -0.491  -3.396   3.458  0.00  0.00    -0.298 N 
ATOM      7  C   UNL     1      -0.671  -1.940   3.365  0.00  0.00    +0.127 C 
ATOM      8  C   UNL     1      -2.166  -1.637   3.256  0.00  0.00    +0.127 C 
ATOM      9  C   UNL     1       0.203  -3.946   4.502  0.00  0.00    +0.198 A 
ATOM     10  N   UNL     1       0.265  -5.300   4.623  0.00  0.00    -0.295 N 
ATOM     11  H   UNL     1      -0.180  -5.868   3.974  0.00  0.00    +0.172 HD
ATOM     12  C   UNL     1       0.948  -5.851   5.649  0.00  0.00    +0.253 A 
ATOM     13  O   UNL     1       1.014  -7.063   5.773  0.00  0.00    -0.268 OA
ATOM     14  C   UNL     1       1.581  -5.000   6.573  0.00  0.00    +0.091 A 
ATOM     15  C   UNL     1       1.484  -3.650   6.401  0.00  0.00    +0.034 A 
ATOM     16  N   UNL     1       0.803  -3.156   5.369  0.00  0.00    -0.223 NA
ENDROOT
BRANCH   1  17
ATOM     17  C   UNL     1      -4.120  -2.841   0.183  0.00  0.00    +0.105 C 
BRANCH  17  18
ATOM     18  C   UNL     1      -3.140  -3.236  -0.892  0.00  0.00    -0.036 A 
ATOM     19  C   UNL     1      -2.532  -2.264  -1.664  0.00  0.00    +0.004 A 
ATOM     20  C   UNL     1      -1.633  -2.626  -2.650  0.00  0.00    +0.000 A 
ATOM     21  C   UNL     1      -1.343  -3.961  -2.864  0.00  0.00    +0.000 A 
ATOM     22  C   UNL     1      -1.950  -4.933  -2.091  0.00  0.00    +0.000 A 
ATOM     23  C   UNL     1      -2.846  -4.570  -1.102  0.00  0.00    +0.004 A 
ENDBRANCH  17  18
BRANCH  17  25
ATOM     24  C   UNL     1      -6.076  -3.038  -1.359  0.00  0.00    +0.005 C 
ATOM     25  C   UNL     1      -5.294  -2.089  -0.448  0.00  0.00    +0.014 C 
ENDBRANCH  17  25
ENDBRANCH   1  17
BRANCH  15  26
ATOM     26  C   UNL     1       2.154  -2.717   7.376  0.00  0.00    -0.022 C 
BRANCH  26  27
ATOM     27  N   UNL     1       3.215  -1.969   6.689  0.00  0.00    +0.385 N 
ATOM     28  C   UNL     1       4.261  -2.901   6.247  0.00  0.00    -0.059 C 
ATOM     29  C   UNL     1       5.310  -2.139   5.431  0.00  0.00    +0.086 C 
ATOM     30  N   UNL     1       5.803  -1.013   6.239  0.00  0.00    -0.333 N 
ATOM     31  C   UNL     1       4.812  -0.119   6.860  0.00  0.00    +0.086 C 
ATOM     32  C   UNL     1       3.786  -0.977   7.608  0.00  0.00    -0.059 C 
ATOM     33  H   UNL     1       2.826  -1.498   5.886  0.00  0.00    -0.081 HD
BRANCH  30  34
ATOM     34  C   UNL     1       7.172  -0.799   6.413  0.00  0.00    +0.033 A 
ATOM     35  C   UNL     1       7.868   0.010   5.524  0.00  0.00    +0.023 A 
ATOM     36  C   UNL     1       9.222   0.220   5.699  0.00  0.00    +0.002 A 
ATOM     37  C   UNL     1       9.884  -0.373   6.758  0.00  0.00    +0.000 A 
ATOM     38  C   UNL     1       9.194  -1.179   7.645  0.00  0.00    +0.005 A 
ATOM     39  C   UNL     1       7.839  -1.389   7.479  0.00  0.00    -0.029 A 
ATOM     40  C   UNL     1       7.086  -2.262   8.450  0.00  0.00    +0.045 C 
ENDBRANCH  30  34
ENDBRANCH  26  27
ENDBRANCH  15  26
TORSDOF 6
