REMARK  Name = ZINC01384020
REMARK  6 active torsions:
REMARK  status: ('A' for Active; 'I' for Inactive)
REMARK    1  A    between atoms: C_4  and  S_7
REMARK    2  A    between atoms: S_7  and  N_10
REMARK    3  A    between atoms: N_10  and  N_11
REMARK    4  A    between atoms: C_12  and  C_14
REMARK    5  A    between atoms: N_17  and  S_20
REMARK    6  A    between atoms: S_20  and  C_23
REMARK                            x       y       z     vdW  Elec       q    Type
REMARK                         _______ _______ _______ _____ _____    ______ ____
ROOT
ATOM      1  N   UNL     1       3.549  -1.818   2.389  0.00  0.00    -0.232 N 
ATOM      2  C   UNL     1       4.040  -2.887   3.046  0.00  0.00    +0.231 C 
ATOM      3  O   UNL     1       5.200  -3.209   2.899  0.00  0.00    -0.274 OA
ATOM      4  H   UNL     1       2.621  -1.561   2.507  0.00  0.00    +0.171 HD
ENDROOT
BRANCH   2   5
ATOM      5  C   UNL     1       3.148  -3.683   3.965  0.00  0.00    +0.079 C 
ATOM      6  C   UNL     1       2.621  -2.773   5.077  0.00  0.00    +0.030 C 
ATOM      7  C   UNL     1       1.688  -3.576   5.988  0.00  0.00    +0.110 C 
ATOM      8  N   UNL     1       2.404  -4.765   6.470  0.00  0.00    -0.177 NA
ATOM      9  C   UNL     1       3.029  -5.660   5.486  0.00  0.00    +0.110 C 
ATOM     10  C   UNL     1       3.947  -4.833   4.580  0.00  0.00    +0.030 C 
BRANCH   8  11
ATOM     11  S   UNL     1       2.507  -5.090   8.090  0.00  0.00    +0.061 S 
ATOM     12  O   UNL     1       3.659  -5.903   8.269  0.00  0.00    -0.153 OA
ATOM     13  O   UNL     1       2.338  -3.850   8.764  0.00  0.00    -0.153 OA
BRANCH  11  14
ATOM     14  C   UNL     1       1.116  -6.086   8.511  0.00  0.00    +0.105 A 
ATOM     15  C   UNL     1      -0.066  -5.490   8.909  0.00  0.00    +0.028 A 
ATOM     16  C   UNL     1      -1.157  -6.272   9.239  0.00  0.00    +0.002 A 
ATOM     17  C   UNL     1      -1.066  -7.650   9.171  0.00  0.00    +0.000 A 
ATOM     18  C   UNL     1       0.116  -8.245   8.773  0.00  0.00    +0.002 A 
ATOM     19  C   UNL     1       1.206  -7.464   8.439  0.00  0.00    +0.028 A 
ENDBRANCH  11  14
ENDBRANCH   8  11
ENDBRANCH   2   5
BRANCH   1  20
ATOM     20  N   UNL     1       4.378  -1.079   1.536  0.00  0.00    -0.108 NA
ATOM     21  H   UNL     1       5.212  -0.711   1.868  0.00  0.00    +0.172 HD
BRANCH  20  22
ATOM     22  S   UNL     1       3.934  -0.832  -0.041  0.00  0.00    +0.074 S 
ATOM     23  O   UNL     1       3.674  -2.114  -0.595  0.00  0.00    -0.152 OA
ATOM     24  O   UNL     1       4.890   0.060  -0.597  0.00  0.00    -0.152 OA
BRANCH  22  28
ATOM     25  C   UNL     1      -0.017   1.378   0.010  0.00  0.00    +0.000 A 
ATOM     26  C   UNL     1       1.171   2.086   0.002  0.00  0.00    +0.002 A 
ATOM     27  C   UNL     1       2.377   1.411  -0.013  0.00  0.00    +0.028 A 
ATOM     28  C   UNL     1       2.396   0.029  -0.020  0.00  0.00    +0.107 A 
ATOM     29  C   UNL     1       1.208  -0.679  -0.012  0.00  0.00    +0.028 A 
ATOM     30  C   UNL     1       0.002  -0.004   0.002  0.00  0.00    +0.002 A 
ENDBRANCH  22  28
ENDBRANCH  20  22
ENDBRANCH   1  20
TORSDOF 6
