REMARK  Name = ZINC67329632
REMARK  7 active torsions:
REMARK  status: ('A' for Active; 'I' for Inactive)
REMARK    1  A    between atoms: C_1  and  N_2
REMARK    2  A    between atoms: N_2  and  S_3
REMARK    3  A    between atoms: S_3  and  C_6
REMARK    4  A    between atoms: C_10  and  C_12
REMARK    5  A    between atoms: N_14  and  C_15
REMARK    6  A    between atoms: C_15  and  C_16
REMARK    7  A    between atoms: C_20  and  N_22
REMARK                            x       y       z     vdW  Elec       q    Type
REMARK                         _______ _______ _______ _____ _____    ______ ____
ROOT
ATOM      1  C   UNL     1       5.585  -1.780   0.346  0.00  0.00    +0.246 C 
ATOM      2  O   UNL     1       6.771  -1.515   0.377  0.00  0.00    -0.270 OA
ATOM      3  N   UNL     1       5.115  -2.846   1.022  0.00  0.00    -0.307 N 
ATOM      4  H   UNL     1       4.168  -3.057   0.997  0.00  0.00    +0.149 HD
ENDROOT
BRANCH   1   9
ATOM      5  C   UNL     1       2.438  -0.437  -1.202  0.00  0.00    +0.106 A 
ATOM      6  C   UNL     1       2.925   0.658  -1.895  0.00  0.00    +0.030 A 
ATOM      7  C   UNL     1       4.273   0.963  -1.862  0.00  0.00    +0.022 A 
ATOM      8  C   UNL     1       5.144   0.175  -1.136  0.00  0.00    +0.053 A 
ATOM      9  C   UNL     1       4.660  -0.931  -0.434  0.00  0.00    +0.057 A 
ATOM     10  C   UNL     1       3.296  -1.229  -0.467  0.00  0.00    +0.043 A 
ATOM     11 CL   UNL     1       6.837   0.558  -1.096  0.00  0.00    -0.083 Cl
BRANCH   5  12
ATOM     12  S   UNL     1       0.718  -0.816  -1.251  0.00  0.00    +0.058 S 
ATOM     13  O   UNL     1       0.599  -2.201  -0.959  0.00  0.00    -0.153 OA
ATOM     14  O   UNL     1       0.211  -0.243  -2.449  0.00  0.00    -0.153 OA
BRANCH  12  16
ATOM     15  C   UNL     1      -0.018   1.461   0.010  0.00  0.00    +0.127 C 
ATOM     16  N   UNL     1       0.002  -0.004   0.002  0.00  0.00    -0.193 NA
ATOM     17  H   UNL     1      -0.404  -0.499   0.731  0.00  0.00    +0.148 HD
ENDBRANCH  12  16
ENDBRANCH   5  12
ENDBRANCH   1   9
BRANCH   3  18
ATOM     18  C   UNL     1       6.032  -3.687   1.795  0.00  0.00    +0.140 C 
BRANCH  18  19
ATOM     19  C   UNL     1       5.260  -4.803   2.450  0.00  0.00    -0.028 A 
ATOM     20  C   UNL     1       4.722  -4.623   3.711  0.00  0.00    +0.005 A 
ATOM     21  C   UNL     1       4.013  -5.647   4.312  0.00  0.00    +0.003 A 
ATOM     22  C   UNL     1       3.843  -6.850   3.652  0.00  0.00    +0.033 A 
ATOM     23  C   UNL     1       4.380  -7.029   2.391  0.00  0.00    +0.127 A 
ATOM     24  C   UNL     1       5.085  -6.003   1.788  0.00  0.00    +0.038 A 
BRANCH  23  25
ATOM     25  N   UNL     1       4.197  -8.317   1.685  0.00  0.00    +0.056 N 
ATOM     26  O   UNL     1       3.579  -9.212   2.211  0.00  0.00    -0.126 OA
ATOM     27  O   UNL     1       4.667  -8.473   0.582  0.00  0.00    -0.126 OA
ENDBRANCH  23  25
ENDBRANCH  18  19
ENDBRANCH   3  18
TORSDOF 6
