REMARK  Name = ZINC19850507
REMARK  9 active torsions:
REMARK  status: ('A' for Active; 'I' for Inactive)
REMARK    1  A    between atoms: C_1  and  N_2
REMARK    2  A    between atoms: N_2  and  C_3
REMARK    3  A    between atoms: N_2  and  C_4
REMARK    4  A    between atoms: C_7  and  C_10
REMARK    5  A    between atoms: N_11  and  N_12
REMARK    6  A    between atoms: C_13  and  C_15
REMARK    7  A    between atoms: C_15  and  N_16
REMARK    8  A    between atoms: N_19  and  S_22
REMARK    9  A    between atoms: S_22  and  C_25
REMARK                            x       y       z     vdW  Elec       q    Type
REMARK                         _______ _______ _______ _____ _____    ______ ____
ROOT
ATOM      1  N   UNL     1       0.907   4.248  -2.122  0.00  0.00    +0.387 N 
ATOM      2  C   UNL     1       0.061   3.393  -1.279  0.00  0.00    -0.061 C 
ATOM      3  C   UNL     1       0.935   2.671  -0.249  0.00  0.00    +0.091 C 
ATOM      4  N   UNL     1       1.729   3.672   0.480  0.00  0.00    -0.180 NA
ATOM      5  C   UNL     1       2.493   4.656  -0.301  0.00  0.00    +0.091 C 
ATOM      6  C   UNL     1       1.558   5.301  -1.329  0.00  0.00    -0.061 C 
ATOM      7  H   UNL     1       1.698   3.616  -2.552  0.00  0.00    -0.081 HD
ENDROOT
BRANCH   4   8
ATOM      8  S   UNL     1       1.755   3.693   2.136  0.00  0.00    +0.061 S 
ATOM      9  O   UNL     1       2.099   5.018   2.519  0.00  0.00    -0.153 OA
ATOM     10  O   UNL     1       0.558   3.062   2.569  0.00  0.00    -0.153 OA
BRANCH   8  11
ATOM     11  C   UNL     1       3.085   2.658   2.649  0.00  0.00    +0.106 A 
ATOM     12  C   UNL     1       2.865   1.313   2.880  0.00  0.00    +0.029 A 
ATOM     13  C   UNL     1       3.909   0.500   3.279  0.00  0.00    +0.017 A 
ATOM     14  C   UNL     1       5.172   1.034   3.456  0.00  0.00    +0.018 A 
ATOM     15  C   UNL     1       5.391   2.381   3.230  0.00  0.00    +0.017 A 
ATOM     16  C   UNL     1       4.348   3.192   2.827  0.00  0.00    +0.029 A 
ATOM     17 BR   UNL     1       6.600  -0.077   4.007  0.00  0.00    -0.050 Br
ENDBRANCH   8  11
ENDBRANCH   4   8
BRANCH   1  18
ATOM     18  C   UNL     1       0.135   4.825  -3.230  0.00  0.00    +0.020 C 
BRANCH  18  20
ATOM     19  N   UNL     1      -1.818   6.317  -3.512  0.00  0.00    -0.209 N 
ATOM     20  C   UNL     1      -0.937   5.729  -2.678  0.00  0.00    +0.216 C 
ATOM     21  O   UNL     1      -1.007   5.929  -1.484  0.00  0.00    -0.276 OA
ATOM     22  H   UNL     1      -1.755   6.136  -4.595  0.00  0.00    +0.177 HD
BRANCH  19  24
ATOM     23  C   UNL     1      -3.752   7.604  -3.778  0.00  0.00    +0.138 C 
ATOM     24  N   UNL     1      -2.814   7.158  -2.999  0.00  0.00    -0.188 NA
BRANCH  23  28
ATOM     25  C   UNL     1      -4.434   5.768  -7.545  0.00  0.00    +0.029 A 
ATOM     26  C   UNL     1      -3.767   5.070  -6.544  0.00  0.00    +0.024 A 
ATOM     27  C   UNL     1      -3.544   5.662  -5.320  0.00  0.00    +0.011 A 
ATOM     28  C   UNL     1      -3.988   6.967  -5.086  0.00  0.00    -0.005 A 
ATOM     29  C   UNL     1      -4.663   7.663  -6.093  0.00  0.00    +0.011 A 
ATOM     30  C   UNL     1      -4.878   7.066  -7.315  0.00  0.00    +0.024 A 
BRANCH  25  32
ATOM     31  C   UNL     1      -4.192   3.798  -9.026  0.00  0.00    +0.129 C 
ATOM     32  N   UNL     1      -4.658   5.165  -8.782  0.00  0.00    -0.336 N 
ATOM     33  C   UNL     1      -5.360   5.899  -9.838  0.00  0.00    +0.129 C 
ENDBRANCH  25  32
ENDBRANCH  23  28
ENDBRANCH  19  24
ENDBRANCH  18  20
ENDBRANCH   1  18
TORSDOF 7
