REMARK  Name = ZINC04278407
REMARK  8 active torsions:
REMARK  status: ('A' for Active; 'I' for Inactive)
REMARK    1  A    between atoms: C_1  and  C_2
REMARK    2  A    between atoms: C_7  and  N_12
REMARK    3  A    between atoms: C_9  and  C_11
REMARK    4  A    between atoms: C_13  and  C_15
REMARK    5  A    between atoms: C_15  and  O_16
REMARK    6  A    between atoms: O_16  and  C_17
REMARK    7  A    between atoms: C_17  and  C_19
REMARK    8  A    between atoms: C_19  and  N_20
REMARK                            x       y       z     vdW  Elec       q    Type
REMARK                         _______ _______ _______ _____ _____    ______ ____
ROOT
ATOM      1  C   UNL     1       0.002  -0.004   0.002  0.00  0.00    +0.329 C 
ATOM      2  O   UNL     1       1.056  -0.594  -0.011  0.00  0.00    -0.249 OA
ENDROOT
BRANCH   1   3
ATOM      3  O   UNL     1      -0.016   1.338   0.009  0.00  0.00    -0.454 OA
BRANCH   3   4
ATOM      4  C   UNL     1       1.268   2.015   0.001  0.00  0.00    +0.327 C 
BRANCH   4   6
ATOM      5  N   UNL     1       2.108   4.341   0.005  0.00  0.00    -0.309 N 
ATOM      6  C   UNL     1       1.051   3.506   0.011  0.00  0.00    +0.251 C 
ATOM      7  O   UNL     1      -0.076   3.954   0.024  0.00  0.00    -0.272 OA
ATOM      8  H   UNL     1       3.010   3.983  -0.005  0.00  0.00    +0.149 HD
BRANCH   5  14
ATOM      9  C   UNL     1       4.104   8.699  -1.210  0.00  0.00    +0.008 C 
ATOM     10  C   UNL     1       2.890   8.002  -0.592  0.00  0.00    -0.009 C 
ATOM     11  C   UNL     1       2.705   8.480   0.849  0.00  0.00    +0.003 C 
ATOM     12  C   UNL     1       1.491   7.784   1.467  0.00  0.00    +0.002 C 
ATOM     13  C   UNL     1       1.712   6.270   1.456  0.00  0.00    +0.022 C 
ATOM     14  C   UNL     1       1.897   5.791   0.015  0.00  0.00    +0.076 C 
ATOM     15  C   UNL     1       3.111   6.488  -0.603  0.00  0.00    +0.009 C 
ATOM     16  C   UNL     1       4.362   6.149   0.211  0.00  0.00    +0.009 C 
ENDBRANCH   5  14
ENDBRANCH   4   6
ENDBRANCH   3   4
ENDBRANCH   1   3
BRANCH   1  17
ATOM     17  C   UNL     1      -1.293  -0.775   0.010  0.00  0.00    +0.265 C 
BRANCH  17  18
ATOM     18  N   UNL     1      -1.005  -2.212  -0.000  0.00  0.00    -0.238 N 
ATOM     19  C   UNL     1      -0.861  -2.858   1.173  0.00  0.00    +0.274 A 
ATOM     20  O   UNL     1      -0.968  -2.253   2.222  0.00  0.00    -0.266 OA
ATOM     21  C   UNL     1      -0.575  -4.309   1.175  0.00  0.00    +0.053 A 
ATOM     22  C   UNL     1      -0.422  -5.019   2.357  0.00  0.00    +0.014 A 
ATOM     23  C   UNL     1      -0.151  -6.375   2.311  0.00  0.00    +0.001 A 
ATOM     24  C   UNL     1      -0.031  -7.027   1.096  0.00  0.00    +0.001 A 
ATOM     25  C   UNL     1      -0.181  -6.333  -0.092  0.00  0.00    +0.014 A 
ATOM     26  C   UNL     1      -0.453  -4.973  -0.062  0.00  0.00    +0.053 A 
ATOM     27  C   UNL     1      -0.621  -4.188  -1.305  0.00  0.00    +0.271 A 
ATOM     28  O   UNL     1      -0.522  -4.729  -2.389  0.00  0.00    -0.266 OA
ATOM     29  N   UNL     1      -0.884  -2.869  -1.225  0.00  0.00    -0.260 N 
ATOM     30  H   UNL     1      -0.993  -2.361  -2.045  0.00  0.00    +0.190 HD
ENDBRANCH  17  18
ENDBRANCH   1  17
TORSDOF 6
