REMARK  Name = ZINC20806112
REMARK  10 active torsions:
REMARK  status: ('A' for Active; 'I' for Inactive)
REMARK    1  A    between atoms: C_1  and  O_2
REMARK    2  A    between atoms: O_2  and  C_3
REMARK    3  A    between atoms: C_3  and  C_5
REMARK    4  A    between atoms: C_8  and  C_11
REMARK    5  A    between atoms: N_12  and  N_13
REMARK    6  A    between atoms: C_17  and  S_20
REMARK    7  A    between atoms: N_18  and  N_19
REMARK    8  A    between atoms: S_20  and  C_21
REMARK    9  A    between atoms: C_21  and  C_22
REMARK   10  A    between atoms: N_24  and  C_25
REMARK                            x       y       z     vdW  Elec       q    Type
REMARK                         _______ _______ _______ _____ _____    ______ ____
ROOT
ATOM      1  N   UNL     1      -3.556   6.966  -2.727  0.00  0.00    -0.204 N 
ATOM      2  C   UNL     1      -4.007   8.194  -2.267  0.00  0.00    +0.254 A 
ATOM      3  N   UNL     1      -3.805   8.702  -1.077  0.00  0.00    -0.109 NA
ATOM      4  N   UNL     1      -4.360   9.858  -0.990  0.00  0.00    -0.119 NA
ATOM      5  C   UNL     1      -4.959  10.155  -2.118  0.00  0.00    +0.210 A 
ATOM      6  N   UNL     1      -4.754   9.103  -2.972  0.00  0.00    -0.211 N 
ATOM      7  H   UNL     1      -3.794   6.640  -3.750  0.00  0.00    +0.177 HD
ENDROOT
BRANCH   6   8
ATOM      8  N   UNL     1      -5.201   8.985  -4.258  0.00  0.00    -0.294 N 
ATOM      9  H   UNL     1      -5.796   9.792  -4.710  0.00  0.00    +0.163 HD
ATOM     10  H   UNL     1      -4.967   8.082  -4.840  0.00  0.00    +0.163 HD
ENDBRANCH   6   8
BRANCH   1  12
ATOM     11  C   UNL     1      -2.376   4.987  -2.317  0.00  0.00    +0.138 C 
ATOM     12  N   UNL     1      -2.798   6.139  -1.887  0.00  0.00    -0.188 NA
BRANCH  11  16
ATOM     13  C   UNL     1      -0.084   2.488   0.222  0.00  0.00    +0.059 A 
ATOM     14  C   UNL     1      -0.544   3.725   0.687  0.00  0.00    +0.015 A 
ATOM     15  C   UNL     1      -1.278   4.533  -0.133  0.00  0.00    +0.010 A 
ATOM     16  C   UNL     1      -1.579   4.119  -1.435  0.00  0.00    -0.005 A 
ATOM     17  C   UNL     1      -1.124   2.880  -1.899  0.00  0.00    +0.010 A 
ATOM     18  C   UNL     1      -0.386   2.074  -1.080  0.00  0.00    +0.015 A 
BRANCH  13  19
ATOM     19  C   UNL     1       0.713   1.619   1.106  0.00  0.00    +0.339 C 
ATOM     20  O   UNL     1       1.109   0.542   0.703  0.00  0.00    -0.245 OA
BRANCH  19  22
ATOM     21  C   UNL     1       1.803   1.115   3.170  0.00  0.00    +0.280 C 
ATOM     22  O   UNL     1       1.009   2.020   2.358  0.00  0.00    -0.464 OA
ENDBRANCH  19  22
ENDBRANCH  13  19
ENDBRANCH  11  16
ENDBRANCH   1  12
BRANCH   5  23
ATOM     23  S   UNL     1      -5.857  11.629  -2.470  0.00  0.00    -0.075 S 
BRANCH  23  24
ATOM     24  C   UNL     1      -5.677  12.491  -0.889  0.00  0.00    +0.173 C 
BRANCH  24  25
ATOM     25  C   UNL     1      -6.387  13.819  -0.957  0.00  0.00    +0.228 C 
ATOM     26  O   UNL     1      -6.959  14.149  -1.974  0.00  0.00    -0.275 OA
ATOM     27  N   UNL     1      -6.387  14.639   0.113  0.00  0.00    -0.280 N 
ATOM     28  H   UNL     1      -5.941  14.305   1.062  0.00  0.00    +0.155 HD
BRANCH  27  29
ATOM     29  C   UNL     1      -6.955  15.916   0.017  0.00  0.00    +0.105 A 
ATOM     30  C   UNL     1      -6.178  16.995  -0.388  0.00  0.00    +0.147 A 
ATOM     31  C   UNL     1      -6.744  18.254  -0.487  0.00  0.00    +0.040 A 
ATOM     32  C   UNL     1      -8.078  18.441  -0.173  0.00  0.00    +0.006 A 
ATOM     33  C   UNL     1      -8.852  17.371   0.235  0.00  0.00    +0.040 A 
ATOM     34  C   UNL     1      -8.295  16.108   0.332  0.00  0.00    +0.147 A 
ATOM     35  F   UNL     1      -9.053  15.063   0.731  0.00  0.00    -0.203 F 
ATOM     36  F   UNL     1      -4.874  16.815  -0.689  0.00  0.00    -0.203 F 
ENDBRANCH  27  29
ENDBRANCH  24  25
ENDBRANCH  23  24
ENDBRANCH   5  23
TORSDOF 9
