REMARK  Name = ZINC14359645
REMARK  7 active torsions:
REMARK  status: ('A' for Active; 'I' for Inactive)
REMARK    1  A    between atoms: C_1  and  C_2
REMARK    2  A    between atoms: C_5  and  S_8
REMARK    3  A    between atoms: S_8  and  C_9
REMARK    4  A    between atoms: C_12  and  C_18
REMARK    5  A    between atoms: C_14  and  N_15
REMARK    6  A    between atoms: C_19  and  C_20
REMARK    7  A    between atoms: N_28  and  C_31
REMARK                            x       y       z     vdW  Elec       q    Type
REMARK                         _______ _______ _______ _____ _____    ______ ____
ROOT
ATOM      1  C   UNL     1      -0.035   1.036   0.016  0.00  0.00    +0.011 C 
ATOM      2  C   UNL     1       1.164   1.737   0.047  0.00  0.00    +0.047 C 
ENDROOT
BRANCH   2   3
ATOM      3  C   UNL     1       2.384   1.042   0.033  0.00  0.00    +0.136 A 
ATOM      4  N   UNL     1       3.550   1.764   0.059  0.00  0.00    -0.307 N 
ATOM      5  H   UNL     1       3.519   2.733   0.085  0.00  0.00    +0.170 HD
ATOM      6  C   UNL     1       4.745   1.125   0.052  0.00  0.00    +0.263 A 
ATOM      7  O   UNL     1       5.792   1.742   0.079  0.00  0.00    -0.267 OA
ATOM      8  C   UNL     1       4.724  -0.343   0.006  0.00  0.00    +0.103 A 
ATOM      9  C   UNL     1       5.673  -1.357  -0.019  0.00  0.00    +0.150 A 
ATOM     10  N   UNL     1       5.031  -2.510  -0.060  0.00  0.00    -0.172 NA
ATOM     11  N   UNL     1       3.755  -2.346  -0.064  0.00  0.00    -0.214 N 
ATOM     12  C   UNL     1       3.462  -1.004  -0.024  0.00  0.00    +0.171 A 
ATOM     13  N   UNL     1       2.358  -0.286  -0.009  0.00  0.00    -0.210 NA
BRANCH  11  14
ATOM     14  C   UNL     1       2.813  -3.374  -0.103  0.00  0.00    +0.068 A 
ATOM     15  C   UNL     1       1.612  -3.247   0.588  0.00  0.00    +0.028 A 
ATOM     16  C   UNL     1       0.681  -4.264   0.543  0.00  0.00    +0.002 A 
ATOM     17  C   UNL     1       0.944  -5.414  -0.179  0.00  0.00    +0.000 A 
ATOM     18  C   UNL     1       2.139  -5.547  -0.864  0.00  0.00    +0.002 A 
ATOM     19  C   UNL     1       3.074  -4.532  -0.829  0.00  0.00    +0.028 A 
ENDBRANCH  11  14
ENDBRANCH   2   3
BRANCH   1  23
ATOM     20  C   UNL     1      -3.662   3.102   0.038  0.00  0.00    +0.043 A 
ATOM     21  C   UNL     1      -2.447   3.814   0.075  0.00  0.00    +0.018 A 
ATOM     22  C   UNL     1      -1.267   3.147   0.069  0.00  0.00    +0.009 A 
ATOM     23  C   UNL     1      -1.257   1.732   0.024  0.00  0.00    -0.023 A 
ATOM     24  C   UNL     1      -2.479   1.019  -0.019  0.00  0.00    +0.041 A 
ATOM     25  C   UNL     1      -3.656   1.694  -0.007  0.00  0.00    +0.140 A 
BRANCH  25  26
ATOM     26  N   UNL     1      -4.935   0.950  -0.046  0.00  0.00    +0.058 N 
ATOM     27  O   UNL     1      -4.930  -0.366  -0.088  0.00  0.00    -0.126 OA
ATOM     28  O   UNL     1      -6.078   1.604  -0.039  0.00  0.00    -0.126 OA
ENDBRANCH  25  26
BRANCH  20  29
ATOM     29  S   UNL     1      -5.193   3.974   0.047  0.00  0.00    -0.087 S 
BRANCH  29  34
ATOM     30  C   UNL     1      -6.639   3.618  -5.804  0.00  0.00    +0.044 C 
ATOM     31  C   UNL     1      -6.278   3.707  -4.344  0.00  0.00    -0.050 A 
ATOM     32  C   UNL     1      -7.072   4.443  -3.480  0.00  0.00    +0.004 A 
ATOM     33  C   UNL     1      -6.747   4.527  -2.143  0.00  0.00    +0.015 A 
ATOM     34  C   UNL     1      -5.615   3.870  -1.660  0.00  0.00    +0.013 A 
ATOM     35  C   UNL     1      -4.816   3.135  -2.535  0.00  0.00    +0.015 A 
ATOM     36  C   UNL     1      -5.154   3.052  -3.870  0.00  0.00    +0.004 A 
ENDBRANCH  29  34
ENDBRANCH  20  29
ENDBRANCH   1  23
TORSDOF 6
