REMARK  Name = ZINC65115143
REMARK  5 active torsions:
REMARK  status: ('A' for Active; 'I' for Inactive)
REMARK    1  A    between atoms: C_4  and  C_11
REMARK    2  A    between atoms: C_17  and  C_19
REMARK    3  A    between atoms: C_19  and  N_20
REMARK    4  A    between atoms: N_23  and  C_24
REMARK    5  A    between atoms: C_24  and  C_25
REMARK                            x       y       z     vdW  Elec       q    Type
REMARK                         _______ _______ _______ _____ _____    ______ ____
ROOT
ATOM      1  C   UNL     1       4.367   3.084  -0.024  0.00  0.00    +0.024 C 
ATOM      2  C   UNL     1       5.215   3.284  -1.282  0.00  0.00    +0.027 C 
ATOM      3  C   UNL     1       5.776   4.710  -1.294  0.00  0.00    +0.108 C 
ATOM      4  N   UNL     1       6.497   4.945  -0.036  0.00  0.00    -0.300 N 
ATOM      5  C   UNL     1       5.802   4.696   1.234  0.00  0.00    +0.108 C 
ATOM      6  C   UNL     1       5.241   3.271   1.218  0.00  0.00    +0.027 C 
ATOM      7  C   UNL     1       7.772   5.381  -0.047  0.00  0.00    +0.233 C 
ATOM      8  O   UNL     1       8.335   5.583  -1.102  0.00  0.00    -0.274 OA
ENDROOT
BRANCH   1  12
ATOM      9  C   UNL     1      -0.017   1.382   0.010  0.00  0.00    +0.020 A 
ATOM     10  C   UNL     1       1.178   2.077   0.002  0.00  0.00    +0.013 A 
ATOM     11  C   UNL     1       2.365   1.342  -0.013  0.00  0.00    +0.022 A 
ATOM     12  C   UNL     1       3.786   1.694  -0.025  0.00  0.00    -0.018 A 
ATOM     13  C   UNL     1       4.473   0.541  -0.038  0.00  0.00    +0.089 A 
ATOM     14  N   UNL     1       3.606  -0.519  -0.036  0.00  0.00    -0.346 N 
ATOM     15  H   UNL     1       3.868  -1.453  -0.043  0.00  0.00    +0.167 HD
ATOM     16  C   UNL     1       2.309  -0.065  -0.020  0.00  0.00    +0.138 A 
ATOM     17  N   UNL     1       1.132  -0.678  -0.012  0.00  0.00    -0.237 NA
ATOM     18  C   UNL     1       0.002  -0.004   0.002  0.00  0.00    +0.113 A 
ENDBRANCH   1  12
BRANCH   7  19
ATOM     19  C   UNL     1       8.498   5.618   1.252  0.00  0.00    +0.201 C 
BRANCH  19  20
ATOM     20  N   UNL     1       9.859   6.086   0.973  0.00  0.00    -0.291 N 
ATOM     21  C   UNL     1      10.698   6.364   1.990  0.00  0.00    +0.300 C 
ATOM     22  O   UNL     1      10.326   6.227   3.139  0.00  0.00    -0.253 OA
ATOM     23  N   UNL     1      11.949   6.793   1.733  0.00  0.00    -0.299 N 
ATOM     24  H   UNL     1      10.155   6.195   0.055  0.00  0.00    +0.151 HD
ATOM     25  H   UNL     1      12.246   6.903   0.816  0.00  0.00    +0.150 HD
BRANCH  23  26
ATOM     26  C   UNL     1      12.861   7.096   2.839  0.00  0.00    +0.109 C 
BRANCH  26  27
ATOM     27  C   UNL     1      14.207   7.560   2.277  0.00  0.00    +0.006 C 
ATOM     28  C   UNL     1      14.914   6.390   1.564  0.00  0.00    +0.005 C 
ATOM     29  C   UNL     1      16.413   6.590   1.900  0.00  0.00    +0.000 C 
ATOM     30  C   UNL     1      16.371   7.082   3.368  0.00  0.00    +0.000 C 
ATOM     31  C   UNL     1      15.133   8.000   3.425  0.00  0.00    +0.005 C 
ENDBRANCH  26  27
ENDBRANCH  23  26
ENDBRANCH  19  20
ENDBRANCH   7  19
TORSDOF 5
