REMARK  Name = ZINC20618081
REMARK  5 active torsions:
REMARK  status: ('A' for Active; 'I' for Inactive)
REMARK    1  A    between atoms: C_3  and  N_22
REMARK    2  A    between atoms: C_6  and  C_7
REMARK    3  A    between atoms: N_9  and  C_10
REMARK    4  A    between atoms: C_10  and  C_11
REMARK    5  A    between atoms: N_15  and  C_17
REMARK                            x       y       z     vdW  Elec       q    Type
REMARK                         _______ _______ _______ _____ _____    ______ ____
ROOT
ATOM      1  C   UNL     1       1.386   1.863   0.467  0.00  0.00    +0.015 A 
ATOM      2  C   UNL     1       0.158   1.263   0.300  0.00  0.00    +0.028 A 
ATOM      3  C   UNL     1       0.069  -0.121   0.178  0.00  0.00    +0.067 A 
ATOM      4  C   UNL     1       1.220  -0.902   0.225  0.00  0.00    +0.028 A 
ATOM      5  C   UNL     1       2.451  -0.308   0.391  0.00  0.00    +0.015 A 
ATOM      6  C   UNL     1       2.544   1.081   0.513  0.00  0.00    +0.037 A 
ENDROOT
BRANCH   3   7
ATOM      7  N   UNL     1      -1.175  -0.725   0.011  0.00  0.00    -0.226 NA
ATOM      8  C   UNL     1      -1.276  -1.912  -0.681  0.00  0.00    +0.155 C 
ATOM      9  N   UNL     1      -0.329  -2.531  -1.312  0.00  0.00    -0.318 N 
ATOM     10  C   UNL     1      -0.562  -3.773  -2.024  0.00  0.00    +0.108 C 
ATOM     11  C   UNL     1      -0.135  -3.592  -3.514  0.00  0.00    +0.189 C 
ATOM     12  S   UNL     1      -1.375  -4.632  -4.398  0.00  0.00    -0.028 S 
ATOM     13  O   UNL     1      -0.959  -5.991  -4.364  0.00  0.00    -0.174 OA
ATOM     14  O   UNL     1      -1.699  -4.024  -5.641  0.00  0.00    -0.174 OA
ATOM     15  C   UNL     1      -2.772  -4.390  -3.216  0.00  0.00    +0.182 C 
ATOM     16  C   UNL     1      -2.009  -4.269  -1.883  0.00  0.00    +0.097 C 
ATOM     17  S   UNL     1      -2.739  -2.907  -0.897  0.00  0.00    -0.084 S 
ATOM     18  H   UNL     1       0.677  -2.086  -1.297  0.00  0.00    +0.148 HD
ENDBRANCH   3   7
BRANCH   6  19
ATOM     19  C   UNL     1       3.861   1.721   0.692  0.00  0.00    +0.244 C 
ATOM     20  O   UNL     1       4.867   1.040   0.732  0.00  0.00    -0.270 OA
ATOM     21  N   UNL     1       3.949   3.061   0.810  0.00  0.00    -0.311 N 
ATOM     22  H   UNL     1       3.039   3.677   0.773  0.00  0.00    +0.149 HD
BRANCH  21  23
ATOM     23  C   UNL     1       5.257   3.696   0.987  0.00  0.00    +0.106 C 
BRANCH  23  24
ATOM     24  C   UNL     1       5.078   5.212   1.094  0.00  0.00    -0.012 C 
ATOM     25  C   UNL     1       4.636   5.797  -0.267  0.00  0.00    -0.015 C 
ATOM     26  C   UNL     1       5.428   7.127  -0.345  0.00  0.00    -0.078 C 
ATOM     27  N   UNL     1       6.736   6.780   0.266  0.00  0.00    +0.382 N 
ATOM     28  C   UNL     1       6.425   5.889   1.405  0.00  0.00    -0.074 C 
ATOM     29  H   UNL     1       7.409   6.293  -0.455  0.00  0.00    -0.081 HD
BRANCH  27  30
ATOM     30  C   UNL     1       7.442   7.987   0.719  0.00  0.00    -0.069 C 
ATOM     31  C   UNL     1       7.711   8.922  -0.477  0.00  0.00    -0.015 C 
ATOM     32  C   UNL     1       9.108   9.523  -0.183  0.00  0.00    -0.002 C 
ATOM     33  C   UNL     1       9.872   8.325   0.434  0.00  0.00    -0.002 C 
ATOM     34  C   UNL     1       8.816   7.607   1.299  0.00  0.00    -0.015 C 
ENDBRANCH  27  30
ENDBRANCH  23  24
ENDBRANCH  21  23
ENDBRANCH   6  19
TORSDOF 5
