REMARK  Name = ZINC16621542
REMARK  8 active torsions:
REMARK  status: ('A' for Active; 'I' for Inactive)
REMARK    1  A    between atoms: C_1  and  C_2
REMARK    2  A    between atoms: C_6  and  N_9
REMARK    3  A    between atoms: C_7  and  C_8
REMARK    4  A    between atoms: C_13  and  C_15
REMARK    5  A    between atoms: C_15  and  S_16
REMARK    6  A    between atoms: S_16  and  C_17
REMARK    7  A    between atoms: N_26  and  C_27
REMARK    8  A    between atoms: C_27  and  C_28
REMARK                            x       y       z     vdW  Elec       q    Type
REMARK                         _______ _______ _______ _____ _____    ______ ____
ROOT
ATOM      1  N   UNL     1      -6.614  -5.329  -2.489  0.00  0.00    -0.269 N 
ATOM      2  C   UNL     1      -5.727  -4.316  -2.528  0.00  0.00    +0.310 C 
ATOM      3  O   UNL     1      -5.130  -4.069  -3.558  0.00  0.00    -0.252 OA
ATOM      4  N   UNL     1      -5.500  -3.576  -1.425  0.00  0.00    -0.239 N 
ATOM      5  C   UNL     1      -4.613  -2.562  -1.464  0.00  0.00    +0.231 C 
ATOM      6  O   UNL     1      -4.018  -2.316  -2.491  0.00  0.00    -0.274 OA
ATOM      7  H   UNL     1      -7.029  -5.579  -1.649  0.00  0.00    +0.156 HD
ATOM      8  H   UNL     1      -5.976  -3.772  -0.603  0.00  0.00    +0.159 HD
ENDROOT
BRANCH   1  14
ATOM      9  C   UNL     1      -8.233  -9.425  -4.675  0.00  0.00    +0.044 C 
ATOM     10  C   UNL     1      -7.723  -8.009  -4.750  0.00  0.00    -0.046 A 
ATOM     11  C   UNL     1      -7.575  -7.392  -5.979  0.00  0.00    +0.004 A 
ATOM     12  C   UNL     1      -7.107  -6.093  -6.052  0.00  0.00    +0.002 A 
ATOM     13  C   UNL     1      -6.788  -5.407  -4.897  0.00  0.00    +0.023 A 
ATOM     14  C   UNL     1      -6.937  -6.022  -3.661  0.00  0.00    +0.038 A 
ATOM     15  C   UNL     1      -7.401  -7.330  -3.591  0.00  0.00    -0.026 A 
ATOM     16  C   UNL     1      -7.558  -8.004  -2.253  0.00  0.00    +0.046 C 
ENDBRANCH   1  14
BRANCH   5  17
ATOM     17  C   UNL     1      -4.360  -1.734  -0.230  0.00  0.00    +0.173 C 
BRANCH  17  18
ATOM     18  S   UNL     1      -3.127  -0.462  -0.599  0.00  0.00    -0.078 S 
BRANCH  18  19
ATOM     19  C   UNL     1      -3.027   0.333   0.970  0.00  0.00    +0.173 A 
ATOM     20  N   UNL     1      -3.768  -0.104   1.968  0.00  0.00    -0.216 NA
ATOM     21  C   UNL     1      -3.719   0.478   3.160  0.00  0.00    +0.116 A 
ATOM     22  C   UNL     1      -2.877   1.577   3.420  0.00  0.00    +0.072 A 
ATOM     23  C   UNL     1      -2.946   2.093   4.776  0.00  0.00    +0.023 A 
ATOM     24  C   UNL     1      -3.773   1.513   5.657  0.00  0.00    +0.048 A 
ATOM     25  S   UNL     1      -4.534   0.206   4.712  0.00  0.00    -0.077 S 
ATOM     26  C   UNL     1      -2.081   2.025   2.319  0.00  0.00    +0.263 A 
ATOM     27  O   UNL     1      -1.322   2.970   2.450  0.00  0.00    -0.267 OA
ATOM     28  N   UNL     1      -2.179   1.389   1.137  0.00  0.00    -0.283 N 
BRANCH  28  29
ATOM     29  C   UNL     1      -1.366   1.843   0.007  0.00  0.00    +0.154 C 
BRANCH  29  30
ATOM     30  C   UNL     1      -0.048   1.112   0.010  0.00  0.00    -0.013 C 
ATOM     31  C   UNL     1       1.075   1.785   0.006  0.00  0.00    +0.005 C 
ENDBRANCH  29  30
ENDBRANCH  28  29
ENDBRANCH  18  19
ENDBRANCH  17  18
ENDBRANCH   5  17
TORSDOF 6
