REMARK  Name = ZINC36658182
REMARK  8 active torsions:
REMARK  status: ('A' for Active; 'I' for Inactive)
REMARK    1  A    between atoms: C_1  and  C_2
REMARK    2  A    between atoms: C_2  and  C_3
REMARK    3  A    between atoms: C_6  and  C_9
REMARK    4  A    between atoms: C_9  and  C_10
REMARK    5  A    between atoms: C_16  and  C_18
REMARK    6  A    between atoms: C_18  and  C_19
REMARK    7  A    between atoms: C_22  and  C_25
REMARK    8  A    between atoms: C_25  and  C_26
REMARK                            x       y       z     vdW  Elec       q    Type
REMARK                         _______ _______ _______ _____ _____    ______ ____
ROOT
ATOM      1  C   UNL     1       3.258  -0.746   5.509  0.00  0.00    +0.223 A 
ATOM      2  N   UNL     1       2.591  -0.170   6.467  0.00  0.00    -0.111 NA
ATOM      3  N   UNL     1       3.286   0.797   6.954  0.00  0.00    -0.092 NA
ATOM      4  C   UNL     1       4.429   0.872   6.319  0.00  0.00    +0.314 A 
ATOM      5  O   UNL     1       4.437  -0.106   5.394  0.00  0.00    -0.409 OA
ATOM      6  N   UNL     1       5.444   1.787   6.557  0.00  0.00    -0.238 N 
ATOM      7  C   UNL     1       5.301   2.715   7.524  0.00  0.00    +0.225 C 
ATOM      8  O   UNL     1       4.285   2.750   8.185  0.00  0.00    -0.275 OA
ATOM      9  H   UNL     1       6.257   1.758   6.029  0.00  0.00    +0.159 HD
ENDROOT
BRANCH   1  10
ATOM     10  C   UNL     1       2.797  -1.919   4.683  0.00  0.00    +0.132 C 
BRANCH  10  14
ATOM     11  C   UNL     1       0.731  -0.503   1.223  0.00  0.00    -0.048 A 
ATOM     12  C   UNL     1       2.097  -0.710   1.176  0.00  0.00    +0.004 A 
ATOM     13  C   UNL     1       2.766  -1.167   2.296  0.00  0.00    +0.004 A 
ATOM     14  C   UNL     1       2.068  -1.419   3.463  0.00  0.00    -0.038 A 
ATOM     15  C   UNL     1       0.702  -1.212   3.510  0.00  0.00    +0.004 A 
ATOM     16  C   UNL     1       0.034  -0.750   2.391  0.00  0.00    +0.004 A 
BRANCH  11  18
ATOM     17  C   UNL     1      -0.019   1.526   0.010  0.00  0.00    +0.009 C 
ATOM     18  C   UNL     1       0.002  -0.004   0.002  0.00  0.00    +0.032 C 
ENDBRANCH  11  18
ENDBRANCH  10  14
ENDBRANCH   1  10
BRANCH   7  19
ATOM     19  C   UNL     1       6.404   3.708   7.784  0.00  0.00    +0.131 C 
BRANCH  19  20
ATOM     20  C   UNL     1       5.998   4.628   8.906  0.00  0.00    -0.039 A 
ATOM     21  C   UNL     1       5.316   5.799   8.628  0.00  0.00    +0.004 A 
ATOM     22  C   UNL     1       4.944   6.643   9.657  0.00  0.00    +0.004 A 
ATOM     23  C   UNL     1       5.252   6.316  10.965  0.00  0.00    -0.048 A 
ATOM     24  C   UNL     1       5.933   5.146  11.243  0.00  0.00    +0.004 A 
ATOM     25  C   UNL     1       6.302   4.299  10.214  0.00  0.00    +0.004 A 
BRANCH  23  26
ATOM     26  C   UNL     1       4.846   7.237  12.087  0.00  0.00    +0.032 C 
ATOM     27  C   UNL     1       3.454   6.848  12.588  0.00  0.00    +0.009 C 
ENDBRANCH  23  26
ENDBRANCH  19  20
ENDBRANCH   7  19
TORSDOF 6
