REMARK  Name = ZINC46811680
REMARK  13 active torsions:
REMARK  status: ('A' for Active; 'I' for Inactive)
REMARK    1  A    between atoms: C_1  and  C_2
REMARK    2  A    between atoms: C_3  and  C_28
REMARK    3  A    between atoms: C_4  and  C_27
REMARK    4  A    between atoms: C_7  and  C_8
REMARK    5  A    between atoms: C_13  and  C_16
REMARK    6  A    between atoms: C_16  and  N_17
REMARK    7  A    between atoms: C_19  and  C_26
REMARK    8  A    between atoms: C_22  and  C_25
REMARK    9  A    between atoms: C_28  and  O_30
REMARK   10  A    between atoms: O_30  and  C_31
REMARK   11  A    between atoms: C_31  and  C_32
REMARK   12  A    between atoms: C_32  and  O_33
REMARK   13  A    between atoms: O_33  and  C_34
REMARK                            x       y       z     vdW  Elec       q    Type
REMARK                         _______ _______ _______ _____ _____    ______ ____
ROOT
ATOM      1  C   UNL     1       0.031  -0.383   2.494  0.00  0.00    +0.266 C 
ATOM      2  O   UNL     1       0.017   0.804   2.761  0.00  0.00    -0.268 OA
ATOM      3  N   UNL     1       0.054  -1.296   3.486  0.00  0.00    -0.259 N 
ATOM      4  C   UNL     1       0.061  -0.882   4.811  0.00  0.00    +0.165 A 
ATOM      5  N   UNL     1       0.087  -1.622   5.899  0.00  0.00    -0.231 NA
ATOM      6  C   UNL     1       0.090  -1.071   7.099  0.00  0.00    +0.034 A 
ATOM      7  C   UNL     1       0.065   0.283   7.155  0.00  0.00    +0.070 A 
ATOM      8  S   UNL     1       0.045   0.688   5.416  0.00  0.00    -0.060 S 
ATOM      9  H   UNL     1       0.065  -2.243   3.273  0.00  0.00    +0.157 HD
ENDROOT
BRANCH   1  16
ATOM     10  C   UNL     1      -0.018   1.503   0.010  0.00  0.00    +0.047 C 
ATOM     11  C   UNL     1       0.002  -0.004   0.002  0.00  0.00    -0.006 A 
ATOM     12  C   UNL     1       0.008  -0.839  -1.139  0.00  0.00    +0.083 A 
ATOM     13  C   UNL     1       0.029  -2.145  -0.686  0.00  0.00    +0.028 A 
ATOM     14  N   UNL     1       0.035  -2.128   0.656  0.00  0.00    -0.354 N 
ATOM     15  H   UNL     1       0.049  -2.911   1.228  0.00  0.00    +0.166 HD
ATOM     16  C   UNL     1       0.024  -0.821   1.094  0.00  0.00    +0.106 A 
ATOM     17  C   UNL     1       0.042  -3.378  -1.552  0.00  0.00    +0.064 C 
BRANCH  12  18
ATOM     18  C   UNL     1      -0.004  -0.400  -2.544  0.00  0.00    +0.341 C 
ATOM     19  O   UNL     1       1.043  -0.204  -3.129  0.00  0.00    -0.245 OA
BRANCH  18  20
ATOM     20  O   UNL     1      -1.177  -0.215  -3.182  0.00  0.00    -0.459 OA
BRANCH  20  21
ATOM     21  C   UNL     1      -1.115   0.211  -4.545  0.00  0.00    +0.260 C 
BRANCH  21  22
ATOM     22  C   UNL     1      -2.533   0.366  -5.096  0.00  0.00    +0.200 C 
BRANCH  22  23
ATOM     23  O   UNL     1      -3.203   1.420  -4.401  0.00  0.00    -0.380 OA
ATOM     24  C   UNL     1      -4.543   1.648  -4.842  0.00  0.00    +0.194 C 
ENDBRANCH  22  23
ENDBRANCH  21  22
ENDBRANCH  20  21
ENDBRANCH  18  20
ENDBRANCH  12  18
ENDBRANCH   1  16
BRANCH   6  25
ATOM     25  C   UNL     1       0.119  -1.911   8.350  0.00  0.00    -0.022 C 
BRANCH  25  26
ATOM     26  N   UNL     1      -1.249  -2.310   8.704  0.00  0.00    +0.384 N 
ATOM     27  C   UNL     1      -2.033  -1.116   9.045  0.00  0.00    -0.075 C 
ATOM     28  C   UNL     1      -3.480  -1.518   9.337  0.00  0.00    -0.031 C 
ATOM     29  C   UNL     1      -3.505  -2.500  10.511  0.00  0.00    +0.003 C 
ATOM     30  C   UNL     1      -2.625  -3.707  10.174  0.00  0.00    -0.031 C 
ATOM     31  C   UNL     1      -1.209  -3.224   9.851  0.00  0.00    -0.075 C 
ATOM     32  C   UNL     1      -2.582  -4.658  11.371  0.00  0.00    +0.005 C 
ATOM     33  C   UNL     1      -4.084  -2.184   8.099  0.00  0.00    +0.005 C 
ATOM     34  H   UNL     1      -1.677  -2.777   7.918  0.00  0.00    -0.081 HD
ENDBRANCH  25  26
ENDBRANCH   6  25
TORSDOF 8
