REMARK  Name = ZINC39264822
REMARK  8 active torsions:
REMARK  status: ('A' for Active; 'I' for Inactive)
REMARK    1  A    between atoms: C_1  and  C_2
REMARK    2  A    between atoms: C_8  and  C_10
REMARK    3  A    between atoms: C_8  and  C_11
REMARK    4  A    between atoms: N_18  and  C_21
REMARK    5  A    between atoms: C_23  and  O_37
REMARK    6  A    between atoms: C_25  and  O_36
REMARK    7  A    between atoms: C_27  and  C_30
REMARK    8  A    between atoms: N_32  and  C_33
REMARK                            x       y       z     vdW  Elec       q    Type
REMARK                         _______ _______ _______ _____ _____    ______ ____
ROOT
ATOM      1  C   UNL     1      -0.147   1.647   0.320  0.00  0.00    +0.007 C 
ATOM      2  C   UNL     1      -0.077   0.125   0.175  0.00  0.00    -0.012 C 
ATOM      3  C   UNL     1       0.565  -0.193  -1.109  0.00  0.00    +0.022 C 
ATOM      4  C   UNL     1       0.566  -1.723  -1.346  0.00  0.00    +0.107 C 
ATOM      5  N   UNL     1       1.504  -2.353  -0.444  0.00  0.00    -0.313 N 
ATOM      6  C   UNL     1       1.118  -2.845   0.893  0.00  0.00    +0.113 C 
ATOM      7  C   UNL     1       0.185  -1.864   1.625  0.00  0.00    -0.019 C 
ATOM      8  C   UNL     1       0.644  -0.444   1.393  0.00  0.00    +0.011 C 
ATOM      9  C   UNL     1      -1.242  -2.031   1.097  0.00  0.00    +0.012 C 
ATOM     10  C   UNL     1       0.206  -2.166   3.125  0.00  0.00    +0.012 C 
ATOM     11  C   UNL     1       2.819  -2.500  -0.851  0.00  0.00    +0.152 A 
ATOM     12  C   UNL     1       3.236  -2.042  -2.112  0.00  0.00    +0.148 A 
ATOM     13  C   UNL     1       4.584  -2.219  -2.469  0.00  0.00    +0.167 A 
ATOM     14  N   UNL     1       5.408  -2.808  -1.609  0.00  0.00    -0.216 NA
ATOM     15  C   UNL     1       4.972  -3.221  -0.437  0.00  0.00    +0.225 A 
ATOM     16  N   UNL     1       3.716  -3.072  -0.056  0.00  0.00    -0.218 NA
ATOM     17  N   UNL     1       4.714  -1.691  -3.728  0.00  0.00    -0.285 N 
ATOM     18  C   UNL     1       3.491  -1.219  -4.102  0.00  0.00    +0.203 A 
ATOM     19  N   UNL     1       2.625  -1.426  -3.152  0.00  0.00    -0.231 NA
ENDROOT
BRANCH  17  20
ATOM     20  C   UNL     1       5.942  -1.642  -4.526  0.00  0.00    +0.254 C 
ATOM     21  C   UNL     1       6.115  -2.951  -5.327  0.00  0.00    +0.196 C 
ATOM     22  C   UNL     1       6.713  -2.490  -6.675  0.00  0.00    +0.185 C 
ATOM     23  C   UNL     1       6.831  -0.957  -6.528  0.00  0.00    +0.237 C 
ATOM     24  O   UNL     1       5.852  -0.604  -5.525  0.00  0.00    -0.339 OA
BRANCH  23  25
ATOM     25  C   UNL     1       6.514  -0.279  -7.836  0.00  0.00    +0.245 C 
ATOM     26  O   UNL     1       5.538   0.436  -7.928  0.00  0.00    -0.273 OA
ATOM     27  N   UNL     1       7.314  -0.468  -8.904  0.00  0.00    -0.310 N 
ATOM     28  H   UNL     1       8.094  -1.040  -8.831  0.00  0.00    +0.149 HD
BRANCH  27  29
ATOM     29  C   UNL     1       7.005   0.191 -10.176  0.00  0.00    +0.073 C 
ATOM     30  C   UNL     1       7.133  -0.642 -11.453  0.00  0.00    +0.024 C 
ATOM     31  C   UNL     1       8.166   0.442 -11.141  0.00  0.00    +0.024 C 
ENDBRANCH  27  29
ENDBRANCH  23  25
BRANCH  22  32
ATOM     32  O   UNL     1       8.001  -3.076  -6.878  0.00  0.00    -0.386 OA
ATOM     33  H   UNL     1       8.422  -2.821  -7.710  0.00  0.00    +0.210 HD
ENDBRANCH  22  32
BRANCH  21  34
ATOM     34  O   UNL     1       7.014  -3.835  -4.654  0.00  0.00    -0.385 OA
ATOM     35  H   UNL     1       7.159  -4.674  -5.113  0.00  0.00    +0.210 HD
ENDBRANCH  21  34
ENDBRANCH  17  20
TORSDOF 5
