REMARK  Name = ZINC02670607
REMARK  8 active torsions:
REMARK  status: ('A' for Active; 'I' for Inactive)
REMARK    1  A    between atoms: C_1  and  C_2
REMARK    2  A    between atoms: C_7  and  N_8
REMARK    3  A    between atoms: C_9  and  C_11
REMARK    4  A    between atoms: C_11  and  S_12
REMARK    5  A    between atoms: S_12  and  C_13
REMARK    6  A    between atoms: C_14  and  C_34
REMARK    7  A    between atoms: C_18  and  C_27
REMARK    8  A    between atoms: N_20  and  C_21
REMARK                            x       y       z     vdW  Elec       q    Type
REMARK                         _______ _______ _______ _____ _____    ______ ____
ROOT
ATOM      1  C   UNL     1      -3.461   3.199  -2.087  0.00  0.00    +0.093 C 
ATOM      2  C   UNL     1      -2.843   4.354  -2.593  0.00  0.00    +0.141 C 
ATOM      3  C   UNL     1      -2.402   5.377  -1.643  0.00  0.00    +0.258 C 
ATOM      4  O   UNL     1      -2.118   6.495  -2.034  0.00  0.00    -0.269 OA
ATOM      5  N   UNL     1      -2.312   5.075  -0.332  0.00  0.00    -0.288 N 
ATOM      6  C   UNL     1      -2.603   3.720   0.142  0.00  0.00    +0.197 C 
ATOM      7  N   UNL     1      -3.607   3.097  -0.726  0.00  0.00    -0.270 N 
ATOM      8  H   UNL     1      -2.053   5.761   0.303  0.00  0.00    +0.151 HD
ENDROOT
BRANCH   6   9
ATOM      9  C   UNL     1      -1.339   2.899   0.117  0.00  0.00    -0.009 A 
ATOM     10  C   UNL     1      -1.408   1.532  -0.081  0.00  0.00    +0.008 A 
ATOM     11  C   UNL     1      -0.250   0.778  -0.098  0.00  0.00    +0.020 A 
ATOM     12  C   UNL     1       0.978   1.392   0.072  0.00  0.00    +0.041 A 
ATOM     13  C   UNL     1       1.046   2.760   0.266  0.00  0.00    +0.020 A 
ATOM     14  C   UNL     1      -0.113   3.513   0.288  0.00  0.00    +0.008 A 
ATOM     15 CL   UNL     1       2.433   0.445   0.043  0.00  0.00    -0.084 Cl
ENDBRANCH   6   9
BRANCH   7  16
ATOM     16  C   UNL     1      -4.694   2.410  -0.177  0.00  0.00    +0.036 A 
ATOM     17  C   UNL     1      -5.988   2.721  -0.576  0.00  0.00    +0.023 A 
ATOM     18  C   UNL     1      -7.059   2.037  -0.035  0.00  0.00    +0.002 A 
ATOM     19  C   UNL     1      -6.845   1.051   0.911  0.00  0.00    +0.000 A 
ATOM     20  C   UNL     1      -5.559   0.743   1.315  0.00  0.00    +0.002 A 
ATOM     21  C   UNL     1      -4.483   1.419   0.774  0.00  0.00    +0.023 A 
ENDBRANCH   7  16
BRANCH   2  22
ATOM     22  C   UNL     1      -2.649   4.527  -4.002  0.00  0.00    +0.107 C 
ATOM     23  N   UNL     1      -2.495   4.664  -5.119  0.00  0.00    -0.191 NA
ENDBRANCH   2  22
BRANCH   1  24
ATOM     24  S   UNL     1      -4.030   1.924  -3.163  0.00  0.00    -0.099 S 
BRANCH  24  25
ATOM     25  C   UNL     1      -3.122   0.512  -2.484  0.00  0.00    +0.171 C 
BRANCH  25  27
ATOM     26  N   UNL     1      -2.783  -1.876  -3.032  0.00  0.00    -0.285 N 
ATOM     27  C   UNL     1      -3.362  -0.700  -3.346  0.00  0.00    +0.227 C 
ATOM     28  O   UNL     1      -4.076  -0.618  -4.323  0.00  0.00    -0.275 OA
ATOM     29  H   UNL     1      -2.152  -1.925  -2.296  0.00  0.00    +0.155 HD
BRANCH  26  36
ATOM     30  C   UNL     1      -0.874  -3.985  -3.091  0.00  0.00    +0.045 C 
ATOM     31  C   UNL     1      -2.188  -4.080  -3.821  0.00  0.00    -0.029 A 
ATOM     32  C   UNL     1      -2.498  -5.216  -4.542  0.00  0.00    +0.005 A 
ATOM     33  C   UNL     1      -3.702  -5.301  -5.218  0.00  0.00    +0.000 A 
ATOM     34  C   UNL     1      -4.601  -4.252  -5.169  0.00  0.00    +0.002 A 
ATOM     35  C   UNL     1      -4.300  -3.115  -4.445  0.00  0.00    +0.023 A 
ATOM     36  C   UNL     1      -3.091  -3.026  -3.766  0.00  0.00    +0.036 A 
ENDBRANCH  26  36
ENDBRANCH  25  27
ENDBRANCH  24  25
ENDBRANCH   1  24
TORSDOF 7
