REMARK  Name = ZINC45820076
REMARK  9 active torsions:
REMARK  status: ('A' for Active; 'I' for Inactive)
REMARK    1  A    between atoms: C_3  and  C_6
REMARK    2  A    between atoms: C_6  and  C_8
REMARK    3  A    between atoms: C_6  and  N_29
REMARK    4  A    between atoms: C_8  and  N_9
REMARK    5  A    between atoms: C_10  and  C_12
REMARK    6  A    between atoms: C_15  and  S_18
REMARK    7  A    between atoms: S_18  and  N_21
REMARK    8  A    between atoms: N_21  and  C_22
REMARK    9  A    between atoms: C_22  and  C_23
REMARK                            x       y       z     vdW  Elec       q    Type
REMARK                         _______ _______ _______ _____ _____    ______ ____
ROOT
ATOM      1  N   UNL     1       5.600  -0.133   1.208  0.00  0.00    -0.312 N 
ATOM      2  C   UNL     1       6.286  -0.611   2.265  0.00  0.00    +0.244 C 
ATOM      3  O   UNL     1       5.732  -0.743   3.339  0.00  0.00    -0.270 OA
ATOM      4  H   UNL     1       6.042  -0.028   0.350  0.00  0.00    +0.149 HD
ENDROOT
BRANCH   2   5
ATOM      5  C   UNL     1       7.711  -0.975   2.118  0.00  0.00    +0.037 A 
ATOM      6  C   UNL     1       8.351  -0.820   0.888  0.00  0.00    +0.015 A 
ATOM      7  C   UNL     1       9.682  -1.161   0.758  0.00  0.00    +0.029 A 
ATOM      8  C   UNL     1      10.381  -1.656   1.844  0.00  0.00    +0.105 A 
ATOM      9  C   UNL     1       9.752  -1.813   3.066  0.00  0.00    +0.029 A 
ATOM     10  C   UNL     1       8.424  -1.470   3.211  0.00  0.00    +0.015 A 
BRANCH   8  11
ATOM     11  S   UNL     1      12.080  -2.090   1.669  0.00  0.00    +0.058 S 
ATOM     12  O   UNL     1      12.363  -3.041   2.686  0.00  0.00    -0.153 OA
ATOM     13  O   UNL     1      12.290  -2.364   0.290  0.00  0.00    -0.153 OA
BRANCH  11  14
ATOM     14  N   UNL     1      12.969  -0.739   2.023  0.00  0.00    -0.187 NA
ATOM     15  H   UNL     1      13.507  -0.317   1.335  0.00  0.00    +0.148 HD
BRANCH  14  16
ATOM     16  C   UNL     1      12.944  -0.180   3.377  0.00  0.00    +0.137 C 
BRANCH  16  17
ATOM     17  C   UNL     1      14.103   0.805   3.544  0.00  0.00    +0.134 C 
ATOM     18  C   UNL     1      14.116   1.382   4.982  0.00  0.00    +0.035 C 
ATOM     19  C   UNL     1      15.611   1.776   5.128  0.00  0.00    +0.031 C 
ATOM     20  C   UNL     1      16.322   0.677   4.308  0.00  0.00    +0.160 C 
ATOM     21  O   UNL     1      15.360   0.125   3.399  0.00  0.00    -0.375 OA
ENDBRANCH  16  17
ENDBRANCH  14  16
ENDBRANCH  11  14
ENDBRANCH   8  11
ENDBRANCH   2   5
BRANCH   1  22
ATOM     22  C   UNL     1       4.188   0.227   1.353  0.00  0.00    +0.097 C 
BRANCH  22  23
ATOM     23  C   UNL     1       3.623   0.638  -0.008  0.00  0.00    +0.016 C 
BRANCH  23  24
ATOM     24  N   UNL     1       4.453   1.708  -0.580  0.00  0.00    +0.387 N 
ATOM     25  C   UNL     1       4.443   2.867   0.321  0.00  0.00    -0.078 C 
ATOM     26  C   UNL     1       5.370   3.953  -0.228  0.00  0.00    -0.019 C 
ATOM     27  C   UNL     1       4.881   4.379  -1.616  0.00  0.00    -0.004 C 
ATOM     28  C   UNL     1       4.825   3.149  -2.526  0.00  0.00    -0.019 C 
ATOM     29  C   UNL     1       3.918   2.092  -1.891  0.00  0.00    -0.078 C 
ATOM     30  H   UNL     1       5.400   1.376  -0.687  0.00  0.00    -0.081 HD
ENDBRANCH  23  24
BRANCH  23  33
ATOM     31  C   UNL     1       3.022  -2.316  -2.128  0.00  0.00    +0.041 A 
ATOM     32  C   UNL     1       2.570  -1.327  -1.225  0.00  0.00    +0.043 A 
ATOM     33  C   UNL     1       3.629  -0.551  -0.934  0.00  0.00    +0.093 A 
ATOM     34  O   UNL     1       4.693  -1.015  -1.610  0.00  0.00    -0.469 OA
ATOM     35  C   UNL     1       4.331  -2.085  -2.335  0.00  0.00    +0.195 A 
ENDBRANCH  23  33
ENDBRANCH  22  23
ENDBRANCH   1  22
TORSDOF 9
