REMARK  Name = ZINC39673783
REMARK  10 active torsions:
REMARK  status: ('A' for Active; 'I' for Inactive)
REMARK    1  A    between atoms: C_1  and  C_2
REMARK    2  A    between atoms: C_2  and  C_3
REMARK    3  A    between atoms: C_3  and  C_4
REMARK    4  A    between atoms: C_4  and  C_6
REMARK    5  A    between atoms: C_4  and  N_7
REMARK    6  A    between atoms: C_8  and  C_10
REMARK    7  A    between atoms: C_21  and  C_23
REMARK    8  A    between atoms: C_24  and  C_34
REMARK    9  A    between atoms: C_27  and  C_28
REMARK   10  A    between atoms: C_30  and  C_33
REMARK                            x       y       z     vdW  Elec       q    Type
REMARK                         _______ _______ _______ _____ _____    ______ ____
ROOT
ATOM      1  C   UNL     1       0.393  -4.266   2.563  0.00  0.00    +0.100 C 
ATOM      2  C   UNL     1       1.643  -3.431   2.918  0.00  0.00    +0.121 C 
ATOM      3  N   UNL     1       2.600  -4.411   3.482  0.00  0.00    -0.296 N 
ATOM      4  C   UNL     1       2.433  -5.618   2.638  0.00  0.00    +0.115 C 
ATOM      5  C   UNL     1       0.915  -5.701   2.379  0.00  0.00    -0.004 C 
ATOM      6  C   UNL     1       0.649  -6.181   0.956  0.00  0.00    -0.010 C 
ATOM      7  C   UNL     1       1.124  -7.630   0.814  0.00  0.00    -0.082 C 
ATOM      8  N   UNL     1       0.413  -8.477   1.779  0.00  0.00    +0.379 N 
ATOM      9  C   UNL     1       0.748  -8.066   3.148  0.00  0.00    -0.082 C 
ATOM     10  C   UNL     1       0.257  -6.636   3.388  0.00  0.00    -0.010 C 
ATOM     11  C   UNL     1       3.434  -4.244   4.528  0.00  0.00    +0.252 C 
ATOM     12  O   UNL     1       4.167  -5.152   4.873  0.00  0.00    -0.270 OA
ATOM     13  H   UNL     1      -0.582  -8.386   1.636  0.00  0.00    -0.086 HD
ATOM     14  H   UNL     1       0.683  -9.440   1.643  0.00  0.00    -0.086 HD
ENDROOT
BRANCH  11  15
ATOM     15  C   UNL     1       3.460  -2.962   5.252  0.00  0.00    +0.108 A 
ATOM     16  C   UNL     1       2.669  -2.616   6.376  0.00  0.00    +0.093 A 
ATOM     17  N   UNL     1       2.977  -1.404   6.730  0.00  0.00    -0.082 NA
ATOM     18  O   UNL     1       3.975  -0.911   5.857  0.00  0.00    -0.352 OA
ATOM     19  C   UNL     1       4.266  -1.870   4.964  0.00  0.00    +0.201 A 
ATOM     20  C   UNL     1       1.649  -3.501   7.045  0.00  0.00    +0.070 C 
BRANCH  19  21
ATOM     21  C   UNL     1       5.260  -1.779   3.873  0.00  0.00    +0.152 A 
ATOM     22  C   UNL     1       6.086  -0.663   3.586  0.00  0.00    +0.079 A 
ATOM     23  C   UNL     1       6.849  -0.972   2.524  0.00  0.00    +0.135 A 
ATOM     24  O   UNL     1       6.543  -2.219   2.134  0.00  0.00    -0.359 OA
ATOM     25  N   UNL     1       5.540  -2.718   3.000  0.00  0.00    -0.075 NA
ATOM     26  C   UNL     1       7.872  -0.072   1.880  0.00  0.00    +0.089 C 
ENDBRANCH  19  21
ENDBRANCH  11  15
BRANCH   1  28
ATOM     27  N   UNL     1      -1.552  -3.902   1.077  0.00  0.00    -0.312 N 
ATOM     28  C   UNL     1      -0.227  -3.765   1.284  0.00  0.00    +0.218 C 
ATOM     29  O   UNL     1       0.467  -3.238   0.440  0.00  0.00    -0.275 OA
ATOM     30  H   UNL     1      -2.106  -4.324   1.752  0.00  0.00    +0.149 HD
BRANCH  27  31
ATOM     31  C   UNL     1      -2.154  -3.415  -0.166  0.00  0.00    +0.070 C 
ATOM     32  C   UNL     1      -2.023  -4.487  -1.250  0.00  0.00    +0.028 C 
BRANCH  31  33
ATOM     33  C   UNL     1      -3.634  -3.107   0.070  0.00  0.00    +0.022 C 
BRANCH  33  35
ATOM     34  C   UNL     1      -5.242  -1.642   1.299  0.00  0.00    +0.004 C 
ATOM     35  C   UNL     1      -3.762  -1.950   1.063  0.00  0.00    -0.002 C 
ENDBRANCH  33  35
ENDBRANCH  31  33
ENDBRANCH  27  31
ENDBRANCH   1  28
TORSDOF 6
