REMARK  Name = ZINC36553001
REMARK  13 active torsions:
REMARK  status: ('A' for Active; 'I' for Inactive)
REMARK    1  A    between atoms: C_1  and  C_2
REMARK    2  A    between atoms: C_2  and  C_3
REMARK    3  A    between atoms: C_2  and  C_4
REMARK    4  A    between atoms: C_2  and  C_5
REMARK    5  A    between atoms: C_5  and  C_6
REMARK    6  A    between atoms: C_6  and  C_7
REMARK    7  A    between atoms: C_6  and  C_8
REMARK    8  A    between atoms: C_6  and  N_9
REMARK    9  A    between atoms: C_10  and  C_12
REMARK   10  A    between atoms: C_12  and  C_14
REMARK   11  A    between atoms: C_12  and  N_21
REMARK   12  A    between atoms: N_21  and  C_22
REMARK   13  A    between atoms: C_29  and  C_31
REMARK                            x       y       z     vdW  Elec       q    Type
REMARK                         _______ _______ _______ _____ _____    ______ ____
ROOT
ATOM      1  C   UNL     1       5.269   0.288  -4.107  0.00  0.00    +0.197 C 
ENDROOT
BRANCH   1   2
ATOM      2  C   UNL     1       4.569   1.426  -4.805  0.00  0.00    -0.018 A 
ATOM      3  C   UNL     1       5.080   2.708  -4.718  0.00  0.00    +0.007 A 
ATOM      4  C   UNL     1       4.438   3.751  -5.359  0.00  0.00    +0.020 A 
ATOM      5  C   UNL     1       3.285   3.513  -6.085  0.00  0.00    +0.041 A 
ATOM      6  C   UNL     1       2.776   2.230  -6.171  0.00  0.00    +0.020 A 
ATOM      7  C   UNL     1       3.421   1.186  -5.536  0.00  0.00    +0.007 A 
ATOM      8 CL   UNL     1       2.479   4.824  -6.889  0.00  0.00    -0.084 Cl
ENDBRANCH   1   2
BRANCH   1  10
ATOM      9  N   UNL     1       3.996   0.561  -2.004  0.00  0.00    -0.308 N 
ATOM     10  C   UNL     1       5.195   0.492  -2.615  0.00  0.00    +0.239 C 
ATOM     11  O   UNL     1       6.214   0.594  -1.966  0.00  0.00    -0.273 OA
ATOM     12  H   UNL     1       3.181   0.480  -2.523  0.00  0.00    +0.149 HD
BRANCH   9  13
ATOM     13  C   UNL     1       3.924   0.759  -0.554  0.00  0.00    +0.030 C 
ATOM     14  C   UNL     1       4.747   1.989  -0.166  0.00  0.00    +0.031 C 
ATOM     15  C   UNL     1       4.482  -0.474   0.158  0.00  0.00    +0.031 C 
BRANCH  13  16
ATOM     16  C   UNL     1       2.466   0.971  -0.140  0.00  0.00    +0.031 C 
BRANCH  16  18
ATOM     17  C   UNL     1       1.379   1.127  -2.384  0.00  0.00    +0.010 C 
ATOM     18  C   UNL     1       1.785   1.912  -1.135  0.00  0.00    -0.036 C 
ATOM     19  C   UNL     1       2.755   3.028  -1.528  0.00  0.00    +0.010 C 
ATOM     20  C   UNL     1       0.539   2.522  -0.489  0.00  0.00    +0.010 C 
ENDBRANCH  16  18
ENDBRANCH  13  16
ENDBRANCH   9  13
ENDBRANCH   1  10
BRANCH   1  21
ATOM     21  N   UNL     1       6.673   0.248  -4.525  0.00  0.00    -0.254 N 
ATOM     22  C   UNL     1       7.498  -0.692  -4.024  0.00  0.00    +0.241 C 
ATOM     23  O   UNL     1       7.054  -1.581  -3.328  0.00  0.00    -0.273 OA
BRANCH  21  24
ATOM     24  C   UNL     1       7.156   1.186  -5.444  0.00  0.00    +0.039 A 
ATOM     25  C   UNL     1       8.080   2.142  -5.042  0.00  0.00    +0.023 A 
ATOM     26  C   UNL     1       8.555   3.067  -5.950  0.00  0.00    +0.003 A 
ATOM     27  C   UNL     1       8.113   3.042  -7.260  0.00  0.00    +0.020 A 
ATOM     28  C   UNL     1       7.192   2.092  -7.665  0.00  0.00    +0.043 A 
ATOM     29  C   UNL     1       6.718   1.159  -6.761  0.00  0.00    +0.043 A 
ATOM     30 CL   UNL     1       6.638   2.065  -9.310  0.00  0.00    -0.083 Cl
ENDBRANCH  21  24
BRANCH  22  31
ATOM     31  C   UNL     1       8.973  -0.640  -4.330  0.00  0.00    +0.160 C 
ATOM     32  C   UNL     1       9.267  -1.346  -5.672  0.00  0.00    +0.041 C 
ATOM     33  C   UNL     1       9.617  -2.778  -5.205  0.00  0.00    +0.098 C 
ATOM     34  C   UNL     1      10.097  -2.597  -3.782  0.00  0.00    +0.214 C 
ATOM     35  O   UNL     1      10.725  -3.421  -3.150  0.00  0.00    -0.276 OA
ATOM     36  N   UNL     1       9.728  -1.388  -3.318  0.00  0.00    -0.304 N 
ATOM     37  H   UNL     1       9.934  -1.054  -2.431  0.00  0.00    +0.149 HD
ENDBRANCH  22  31
ENDBRANCH   1  21
TORSDOF 8
