REMARK  Name = ZINC09413418
REMARK  6 active torsions:
REMARK  status: ('A' for Active; 'I' for Inactive)
REMARK    1  A    between atoms: C_1  and  C_2
REMARK    2  A    between atoms: C_2  and  N_3
REMARK    3  A    between atoms: N_3  and  C_4
REMARK    4  A    between atoms: C_4  and  C_5
REMARK    5  A    between atoms: C_16  and  C_18
REMARK    6  A    between atoms: N_23  and  C_25
REMARK                            x       y       z     vdW  Elec       q    Type
REMARK                         _______ _______ _______ _____ _____    ______ ____
ROOT
ATOM      1  N   UNL     1       5.953   3.513   0.619  0.00  0.00    -0.298 N 
ATOM      2  C   UNL     1       6.619   2.470   0.086  0.00  0.00    +0.221 C 
ATOM      3  O   UNL     1       6.242   1.978  -0.956  0.00  0.00    -0.275 OA
ENDROOT
BRANCH   2   4
ATOM      4  C   UNL     1       7.833   1.915   0.786  0.00  0.00    +0.102 C 
ATOM      5  C   UNL     1       9.127   2.578   0.259  0.00  0.00    +0.110 C 
ATOM      6  C   UNL     1      10.141   1.455   0.248  0.00  0.00    +0.221 C 
ATOM      7  O   UNL     1      11.342   1.604   0.170  0.00  0.00    -0.275 OA
ATOM      8  N   UNL     1       9.517   0.268   0.338  0.00  0.00    -0.271 N 
ATOM      9  C   UNL     1       8.060   0.435   0.407  0.00  0.00    +0.127 C 
BRANCH   8  10
ATOM     10  C   UNL     1      10.173  -0.970   0.362  0.00  0.00    +0.040 A 
ATOM     11  C   UNL     1       9.449  -2.135   0.577  0.00  0.00    +0.027 A 
ATOM     12  C   UNL     1      10.095  -3.356   0.602  0.00  0.00    +0.051 A 
ATOM     13  C   UNL     1      11.468  -3.422   0.413  0.00  0.00    +0.162 A 
ATOM     14  C   UNL     1      12.195  -2.257   0.196  0.00  0.00    +0.164 A 
ATOM     15  C   UNL     1      11.545  -1.033   0.166  0.00  0.00    +0.073 A 
ATOM     16  O   UNL     1      13.542  -2.302   0.004  0.00  0.00    -0.485 OA
ATOM     17  C   UNL     1      14.209  -3.503   0.407  0.00  0.00    +0.270 C 
ATOM     18  C   UNL     1      13.403  -4.699  -0.117  0.00  0.00    +0.270 C 
ATOM     19  O   UNL     1      12.088  -4.634   0.445  0.00  0.00    -0.485 OA
ENDBRANCH   8  10
ENDBRANCH   2   4
BRANCH   1  21
ATOM     20  C   UNL     1       5.654   3.224   3.029  0.00  0.00    +0.024 C 
ATOM     21  C   UNL     1       6.341   4.038   1.931  0.00  0.00    +0.104 C 
ENDBRANCH   1  21
BRANCH   1  22
ATOM     22  C   UNL     1       4.840   4.123  -0.114  0.00  0.00    +0.155 C 
BRANCH  22  23
ATOM     23  C   UNL     1       3.534   3.423   0.268  0.00  0.00    +0.228 C 
ATOM     24  C   UNL     1       2.365   4.058  -0.497  0.00  0.00    +0.275 C 
ATOM     25  O   UNL     1       1.163   3.372  -0.129  0.00  0.00    -0.485 OA
ATOM     26  C   UNL     1       1.214   2.011  -0.118  0.00  0.00    +0.162 A 
ATOM     27  C   UNL     1       0.033   1.286  -0.130  0.00  0.00    +0.049 A 
ATOM     28  C   UNL     1       0.069  -0.096  -0.114  0.00  0.00    +0.004 A 
ATOM     29  C   UNL     1       1.282  -0.758  -0.086  0.00  0.00    +0.004 A 
ATOM     30  C   UNL     1       2.463  -0.041  -0.076  0.00  0.00    +0.049 A 
ATOM     31  C   UNL     1       2.434   1.346  -0.095  0.00  0.00    +0.163 A 
ATOM     32  O   UNL     1       3.606   2.039  -0.092  0.00  0.00    -0.480 OA
ENDBRANCH  22  23
ENDBRANCH   1  22
TORSDOF 5
