REMARK  Name = ZINC36167328
REMARK  10 active torsions:
REMARK  status: ('A' for Active; 'I' for Inactive)
REMARK    1  A    between atoms: C_1  and  C_2
REMARK    2  A    between atoms: C_3  and  N_15
REMARK    3  A    between atoms: N_6  and  C_9
REMARK    4  A    between atoms: N_7  and  C_8
REMARK    5  A    between atoms: C_16  and  C_18
REMARK    6  A    between atoms: C_18  and  C_19
REMARK    7  A    between atoms: C_19  and  C_20
REMARK    8  A    between atoms: N_22  and  C_23
REMARK    9  A    between atoms: C_28  and  C_33
REMARK   10  A    between atoms: C_30  and  C_32
REMARK                            x       y       z     vdW  Elec       q    Type
REMARK                         _______ _______ _______ _____ _____    ______ ____
ROOT
ATOM      1  N   UNL     1       0.122  -0.219  -2.458  0.00  0.00    -0.280 N 
ATOM      2  C   UNL     1       0.643  -0.894  -3.501  0.00  0.00    +0.218 C 
ATOM      3  O   UNL     1       1.158  -1.978  -3.326  0.00  0.00    -0.275 OA
ATOM      4  H   UNL     1      -0.225   0.678  -2.585  0.00  0.00    +0.155 HD
ENDROOT
BRANCH   1   7
ATOM      5  C   UNL     1      -2.433  -0.669  -0.820  0.00  0.00    +0.067 C 
ATOM      6  C   UNL     1      -1.022  -1.031  -0.432  0.00  0.00    +0.059 A 
ATOM      7  C   UNL     1       0.082  -0.816  -1.182  0.00  0.00    +0.121 A 
ATOM      8  C   UNL     1       1.227  -1.319  -0.422  0.00  0.00    +0.293 A 
ATOM      9  O   UNL     1       2.393  -1.300  -0.771  0.00  0.00    -0.264 OA
ATOM     10  N   UNL     1       0.744  -1.806   0.740  0.00  0.00    -0.216 N 
ATOM     11  N   UNL     1      -0.644  -1.627   0.742  0.00  0.00    -0.282 N 
ATOM     12  C   UNL     1      -1.549  -2.016   1.826  0.00  0.00    +0.171 C 
BRANCH  10  13
ATOM     13  C   UNL     1       1.499  -2.385   1.764  0.00  0.00    +0.067 A 
ATOM     14  C   UNL     1       1.100  -3.592   2.325  0.00  0.00    +0.028 A 
ATOM     15  C   UNL     1       1.848  -4.161   3.337  0.00  0.00    +0.002 A 
ATOM     16  C   UNL     1       2.992  -3.531   3.792  0.00  0.00    +0.000 A 
ATOM     17  C   UNL     1       3.391  -2.330   3.235  0.00  0.00    +0.002 A 
ATOM     18  C   UNL     1       2.651  -1.758   2.219  0.00  0.00    +0.028 A 
ENDBRANCH  10  13
ENDBRANCH   1   7
BRANCH   2  19
ATOM     19  C   UNL     1       0.587  -0.301  -4.886  0.00  0.00    +0.105 C 
BRANCH  19  20
ATOM     20  C   UNL     1       1.243  -1.262  -5.879  0.00  0.00    +0.105 C 
BRANCH  20  21
ATOM     21  C   UNL     1       1.186  -0.670  -7.264  0.00  0.00    +0.214 C 
ATOM     22  O   UNL     1       0.672   0.414  -7.439  0.00  0.00    -0.276 OA
ATOM     23  N   UNL     1       1.708  -1.345  -8.307  0.00  0.00    -0.312 N 
ATOM     24  H   UNL     1       2.119  -2.212  -8.167  0.00  0.00    +0.149 HD
BRANCH  23  25
ATOM     25  C   UNL     1       1.652  -0.769  -9.653  0.00  0.00    +0.076 C 
ATOM     26  C   UNL     1       0.306  -1.105 -10.297  0.00  0.00    +0.022 C 
ATOM     27  C   UNL     1       0.148  -2.624 -10.386  0.00  0.00    +0.002 C 
ATOM     28  C   UNL     1       1.279  -3.206 -11.236  0.00  0.00    +0.003 C 
ATOM     29  C   UNL     1       2.625  -2.870 -10.592  0.00  0.00    -0.009 C 
ATOM     30  C   UNL     1       2.784  -1.351 -10.504  0.00  0.00    +0.009 C 
ATOM     31  C   UNL     1       4.130  -1.015  -9.860  0.00  0.00    +0.009 C 
ATOM     32  C   UNL     1       3.756  -3.452 -11.443  0.00  0.00    +0.008 C 
ENDBRANCH  23  25
ENDBRANCH  20  21
ENDBRANCH  19  20
ENDBRANCH   2  19
TORSDOF 6
