REMARK  Name = ZINC65716899
REMARK  4 active torsions:
REMARK  status: ('A' for Active; 'I' for Inactive)
REMARK    1  A    between atoms: C_1  and  N_2
REMARK    2  A    between atoms: N_2  and  C_3
REMARK    3  A    between atoms: C_13  and  C_15
REMARK    4  A    between atoms: C_18  and  C_23
REMARK                            x       y       z     vdW  Elec       q    Type
REMARK                         _______ _______ _______ _____ _____    ______ ____
ROOT
ATOM      1  C   UNL     1      -2.070   0.604  -0.450  0.00  0.00    +0.138 C 
ATOM      2  N   UNL     1      -1.010  -0.374  -0.193  0.00  0.00    -0.270 N 
ATOM      3  C   UNL     1      -0.152  -0.711  -1.176  0.00  0.00    +0.256 C 
ATOM      4  O   UNL     1       0.640  -1.620  -1.007  0.00  0.00    -0.269 OA
ENDROOT
BRANCH   2   5
ATOM      5  C   UNL     1      -0.889  -0.958   1.071  0.00  0.00    +0.037 A 
ATOM      6  C   UNL     1       0.225  -1.754   1.363  0.00  0.00    +0.024 A 
ATOM      7  C   UNL     1       0.369  -2.334   2.584  0.00  0.00    +0.010 A 
ATOM      8  C   UNL     1      -0.610  -2.136   3.573  0.00  0.00    -0.018 A 
ATOM      9  C   UNL     1      -0.487  -2.723   4.845  0.00  0.00    +0.008 A 
ATOM     10  C   UNL     1      -1.453  -2.512   5.780  0.00  0.00    +0.001 A 
ATOM     11  C   UNL     1      -2.565  -1.721   5.498  0.00  0.00    +0.001 A 
ATOM     12  C   UNL     1      -2.718  -1.137   4.279  0.00  0.00    +0.008 A 
ATOM     13  C   UNL     1      -1.741  -1.332   3.287  0.00  0.00    -0.016 A 
ATOM     14  C   UNL     1      -1.864  -0.739   2.019  0.00  0.00    +0.032 A 
ENDBRANCH   2   5
BRANCH   3  15
ATOM     15  C   UNL     1      -0.172   0.018  -2.449  0.00  0.00    +0.101 A 
ATOM     16  C   UNL     1      -0.243  -0.678  -3.661  0.00  0.00    +0.020 A 
ATOM     17  C   UNL     1      -0.260   0.034  -4.849  0.00  0.00    +0.030 A 
ATOM     18  C   UNL     1      -0.207   1.422  -4.824  0.00  0.00    +0.085 A 
ATOM     19  N   UNL     1      -0.136   2.097  -3.635  0.00  0.00    -0.319 N 
ATOM     20  H   UNL     1      -0.100   3.067  -3.637  0.00  0.00    +0.169 HD
ATOM     21  C   UNL     1      -0.124   1.434  -2.464  0.00  0.00    +0.261 A 
ATOM     22  O   UNL     1      -0.067   2.052  -1.415  0.00  0.00    -0.267 OA
BRANCH  18  23
ATOM     23  C   UNL     1      -0.225   2.170  -6.082  0.00  0.00    +0.151 A 
ATOM     24  C   UNL     1      -0.173   3.531  -6.209  0.00  0.00    +0.051 A 
ATOM     25  C   UNL     1      -0.215   3.810  -7.584  0.00  0.00    +0.042 A 
ATOM     26  C   UNL     1      -0.291   2.624  -8.229  0.00  0.00    +0.196 A 
ATOM     27  O   UNL     1      -0.291   1.639  -7.320  0.00  0.00    -0.461 OA
ENDBRANCH  18  23
ENDBRANCH   3  15
TORSDOF 3
