REMARK  Name = ZINC64428612
REMARK  8 active torsions:
REMARK  status: ('A' for Active; 'I' for Inactive)
REMARK    1  A    between atoms: C_7  and  C_10
REMARK    2  A    between atoms: C_10  and  C_11
REMARK    3  A    between atoms: C_11  and  C_13
REMARK    4  A    between atoms: C_11  and  N_32
REMARK    5  A    between atoms: C_17  and  S_20
REMARK    6  A    between atoms: S_20  and  C_21
REMARK    7  A    between atoms: C_21  and  C_22
REMARK    8  A    between atoms: N_24  and  C_25
REMARK                            x       y       z     vdW  Elec       q    Type
REMARK                         _______ _______ _______ _____ _____    ______ ____
ROOT
ATOM      1  C   UNL     1      -0.381  -4.938  -1.433  0.00  0.00    +0.246 C 
ATOM      2  N   UNL     1       0.329  -6.029  -0.752  0.00  0.00    -0.159 NA
ATOM      3  N   UNL     1       0.802  -6.813  -1.585  0.00  0.00    -0.146 NA
ATOM      4  C   UNL     1       0.478  -6.361  -2.945  0.00  0.00    +0.319 C 
ATOM      5  O   UNL     1      -0.593  -5.405  -2.781  0.00  0.00    -0.320 OA
ENDROOT
BRANCH   1   6
ATOM      6  C   UNL     1       0.475  -3.670  -1.438  0.00  0.00    -0.017 C 
BRANCH   6   7
ATOM      7  N   UNL     1      -0.224  -2.611  -2.180  0.00  0.00    +0.383 N 
ATOM      8  H   UNL     1      -1.109  -2.417  -1.736  0.00  0.00    -0.089 HD
ATOM      9  H   UNL     1       0.341  -1.775  -2.183  0.00  0.00    -0.089 HD
ATOM     10  H   UNL     1      -0.382  -2.914  -3.129  0.00  0.00    -0.089 HD
ENDBRANCH   6   7
BRANCH   6  11
ATOM     11  C   UNL     1       0.716  -3.211   0.001  0.00  0.00    +0.021 C 
BRANCH  11  18
ATOM     12  C   UNL     1       0.016   1.323   0.064  0.00  0.00    +0.001 A 
ATOM     13  C   UNL     1       1.199   2.075   0.056  0.00  0.00    +0.002 A 
ATOM     14  C   UNL     1       2.424   1.507   0.033  0.00  0.00    +0.026 A 
ATOM     15  C   UNL     1       2.559   0.091   0.015  0.00  0.00    +0.043 A 
ATOM     16  N   UNL     1       3.616  -0.684  -0.009  0.00  0.00    -0.380 N 
ATOM     17  C   UNL     1       3.170  -2.082  -0.020  0.00  0.00    +0.144 C 
ATOM     18  C   UNL     1       1.658  -2.035   0.002  0.00  0.00    -0.043 C 
ATOM     19  C   UNL     1       1.324  -0.725   0.023  0.00  0.00    -0.001 A 
ATOM     20  C   UNL     1       0.032  -0.029   0.049  0.00  0.00    +0.010 A 
ATOM     21  H   UNL     1       4.538  -0.384  -0.019  0.00  0.00    +0.160 HD
ENDBRANCH  11  18
ENDBRANCH   6  11
ENDBRANCH   1   6
BRANCH   4  22
ATOM     22  S   UNL     1      -0.074  -7.760  -3.958  0.00  0.00    -0.095 S 
BRANCH  22  23
ATOM     23  C   UNL     1      -1.513  -8.409  -3.065  0.00  0.00    +0.169 C 
BRANCH  23  24
ATOM     24  C   UNL     1      -2.076  -9.591  -3.810  0.00  0.00    +0.227 C 
ATOM     25  O   UNL     1      -1.557  -9.960  -4.843  0.00  0.00    -0.275 OA
ATOM     26  N   UNL     1      -3.156 -10.239  -3.330  0.00  0.00    -0.285 N 
ATOM     27  H   UNL     1      -3.530  -9.987  -2.471  0.00  0.00    +0.155 HD
BRANCH  26  28
ATOM     28  C   UNL     1      -3.737 -11.275  -4.069  0.00  0.00    +0.035 A 
ATOM     29  C   UNL     1      -5.114 -11.456  -4.051  0.00  0.00    +0.023 A 
ATOM     30  C   UNL     1      -5.685 -12.478  -4.782  0.00  0.00    +0.003 A 
ATOM     31  C   UNL     1      -4.888 -13.323  -5.532  0.00  0.00    +0.020 A 
ATOM     32  C   UNL     1      -3.516 -13.146  -5.553  0.00  0.00    +0.043 A 
ATOM     33  C   UNL     1      -2.939 -12.120  -4.828  0.00  0.00    +0.043 A 
ATOM     34 CL   UNL     1      -2.519 -14.209  -6.497  0.00  0.00    -0.083 Cl
ENDBRANCH  26  28
ENDBRANCH  23  24
ENDBRANCH  22  23
ENDBRANCH   4  22
TORSDOF 8
