REMARK  Name = ZINC39999668
REMARK  7 active torsions:
REMARK  status: ('A' for Active; 'I' for Inactive)
REMARK    1  A    between atoms: C_1  and  C_2
REMARK    2  A    between atoms: C_2  and  S_3
REMARK    3  A    between atoms: S_3  and  C_4
REMARK    4  A    between atoms: C_10  and  C_25
REMARK    5  A    between atoms: C_12  and  C_17
REMARK    6  A    between atoms: C_17  and  C_19
REMARK    7  A    between atoms: C_28  and  N_31
REMARK                            x       y       z     vdW  Elec       q    Type
REMARK                         _______ _______ _______ _____ _____    ______ ____
ROOT
ATOM      1  C   UNL     1       0.655  -2.374  -1.660  0.00  0.00    +0.160 A 
ATOM      2  N   UNL     1       0.233  -3.089  -0.626  0.00  0.00    -0.133 NA
ATOM      3  N   UNL     1       0.307  -4.348  -0.611  0.00  0.00    -0.125 NA
ATOM      4  C   UNL     1       0.811  -5.033  -1.625  0.00  0.00    +0.192 A 
ATOM      5  S   UNL     1       1.220  -3.689  -2.736  0.00  0.00    -0.024 S 
ATOM      6  N   UNL     1       0.973  -6.404  -1.784  0.00  0.00    -0.230 N 
ATOM      7  C   UNL     1       0.594  -7.437  -0.813  0.00  0.00    +0.152 C 
ATOM      8  C   UNL     1       0.967  -8.760  -1.439  0.00  0.00    +0.077 C 
ATOM      9  C   UNL     1       1.505  -8.481  -2.651  0.00  0.00    +0.250 C 
ATOM     10  C   UNL     1       1.500  -7.019  -2.859  0.00  0.00    +0.293 C 
ATOM     11  O   UNL     1       1.913  -6.455  -3.853  0.00  0.00    -0.266 OA
ATOM     12  O   UNL     1       1.969  -9.397  -3.532  0.00  0.00    -0.282 OA
ENDROOT
BRANCH   7  13
ATOM     13  C   UNL     1       1.350  -7.240   0.475  0.00  0.00    -0.022 A 
ATOM     14  C   UNL     1       2.701  -6.945   0.445  0.00  0.00    +0.008 A 
ATOM     15  C   UNL     1       3.395  -6.764   1.627  0.00  0.00    +0.033 A 
ATOM     16  C   UNL     1       2.739  -6.878   2.838  0.00  0.00    +0.126 A 
ATOM     17  C   UNL     1       1.388  -7.172   2.868  0.00  0.00    +0.033 A 
ATOM     18  C   UNL     1       0.693  -7.348   1.686  0.00  0.00    +0.008 A 
BRANCH  16  19
ATOM     19  N   UNL     1       3.482  -6.685   4.104  0.00  0.00    +0.056 N 
ATOM     20  O   UNL     1       4.663  -6.428   4.078  0.00  0.00    -0.126 OA
ATOM     21  O   UNL     1       2.908  -6.784   5.163  0.00  0.00    -0.126 OA
ENDBRANCH  16  19
ENDBRANCH   7  13
BRANCH   8  22
ATOM     22  C   UNL     1       0.782 -10.089  -0.850  0.00  0.00    +0.195 C 
ATOM     23  O   UNL     1       1.750 -10.764  -0.556  0.00  0.00    -0.287 OA
BRANCH  22  24
ATOM     24  C   UNL     1      -0.582 -10.609  -0.612  0.00  0.00    +0.022 A 
ATOM     25  C   UNL     1      -1.694  -9.893  -1.061  0.00  0.00    +0.012 A 
ATOM     26  C   UNL     1      -2.963 -10.384  -0.836  0.00  0.00    +0.001 A 
ATOM     27  C   UNL     1      -3.136 -11.583  -0.167  0.00  0.00    +0.000 A 
ATOM     28  C   UNL     1      -2.039 -12.297   0.281  0.00  0.00    +0.001 A 
ATOM     29  C   UNL     1      -0.764 -11.821   0.057  0.00  0.00    +0.012 A 
ENDBRANCH  22  24
ENDBRANCH   8  22
BRANCH   1  30
ATOM     30  S   UNL     1       0.654  -0.630  -1.907  0.00  0.00    -0.097 S 
BRANCH  30  32
ATOM     31  C   UNL     1      -0.130   1.556  -0.462  0.00  0.00    +0.016 C 
ATOM     32  C   UNL     1      -0.069   0.029  -0.380  0.00  0.00    +0.073 C 
ENDBRANCH  30  32
ENDBRANCH   1  30
TORSDOF 6
