REMARK  Name = ZINC10011410
REMARK  7 active torsions:
REMARK  status: ('A' for Active; 'I' for Inactive)
REMARK    1  A    between atoms: C_4  and  N_28
REMARK    2  A    between atoms: C_5  and  C_7
REMARK    3  A    between atoms: N_9  and  C_10
REMARK    4  A    between atoms: C_10  and  N_12
REMARK    5  A    between atoms: N_12  and  C_13
REMARK    6  A    between atoms: C_17  and  C_19
REMARK    7  A    between atoms: N_21  and  C_22
REMARK                            x       y       z     vdW  Elec       q    Type
REMARK                         _______ _______ _______ _____ _____    ______ ____
ROOT
ATOM      1  N   UNL     1      -5.780  -0.119  -0.029  0.00  0.00    -0.297 N 
ATOM      2  H   UNL     1      -5.670  -0.859   0.589  0.00  0.00    +0.154 HD
ENDROOT
BRANCH   1   3
ATOM      3  C   UNL     1      -7.006   0.551  -0.106  0.00  0.00    +0.033 A 
ATOM      4  C   UNL     1      -7.034   1.934  -0.246  0.00  0.00    +0.023 A 
ATOM      5  C   UNL     1      -8.242   2.600  -0.329  0.00  0.00    +0.003 A 
ATOM      6  C   UNL     1      -9.429   1.898  -0.262  0.00  0.00    +0.013 A 
ATOM      7  C   UNL     1      -9.411   0.510  -0.116  0.00  0.00    +0.038 A 
ATOM      8  C   UNL     1      -8.192  -0.163  -0.038  0.00  0.00    +0.036 A 
BRANCH   7   9
ATOM      9  C   UNL     1     -10.681  -0.245  -0.044  0.00  0.00    +0.244 C 
ATOM     10  O   UNL     1     -10.663  -1.453   0.083  0.00  0.00    -0.270 OA
ATOM     11  N   UNL     1     -11.857   0.408  -0.119  0.00  0.00    -0.308 N 
ATOM     12  H   UNL     1     -11.872   1.372  -0.221  0.00  0.00    +0.149 HD
BRANCH  11  13
ATOM     13  C   UNL     1     -13.115  -0.340  -0.048  0.00  0.00    +0.073 C 
ATOM     14  C   UNL     1     -13.480  -0.857  -1.441  0.00  0.00    +0.022 C 
ATOM     15  C   UNL     1     -14.794  -1.638  -1.367  0.00  0.00    +0.002 C 
ATOM     16  C   UNL     1     -15.906  -0.719  -0.857  0.00  0.00    +0.000 C 
ATOM     17  C   UNL     1     -15.541  -0.201   0.536  0.00  0.00    +0.002 C 
ATOM     18  C   UNL     1     -14.227   0.580   0.462  0.00  0.00    +0.022 C 
ENDBRANCH  11  13
ENDBRANCH   7   9
ENDBRANCH   1   3
BRANCH   1  19
ATOM     19  C   UNL     1      -4.752   0.263  -0.813  0.00  0.00    +0.141 C 
ATOM     20  S   UNL     1      -4.904   1.647  -1.809  0.00  0.00    -0.018 S 
BRANCH  19  23
ATOM     21  C   UNL     1      -2.578  -0.063  -1.596  0.00  0.00    +0.252 C 
ATOM     22  O   UNL     1      -2.686   0.920  -2.304  0.00  0.00    -0.270 OA
ATOM     23  N   UNL     1      -3.605  -0.445  -0.812  0.00  0.00    -0.264 N 
ATOM     24  H   UNL     1      -3.519  -1.229  -0.248  0.00  0.00    +0.157 HD
BRANCH  21  29
ATOM     25  C   UNL     1       0.335  -2.118  -0.416  0.00  0.00    +0.001 A 
ATOM     26  C   UNL     1       1.037  -2.292  -1.595  0.00  0.00    +0.002 A 
ATOM     27  C   UNL     1       0.565  -1.747  -2.776  0.00  0.00    +0.033 A 
ATOM     28  C   UNL     1      -0.606  -1.017  -2.782  0.00  0.00    +0.138 A 
ATOM     29  C   UNL     1      -1.320  -0.839  -1.596  0.00  0.00    +0.067 A 
ATOM     30  C   UNL     1      -0.840  -1.396  -0.409  0.00  0.00    +0.015 A 
BRANCH  28  31
ATOM     31  N   UNL     1      -1.107  -0.430  -4.045  0.00  0.00    +0.057 N 
ATOM     32  O   UNL     1      -0.323   0.024  -4.859  0.00  0.00    -0.126 OA
ATOM     33  O   UNL     1      -2.304  -0.406  -4.273  0.00  0.00    -0.126 OA
ENDBRANCH  28  31
ENDBRANCH  21  29
ENDBRANCH  19  23
ENDBRANCH   1  19
TORSDOF 7
