REMARK  Name = ZINC16226778
REMARK  8 active torsions:
REMARK  status: ('A' for Active; 'I' for Inactive)
REMARK    1  A    between atoms: C_1  and  O_2
REMARK    2  A    between atoms: O_2  and  C_3
REMARK    3  A    between atoms: C_8  and  C_9
REMARK    4  A    between atoms: N_11  and  C_12
REMARK    5  A    between atoms: C_12  and  N_14
REMARK    6  A    between atoms: N_17  and  C_20
REMARK    7  A    between atoms: C_23  and  C_29
REMARK    8  A    between atoms: C_25  and  N_26
REMARK                            x       y       z     vdW  Elec       q    Type
REMARK                         _______ _______ _______ _____ _____    ______ ____
ROOT
ATOM      1  N   UNL     1      -0.453  -6.268   0.717  0.00  0.00    -0.309 N 
ATOM      2  C   UNL     1       0.201  -6.931  -0.419  0.00  0.00    +0.125 C 
ATOM      3  C   UNL     1       1.188  -7.972   0.122  0.00  0.00    +0.124 C 
ATOM      4  N   UNL     1       0.498  -8.799   1.122  0.00  0.00    -0.325 N 
ATOM      5  C   UNL     1      -0.157  -8.136   2.259  0.00  0.00    +0.124 C 
ATOM      6  C   UNL     1      -1.139  -7.095   1.720  0.00  0.00    +0.125 C 
ENDROOT
BRANCH   4   7
ATOM      7  C   UNL     1       0.463 -10.189   0.995  0.00  0.00    +0.060 A 
ATOM      8  C   UNL     1       1.461 -10.966   1.570  0.00  0.00    +0.026 A 
ATOM      9  C   UNL     1       1.424 -12.340   1.442  0.00  0.00    +0.014 A 
ATOM     10  C   UNL     1       0.395 -12.944   0.742  0.00  0.00    +0.057 A 
ATOM     11  C   UNL     1      -0.599 -12.174   0.168  0.00  0.00    +0.047 A 
ATOM     12  C   UNL     1      -0.571 -10.799   0.297  0.00  0.00    +0.148 A 
BRANCH  10  13
ATOM     13  C   UNL     1       0.358 -14.444   0.604  0.00  0.00    +0.417 C 
ATOM     14  F   UNL     1       1.460 -15.000   1.263  0.00  0.00    -0.166 F 
ATOM     15  F   UNL     1      -0.822 -14.935   1.173  0.00  0.00    -0.166 F 
ATOM     16  F   UNL     1       0.401 -14.789  -0.751  0.00  0.00    -0.166 F 
ENDBRANCH  10  13
BRANCH  12  17
ATOM     17  N   UNL     1      -1.640  -9.975  -0.313  0.00  0.00    +0.058 N 
ATOM     18  O   UNL     1      -2.540 -10.507  -0.920  0.00  0.00    -0.126 OA
ATOM     19  O   UNL     1      -1.612  -8.771  -0.204  0.00  0.00    -0.126 OA
ENDBRANCH  12  17
ENDBRANCH   4   7
BRANCH   1  20
ATOM     20  C   UNL     1      -0.420  -4.927   0.841  0.00  0.00    +0.139 C 
ATOM     21  S   UNL     1      -1.064  -4.180   2.240  0.00  0.00    -0.018 S 
BRANCH  20  24
ATOM     22  C   UNL     1       0.058  -2.829  -0.064  0.00  0.00    +0.253 C 
ATOM     23  O   UNL     1      -0.484  -2.296   0.884  0.00  0.00    -0.270 OA
ATOM     24  N   UNL     1       0.120  -4.173  -0.138  0.00  0.00    -0.264 N 
ATOM     25  H   UNL     1       0.552  -4.598  -0.895  0.00  0.00    +0.157 HD
BRANCH  22  31
ATOM     26  C   UNL     1       0.588  -0.606  -1.062  0.00  0.00    +0.132 A 
ATOM     27  C   UNL     1       1.151   0.161  -2.072  0.00  0.00    +0.048 A 
ATOM     28  C   UNL     1       1.765  -0.453  -3.146  0.00  0.00    +0.023 A 
ATOM     29  C   UNL     1       1.824  -1.836  -3.224  0.00  0.00    +0.042 A 
ATOM     30  C   UNL     1       1.268  -2.613  -2.230  0.00  0.00    +0.036 A 
ATOM     31  C   UNL     1       0.649  -2.004  -1.135  0.00  0.00    +0.080 A 
ATOM     32 CL   UNL     1       2.599  -2.592  -4.581  0.00  0.00    -0.084 Cl
BRANCH  26  34
ATOM     33  C   UNL     1      -0.040   1.425  -0.001  0.00  0.00    +0.277 C 
ATOM     34  O   UNL     1      -0.016  -0.004  -0.006  0.00  0.00    -0.494 OA
ENDBRANCH  26  34
ENDBRANCH  22  31
ENDBRANCH  20  24
ENDBRANCH   1  20
TORSDOF 7
