REMARK  Name = ZINC09468207
REMARK  7 active torsions:
REMARK  status: ('A' for Active; 'I' for Inactive)
REMARK    1  A    between atoms: C_1  and  C_2
REMARK    2  A    between atoms: C_5  and  N_8
REMARK    3  A    between atoms: N_8  and  S_9
REMARK    4  A    between atoms: S_9  and  C_12
REMARK    5  A    between atoms: C_15  and  C_18
REMARK    6  A    between atoms: N_20  and  N_21
REMARK    7  A    between atoms: C_27  and  C_30
REMARK                            x       y       z     vdW  Elec       q    Type
REMARK                         _______ _______ _______ _____ _____    ______ ____
ROOT
ATOM      1  C   UNL     1      -3.972  -1.956  -0.119  0.00  0.00    +0.109 A 
ATOM      2  C   UNL     1      -2.667  -2.414  -0.162  0.00  0.00    +0.029 A 
ATOM      3  C   UNL     1      -1.622  -1.520  -0.260  0.00  0.00    +0.015 A 
ATOM      4  C   UNL     1      -1.883  -0.150  -0.316  0.00  0.00    +0.038 A 
ATOM      5  C   UNL     1      -3.201   0.306  -0.266  0.00  0.00    +0.015 A 
ATOM      6  C   UNL     1      -4.238  -0.599  -0.174  0.00  0.00    +0.029 A 
ENDROOT
BRANCH   4   7
ATOM      7  C   UNL     1      -0.767   0.815  -0.421  0.00  0.00    +0.261 C 
ATOM      8  O   UNL     1       0.380   0.415  -0.459  0.00  0.00    -0.269 OA
ATOM      9  N   UNL     1      -1.022   2.137  -0.474  0.00  0.00    -0.220 N 
ATOM     10  H   UNL     1      -1.938   2.456  -0.448  0.00  0.00    +0.174 HD
BRANCH   9  11
ATOM     11  N   UNL     1       0.035   3.051  -0.574  0.00  0.00    -0.137 N 
ATOM     12  C   UNL     1       0.364   3.710  -1.704  0.00  0.00    +0.263 C 
ATOM     13  O   UNL     1      -0.177   3.627  -2.786  0.00  0.00    -0.271 OA
ATOM     14  C   UNL     1       1.550   4.573  -1.338  0.00  0.00    +0.114 C 
ATOM     15  C   UNL     1       1.214   6.047  -1.532  0.00  0.00    +0.035 C 
ATOM     16  C   UNL     1       2.416   6.905  -1.130  0.00  0.00    +0.006 C 
ATOM     17  C   UNL     1       3.624   6.522  -1.988  0.00  0.00    -0.014 C 
ATOM     18  C   UNL     1       3.964   5.048  -1.763  0.00  0.00    +0.006 C 
ATOM     19  C   UNL     1       2.768   4.182  -2.168  0.00  0.00    +0.035 C 
ATOM     20  C   UNL     1       4.823   7.387  -1.594  0.00  0.00    +0.007 C 
ATOM     21  N   UNL     1       1.779   4.280   0.083  0.00  0.00    -0.284 N 
ATOM     22  C   UNL     1       0.841   3.383   0.443  0.00  0.00    +0.326 C 
ATOM     23  O   UNL     1       0.739   2.924   1.563  0.00  0.00    -0.251 OA
ATOM     24  H   UNL     1       2.467   4.660   0.651  0.00  0.00    +0.151 HD
ENDBRANCH   9  11
ENDBRANCH   4   7
BRANCH   1  25
ATOM     25  S   UNL     1      -5.302  -3.106   0.006  0.00  0.00    +0.072 S 
ATOM     26  O   UNL     1      -6.475  -2.416  -0.403  0.00  0.00    -0.150 OA
ATOM     27  O   UNL     1      -4.864  -4.303  -0.621  0.00  0.00    -0.150 OA
BRANCH  25  28
ATOM     28  N   UNL     1      -5.496  -3.456   1.613  0.00  0.00    -0.216 N 
ATOM     29  H   UNL     1      -5.350  -4.360   1.933  0.00  0.00    +0.174 HD
BRANCH  28  34
ATOM     30  C   UNL     1      -7.012   0.627   5.245  0.00  0.00    +0.044 C 
ATOM     31  C   UNL     1      -6.609  -0.459   4.280  0.00  0.00    -0.050 A 
ATOM     32  C   UNL     1      -7.542  -0.985   3.405  0.00  0.00    +0.005 A 
ATOM     33  C   UNL     1      -7.176  -1.979   2.519  0.00  0.00    +0.025 A 
ATOM     34  C   UNL     1      -5.869  -2.450   2.508  0.00  0.00    +0.048 A 
ATOM     35  C   UNL     1      -4.936  -1.924   3.392  0.00  0.00    +0.025 A 
ATOM     36  C   UNL     1      -5.308  -0.926   4.271  0.00  0.00    +0.005 A 
ENDBRANCH  28  34
ENDBRANCH  25  28
ENDBRANCH   1  25
TORSDOF 5
