REMARK  Name = ZINC39664617
REMARK  10 active torsions:
REMARK  status: ('A' for Active; 'I' for Inactive)
REMARK    1  A    between atoms: C_1  and  C_2
REMARK    2  A    between atoms: C_2  and  C_3
REMARK    3  A    between atoms: C_6  and  C_9
REMARK    4  A    between atoms: C_13  and  C_22
REMARK    5  A    between atoms: N_24  and  C_25
REMARK    6  A    between atoms: C_25  and  C_27
REMARK    7  A    between atoms: C_25  and  C_31
REMARK    8  A    between atoms: C_27  and  N_28
REMARK    9  A    between atoms: N_28  and  C_29
REMARK   10  A    between atoms: N_28  and  C_30
REMARK                            x       y       z     vdW  Elec       q    Type
REMARK                         _______ _______ _______ _____ _____    ______ ____
ROOT
ATOM      1  C   UNL     1       2.703  -2.709  -3.834  0.00  0.00    +0.247 C 
ATOM      2  O   UNL     1       1.858  -2.620  -4.704  0.00  0.00    -0.270 OA
ATOM      3  N   UNL     1       3.988  -2.414  -4.111  0.00  0.00    -0.296 N 
ATOM      4  C   UNL     1       5.167  -2.572  -3.227  0.00  0.00    +0.121 C 
ATOM      5  C   UNL     1       6.290  -3.077  -4.160  0.00  0.00    +0.100 C 
ATOM      6  C   UNL     1       5.876  -2.604  -5.564  0.00  0.00    -0.004 C 
ATOM      7  C   UNL     1       4.544  -1.865  -5.371  0.00  0.00    +0.115 C 
ATOM      8  C   UNL     1       6.928  -1.659  -6.135  0.00  0.00    -0.010 C 
ATOM      9  C   UNL     1       6.523  -1.248  -7.553  0.00  0.00    -0.082 C 
ATOM     10  N   UNL     1       6.403  -2.444  -8.395  0.00  0.00    +0.379 N 
ATOM     11  C   UNL     1       5.325  -3.304  -7.892  0.00  0.00    -0.082 C 
ATOM     12  C   UNL     1       5.680  -3.802  -6.488  0.00  0.00    -0.010 C 
ATOM     13  H   UNL     1       6.196  -2.167  -9.343  0.00  0.00    -0.086 HD
ATOM     14  H   UNL     1       7.274  -2.954  -8.379  0.00  0.00    -0.086 HD
ENDROOT
BRANCH   1  18
ATOM     15  C   UNL     1       1.602  -3.948   0.077  0.00  0.00    -0.048 A 
ATOM     16  C   UNL     1       0.788  -4.258  -0.998  0.00  0.00    +0.004 A 
ATOM     17  C   UNL     1       1.140  -3.858  -2.271  0.00  0.00    +0.013 A 
ATOM     18  C   UNL     1       2.320  -3.140  -2.473  0.00  0.00    +0.037 A 
ATOM     19  C   UNL     1       3.136  -2.830  -1.384  0.00  0.00    +0.013 A 
ATOM     20  C   UNL     1       2.770  -3.231  -0.115  0.00  0.00    +0.004 A 
BRANCH  15  22
ATOM     21  C   UNL     1       0.354  -3.304   2.121  0.00  0.00    +0.009 C 
ATOM     22  C   UNL     1       1.212  -4.387   1.465  0.00  0.00    +0.032 C 
ENDBRANCH  15  22
ENDBRANCH   1  18
BRANCH   5  23
ATOM     23  C   UNL     1       7.612  -2.468  -3.767  0.00  0.00    +0.219 C 
ATOM     24  O   UNL     1       8.604  -3.162  -3.703  0.00  0.00    -0.275 OA
ATOM     25  N   UNL     1       7.691  -1.152  -3.488  0.00  0.00    -0.310 N 
ATOM     26  H   UNL     1       6.910  -0.586  -3.594  0.00  0.00    +0.149 HD
BRANCH  25  27
ATOM     27  C   UNL     1       8.955  -0.576  -3.024  0.00  0.00    +0.087 C 
BRANCH  27  28
ATOM     28  C   UNL     1       9.155   0.776  -3.658  0.00  0.00    -0.029 A 
ATOM     29  C   UNL     1       8.083   1.638  -3.799  0.00  0.00    +0.005 A 
ATOM     30  C   UNL     1       8.266   2.879  -4.381  0.00  0.00    +0.000 A 
ATOM     31  C   UNL     1       9.520   3.257  -4.822  0.00  0.00    +0.000 A 
ATOM     32  C   UNL     1      10.591   2.396  -4.680  0.00  0.00    +0.000 A 
ATOM     33  C   UNL     1      10.410   1.157  -4.095  0.00  0.00    +0.005 A 
ENDBRANCH  27  28
BRANCH  27  34
ATOM     34  C   UNL     1       8.919  -0.425  -1.502  0.00  0.00    -0.052 C 
BRANCH  34  35
ATOM     35  N   UNL     1       8.679  -1.737  -0.885  0.00  0.00    +0.377 N 
ATOM     36  C   UNL     1       9.858  -2.591  -1.077  0.00  0.00    -0.097 C 
ATOM     37  C   UNL     1       8.428  -1.564   0.552  0.00  0.00    -0.097 C 
ATOM     38  H   UNL     1       7.876  -2.169  -1.317  0.00  0.00    -0.083 HD
ENDBRANCH  34  35
ENDBRANCH  27  34
ENDBRANCH  25  27
ENDBRANCH   5  23
TORSDOF 7
