REMARK  Name = ZINC00876442
REMARK  8 active torsions:
REMARK  status: ('A' for Active; 'I' for Inactive)
REMARK    1  A    between atoms: C_1  and  C_2
REMARK    2  A    between atoms: C_12  and  C_14
REMARK    3  A    between atoms: C_16  and  C_27
REMARK    4  A    between atoms: C_17  and  N_26
REMARK    5  A    between atoms: C_19  and  C_25
REMARK    6  A    between atoms: C_20  and  C_21
REMARK    7  A    between atoms: C_21  and  O_23
REMARK    8  A    between atoms: O_23  and  C_24
REMARK                            x       y       z     vdW  Elec       q    Type
REMARK                         _______ _______ _______ _____ _____    ______ ____
ROOT
ATOM      1  C   UNL     1       4.958   1.184  -0.040  0.00  0.00    +0.110 C 
ATOM      2  C   UNL     1       5.735   1.588   1.183  0.00  0.00    +0.098 C 
ATOM      3  C   UNL     1       6.738   2.495   1.098  0.00  0.00    +0.198 C 
ATOM      4  O   UNL     1       7.078   3.069  -0.069  0.00  0.00    -0.445 OA
ATOM      5  C   UNL     1       6.701   2.492  -1.220  0.00  0.00    +0.115 C 
ATOM      6  C   UNL     1       5.708   1.595  -1.278  0.00  0.00    +0.087 C 
ATOM      7  C   UNL     1       7.419   2.866  -2.491  0.00  0.00    +0.087 C 
ENDROOT
BRANCH   1  19
ATOM      8  C   UNL     1      -0.110   5.368   0.032  0.00  0.00    +0.046 C 
ATOM      9  C   UNL     1      -0.063   3.862   0.024  0.00  0.00    -0.026 A 
ATOM     10  C   UNL     1      -1.233   3.133   0.032  0.00  0.00    +0.005 A 
ATOM     11  C   UNL     1      -1.203   1.746   0.017  0.00  0.00    +0.001 A 
ATOM     12  C   UNL     1      -0.013   1.076   0.008  0.00  0.00    +0.010 A 
ATOM     13  C   UNL     1       1.187   1.794   0.000  0.00  0.00    -0.001 A 
ATOM     14  C   UNL     1       1.161   3.202   0.008  0.00  0.00    +0.052 A 
ATOM     15  N   UNL     1       2.347   3.906  -0.000  0.00  0.00    -0.322 N 
ATOM     16  H   UNL     1       2.326   4.905   0.005  0.00  0.00    +0.169 HD
ATOM     17  C   UNL     1       3.530   3.267  -0.016  0.00  0.00    +0.253 A 
ATOM     18  O   UNL     1       4.558   3.921  -0.023  0.00  0.00    -0.268 OA
ATOM     19  C   UNL     1       3.611   1.858  -0.024  0.00  0.00    +0.030 A 
ATOM     20  C   UNL     1       2.481   1.109  -0.016  0.00  0.00    +0.020 A 
ENDBRANCH   1  19
BRANCH   3  21
ATOM     21  N   UNL     1       7.426   2.838   2.236  0.00  0.00    -0.328 N 
ATOM     22  H   UNL     1       7.192   2.433   3.085  0.00  0.00    +0.145 HD
ATOM     23  H   UNL     1       8.146   3.486   2.190  0.00  0.00    +0.145 HD
ENDBRANCH   3  21
BRANCH   6  24
ATOM     24  C   UNL     1       5.358   1.024  -2.526  0.00  0.00    +0.339 C 
ATOM     25  O   UNL     1       5.958   1.349  -3.534  0.00  0.00    -0.245 OA
BRANCH  24  26
ATOM     26  O   UNL     1       4.360   0.119  -2.598  0.00  0.00    -0.465 OA
ATOM     27  C   UNL     1       4.060  -0.416  -3.889  0.00  0.00    +0.280 C 
ENDBRANCH  24  26
ENDBRANCH   6  24
BRANCH   2  28
ATOM     28  C   UNL     1       5.411   1.008   2.452  0.00  0.00    +0.101 C 
ATOM     29  N   UNL     1       5.154   0.548   3.458  0.00  0.00    -0.191 NA
ENDBRANCH   2  28
TORSDOF 5
