REMARK  Name = ZINC39693558
REMARK  14 active torsions:
REMARK  status: ('A' for Active; 'I' for Inactive)
REMARK    1  A    between atoms: C_1  and  C_2
REMARK    2  A    between atoms: C_2  and  C_3
REMARK    3  A    between atoms: C_2  and  C_4
REMARK    4  A    between atoms: C_2  and  O_5
REMARK    5  A    between atoms: O_5  and  C_6
REMARK    6  A    between atoms: N_8  and  C_9
REMARK    7  A    between atoms: C_9  and  C_10
REMARK    8  A    between atoms: C_10  and  N_11
REMARK    9  A    between atoms: C_12  and  C_14
REMARK   10  A    between atoms: C_25  and  C_27
REMARK   11  A    between atoms: C_27  and  C_28
REMARK   12  A    between atoms: C_28  and  C_29
REMARK   13  A    between atoms: C_32  and  O_35
REMARK   14  A    between atoms: O_35  and  C_36
REMARK                            x       y       z     vdW  Elec       q    Type
REMARK                         _______ _______ _______ _____ _____    ______ ____
ROOT
ATOM      1  C   UNL     1       8.095  -0.218  -5.353  0.00  0.00    +0.100 C 
ATOM      2  C   UNL     1       8.177   1.303  -5.612  0.00  0.00    +0.121 C 
ATOM      3  N   UNL     1       9.264   1.456  -6.607  0.00  0.00    -0.300 N 
ATOM      4  C   UNL     1       9.081   0.311  -7.531  0.00  0.00    +0.115 C 
ATOM      5  C   UNL     1       8.690  -0.865  -6.615  0.00  0.00    -0.004 C 
ATOM      6  C   UNL     1       9.923  -1.688  -6.257  0.00  0.00    -0.010 C 
ATOM      7  C   UNL     1      10.463  -2.367  -7.519  0.00  0.00    -0.082 C 
ATOM      8  N   UNL     1       9.424  -3.231  -8.094  0.00  0.00    +0.379 N 
ATOM      9  C   UNL     1       8.278  -2.419  -8.521  0.00  0.00    -0.082 C 
ATOM     10  C   UNL     1       7.646  -1.742  -7.301  0.00  0.00    -0.010 C 
ATOM     11  C   UNL     1      10.205   2.419  -6.660  0.00  0.00    +0.216 C 
ATOM     12  O   UNL     1      11.034   2.408  -7.546  0.00  0.00    -0.276 OA
ATOM     13  H   UNL     1       9.801  -3.724  -8.889  0.00  0.00    -0.086 HD
ATOM     14  H   UNL     1       9.122  -3.898  -7.400  0.00  0.00    -0.086 HD
ENDROOT
BRANCH   1  16
ATOM     15  N   UNL     1       6.368  -1.713  -4.404  0.00  0.00    -0.314 N 
ATOM     16  C   UNL     1       6.661  -0.644  -5.171  0.00  0.00    +0.218 C 
ATOM     17  O   UNL     1       5.771  -0.024  -5.714  0.00  0.00    -0.275 OA
ATOM     18  H   UNL     1       7.080  -2.208  -3.970  0.00  0.00    +0.149 HD
BRANCH  15  19
ATOM     19  C   UNL     1       4.974  -2.126  -4.227  0.00  0.00    +0.123 C 
BRANCH  19  20
ATOM     20  C   UNL     1       4.918  -3.356  -3.319  0.00  0.00    +0.126 C 
BRANCH  20  23
ATOM     21  C   UNL     1       3.230  -4.839  -2.375  0.00  0.00    +0.401 C 
ATOM     22  O   UNL     1       4.122  -5.460  -1.831  0.00  0.00    -0.226 OA
ATOM     23  N   UNL     1       3.524  -3.770  -3.142  0.00  0.00    -0.280 N 
ATOM     24  H   UNL     1       2.812  -3.274  -3.576  0.00  0.00    +0.152 HD
BRANCH  21  25
ATOM     25  O   UNL     1       1.949  -5.219  -2.212  0.00  0.00    -0.445 OA
BRANCH  25  27
ATOM     26  C   UNL     1       2.242  -6.091   0.022  0.00  0.00    +0.055 C 
ATOM     27  C   UNL     1       1.711  -6.361  -1.387  0.00  0.00    +0.107 C 
ATOM     28  C   UNL     1       2.428  -7.576  -1.978  0.00  0.00    +0.055 C 
ATOM     29  C   UNL     1       0.208  -6.638  -1.321  0.00  0.00    +0.055 C 
ENDBRANCH  25  27
ENDBRANCH  21  25
ENDBRANCH  20  23
ENDBRANCH  19  20
ENDBRANCH  15  19
ENDBRANCH   1  16
BRANCH  11  30
ATOM     30  C   UNL     1      10.228   3.510  -5.620  0.00  0.00    +0.100 C 
BRANCH  30  31
ATOM     31  C   UNL     1      11.387   4.466  -5.909  0.00  0.00    +0.044 C 
BRANCH  31  32
ATOM     32  C   UNL     1      11.409   5.556  -4.869  0.00  0.00    -0.047 A 
ATOM     33  C   UNL     1      10.693   6.721  -5.075  0.00  0.00    +0.007 A 
ATOM     34  C   UNL     1      10.713   7.722  -4.123  0.00  0.00    +0.046 A 
ATOM     35  C   UNL     1      11.451   7.558  -2.960  0.00  0.00    +0.120 A 
ATOM     36  C   UNL     1      12.168   6.388  -2.756  0.00  0.00    +0.046 A 
ATOM     37  C   UNL     1      12.141   5.388  -3.708  0.00  0.00    +0.007 A 
BRANCH  35  38
ATOM     38  O   UNL     1      11.472   8.541  -2.023  0.00  0.00    -0.495 OA
ATOM     39  C   UNL     1      12.254   8.303  -0.850  0.00  0.00    +0.277 C 
ENDBRANCH  35  38
ENDBRANCH  31  32
ENDBRANCH  30  31
ENDBRANCH  11  30
TORSDOF 10
