REMARK  Name = ZINC13765807
REMARK  5 active torsions:
REMARK  status: ('A' for Active; 'I' for Inactive)
REMARK    1  A    between atoms: C_1  and  N_2
REMARK    2  A    between atoms: N_2  and  C_3
REMARK    3  A    between atoms: N_2  and  C_4
REMARK    4  A    between atoms: C_7  and  C_10
REMARK    5  A    between atoms: N_17  and  C_20
REMARK                            x       y       z     vdW  Elec       q    Type
REMARK                         _______ _______ _______ _____ _____    ______ ____
ROOT
ATOM      1  C   UNL     1      -0.606  -0.446  -0.885  0.00  0.00    +0.026 C 
ATOM      2  C   UNL     1       0.278   0.204  -0.043  0.00  0.00    +0.100 C 
ATOM      3  C   UNL     1       0.055   1.600   0.380  0.00  0.00    +0.257 C 
ATOM      4  O   UNL     1      -0.915   2.223  -0.007  0.00  0.00    -0.270 OA
ATOM      5  N   UNL     1       0.960   2.169   1.203  0.00  0.00    -0.235 N 
ATOM      6  C   UNL     1       2.037   1.496   1.632  0.00  0.00    +0.320 C 
ATOM      7  O   UNL     1       2.815   2.067   2.372  0.00  0.00    -0.251 OA
ATOM      8  N   UNL     1       2.303   0.227   1.290  0.00  0.00    -0.190 N 
ATOM      9  C   UNL     1       1.486  -0.469   0.473  0.00  0.00    +0.263 C 
ATOM     10  O   UNL     1       1.738  -1.620   0.170  0.00  0.00    -0.269 OA
ATOM     11  H   UNL     1       0.830   3.086   1.490  0.00  0.00    +0.159 HD
ENDROOT
BRANCH   8  12
ATOM     12  C   UNL     1       3.457  -0.390   1.793  0.00  0.00    +0.046 A 
ATOM     13  C   UNL     1       3.377  -1.204   2.914  0.00  0.00    +0.027 A 
ATOM     14  C   UNL     1       4.514  -1.816   3.405  0.00  0.00    +0.040 A 
ATOM     15  C   UNL     1       5.735  -1.608   2.786  0.00  0.00    +0.124 A 
ATOM     16  C   UNL     1       5.817  -0.792   1.671  0.00  0.00    +0.040 A 
ATOM     17  C   UNL     1       4.682  -0.183   1.173  0.00  0.00    +0.027 A 
ATOM     18  F   UNL     1       6.847  -2.203   3.271  0.00  0.00    -0.205 F 
ENDBRANCH   8  12
BRANCH   1  22
ATOM     19  C   UNL     1       0.487  -4.114  -2.673  0.00  0.00    +0.029 A 
ATOM     20  C   UNL     1      -0.797  -3.948  -2.158  0.00  0.00    +0.023 A 
ATOM     21  C   UNL     1      -1.156  -2.766  -1.579  0.00  0.00    +0.010 A 
ATOM     22  C   UNL     1      -0.228  -1.714  -1.504  0.00  0.00    -0.024 A 
ATOM     23  C   UNL     1       1.063  -1.884  -2.030  0.00  0.00    +0.010 A 
ATOM     24  C   UNL     1       1.413  -3.073  -2.600  0.00  0.00    +0.023 A 
BRANCH  19  26
ATOM     25  C   UNL     1      -0.123  -6.414  -3.338  0.00  0.00    +0.129 C 
ATOM     26  N   UNL     1       0.847  -5.319  -3.261  0.00  0.00    -0.336 N 
ATOM     27  C   UNL     1       2.196  -5.495  -3.803  0.00  0.00    +0.129 C 
ENDBRANCH  19  26
ENDBRANCH   1  22
TORSDOF 3
