REMARK  Name = ZINC16975923
REMARK  7 active torsions:
REMARK  status: ('A' for Active; 'I' for Inactive)
REMARK    1  A    between atoms: C_1  and  C_2
REMARK    2  A    between atoms: C_5  and  C_8
REMARK    3  A    between atoms: C_8  and  C_14
REMARK    4  A    between atoms: C_14  and  N_15
REMARK    5  A    between atoms: C_16  and  C_18
REMARK    6  A    between atoms: N_20  and  C_21
REMARK    7  A    between atoms: C_24  and  N_27
REMARK                            x       y       z     vdW  Elec       q    Type
REMARK                         _______ _______ _______ _____ _____    ______ ____
ROOT
ATOM      1  N   UNL     1       3.600  -4.872  -0.423  0.00  0.00    -0.307 N 
ATOM      2  C   UNL     1       2.428  -4.214  -0.315  0.00  0.00    +0.299 C 
ATOM      3  O   UNL     1       1.386  -4.834  -0.275  0.00  0.00    -0.265 OA
ATOM      4  H   UNL     1       4.433  -4.377  -0.455  0.00  0.00    +0.149 HD
ENDROOT
BRANCH   2   5
ATOM      5  C   UNL     1       2.414  -2.722  -0.245  0.00  0.00    +0.303 C 
ATOM      6  O   UNL     1       3.457  -2.103  -0.285  0.00  0.00    -0.265 OA
ATOM      7  N   UNL     1       1.242  -2.064  -0.138  0.00  0.00    -0.278 N 
ATOM      8  H   UNL     1       0.416  -2.560  -0.030  0.00  0.00    +0.155 HD
BRANCH   7   9
ATOM      9  C   UNL     1       1.219  -0.668  -0.180  0.00  0.00    +0.034 A 
ATOM     10  C   UNL     1       2.137   0.020  -0.965  0.00  0.00    +0.025 A 
ATOM     11  C   UNL     1       2.111   1.400  -1.005  0.00  0.00    +0.034 A 
ATOM     12  C   UNL     1       1.173   2.098  -0.265  0.00  0.00    +0.126 A 
ATOM     13  C   UNL     1       0.258   1.416   0.517  0.00  0.00    +0.034 A 
ATOM     14  C   UNL     1       0.279   0.036   0.561  0.00  0.00    +0.025 A 
BRANCH  12  15
ATOM     15  N   UNL     1       1.148   3.577  -0.310  0.00  0.00    +0.056 N 
ATOM     16  O   UNL     1       1.953   4.179  -0.998  0.00  0.00    -0.126 OA
ATOM     17  O   UNL     1       0.323   4.192   0.340  0.00  0.00    -0.126 OA
ENDBRANCH  12  15
ENDBRANCH   7   9
ENDBRANCH   2   5
BRANCH   1  18
ATOM     18  C   UNL     1       3.614  -6.335  -0.491  0.00  0.00    +0.116 C 
BRANCH  18  19
ATOM     19  C   UNL     1       5.061  -6.832  -0.484  0.00  0.00    +0.015 C 
ATOM     20  C   UNL     1       5.782  -6.327  -1.737  0.00  0.00    +0.041 C 
ATOM     21  C   UNL     1       5.107  -6.917  -2.978  0.00  0.00    +0.160 C 
ATOM     22  O   UNL     1       5.129  -8.344  -2.898  0.00  0.00    -0.380 OA
ATOM     23  C   UNL     1       4.429  -8.875  -1.771  0.00  0.00    +0.160 C 
ATOM     24  C   UNL     1       5.077  -8.364  -0.482  0.00  0.00    +0.041 C 
BRANCH  19  29
ATOM     25  C   UNL     1       7.758  -4.864   4.233  0.00  0.00    +0.044 C 
ATOM     26  C   UNL     1       7.054  -5.377   3.003  0.00  0.00    -0.050 A 
ATOM     27  C   UNL     1       7.463  -4.962   1.749  0.00  0.00    +0.003 A 
ATOM     28  C   UNL     1       6.818  -5.433   0.621  0.00  0.00    +0.004 A 
ATOM     29  C   UNL     1       5.764  -6.319   0.746  0.00  0.00    -0.040 A 
ATOM     30  C   UNL     1       5.352  -6.729   2.000  0.00  0.00    +0.004 A 
ATOM     31  C   UNL     1       6.000  -6.262   3.128  0.00  0.00    +0.003 A 
ENDBRANCH  19  29
ENDBRANCH  18  19
ENDBRANCH   1  18
TORSDOF 6
