REMARK  Name = ZINC23362286
REMARK  12 active torsions:
REMARK  status: ('A' for Active; 'I' for Inactive)
REMARK    1  A    between atoms: C_1  and  C_2
REMARK    2  A    between atoms: C_2  and  C_3
REMARK    3  A    between atoms: C_3  and  N_4
REMARK    4  A    between atoms: C_7  and  N_10
REMARK    5  A    between atoms: C_12  and  N_23
REMARK    6  A    between atoms: C_15  and  C_17
REMARK    7  A    between atoms: N_19  and  C_20
REMARK    8  A    between atoms: C_20  and  C_21
REMARK    9  A    between atoms: C_20  and  C_22
REMARK   10  A    between atoms: N_23  and  C_24
REMARK   11  A    between atoms: C_24  and  C_25
REMARK   12  A    between atoms: C_28  and  C_31
REMARK                            x       y       z     vdW  Elec       q    Type
REMARK                         _______ _______ _______ _____ _____    ______ ____
ROOT
ATOM      1  N   UNL     1       0.329  -6.045   2.275  0.00  0.00    -0.290 NA
ATOM      2  C   UNL     1      -1.015  -6.648   2.331  0.00  0.00    +0.070 C 
ATOM      3  C   UNL     1      -1.010  -7.669   3.488  0.00  0.00    -0.055 C 
ATOM      4  C   UNL     1       0.496  -7.999   3.657  0.00  0.00    +0.014 C 
ATOM      5  C   UNL     1       1.152  -6.628   3.356  0.00  0.00    +0.142 C 
ENDROOT
BRANCH   1   9
ATOM      6  N   UNL     1       0.762  -1.980   1.234  0.00  0.00    +0.380 N 
ATOM      7  C   UNL     1      -0.610  -2.487   1.355  0.00  0.00    -0.077 C 
ATOM      8  C   UNL     1      -0.603  -4.014   1.266  0.00  0.00    +0.000 C 
ATOM      9  C   UNL     1       0.256  -4.583   2.400  0.00  0.00    +0.054 C 
ATOM     10  C   UNL     1       1.664  -3.989   2.307  0.00  0.00    +0.000 C 
ATOM     11  C   UNL     1       1.573  -2.463   2.357  0.00  0.00    -0.077 C 
ATOM     12  H   UNL     1       1.163  -2.305   0.366  0.00  0.00    -0.082 HD
BRANCH   6  13
ATOM     13  C   UNL     1       0.742  -0.511   1.242  0.00  0.00    -0.079 C 
BRANCH  13  15
ATOM     14  C   UNL     1      -0.019   1.526   0.010  0.00  0.00    +0.002 C 
ATOM     15  C   UNL     1       0.002  -0.004   0.002  0.00  0.00    -0.022 C 
ENDBRANCH  13  15
ENDBRANCH   6  13
ENDBRANCH   1   9
BRANCH   5  16
ATOM     16  C   UNL     1       2.573  -6.817   2.889  0.00  0.00    +0.230 C 
ATOM     17  O   UNL     1       2.888  -6.500   1.762  0.00  0.00    -0.274 OA
ATOM     18  N   UNL     1       3.493  -7.338   3.725  0.00  0.00    -0.312 N 
ATOM     19  H   UNL     1       3.240  -7.592   4.627  0.00  0.00    +0.149 HD
BRANCH  18  20
ATOM     20  C   UNL     1       4.873  -7.522   3.272  0.00  0.00    +0.067 C 
ATOM     21  C   UNL     1       5.651  -6.218   3.465  0.00  0.00    +0.027 C 
ATOM     22  C   UNL     1       5.534  -8.635   4.087  0.00  0.00    +0.027 C 
ENDBRANCH  18  20
ENDBRANCH   5  16
BRANCH   3  23
ATOM     23  N   UNL     1      -1.771  -8.871   3.123  0.00  0.00    +0.384 N 
ATOM     24  H   UNL     1      -1.421  -9.239   2.250  0.00  0.00    -0.085 HD
ATOM     25  H   UNL     1      -1.668  -9.568   3.846  0.00  0.00    -0.085 HD
BRANCH  23  26
ATOM     26  C   UNL     1      -3.191  -8.526   2.974  0.00  0.00    -0.046 C 
BRANCH  26  27
ATOM     27  C   UNL     1      -3.971  -9.760   2.599  0.00  0.00    -0.064 A 
ATOM     28  C   UNL     1      -4.145 -10.090   1.268  0.00  0.00    +0.002 A 
ATOM     29  C   UNL     1      -4.861 -11.221   0.924  0.00  0.00    +0.012 A 
ATOM     30  C   UNL     1      -5.402 -12.023   1.912  0.00  0.00    +0.055 A 
ATOM     31  C   UNL     1      -5.228 -11.694   3.243  0.00  0.00    +0.012 A 
ATOM     32  C   UNL     1      -4.508 -10.565   3.587  0.00  0.00    +0.002 A 
BRANCH  30  33
ATOM     33  C   UNL     1      -6.184 -13.256   1.537  0.00  0.00    +0.417 C 
ATOM     34  F   UNL     1      -5.316 -14.350   1.451  0.00  0.00    -0.166 F 
ATOM     35  F   UNL     1      -7.155 -13.507   2.512  0.00  0.00    -0.166 F 
ATOM     36  F   UNL     1      -6.806 -13.056   0.300  0.00  0.00    -0.166 F 
ENDBRANCH  30  33
ENDBRANCH  26  27
ENDBRANCH  23  26
ENDBRANCH   3  23
TORSDOF 9
