REMARK  Name = ZINC61710838
REMARK  4 active torsions:
REMARK  status: ('A' for Active; 'I' for Inactive)
REMARK    1  A    between atoms: C_3  and  N_10
REMARK    2  A    between atoms: C_4  and  C_8
REMARK    3  A    between atoms: C_8  and  O_9
REMARK    4  A    between atoms: C_13  and  O_16
REMARK                            x       y       z     vdW  Elec       q    Type
REMARK                         _______ _______ _______ _____ _____    ______ ____
ROOT
ATOM      1  C   UNL     1      -0.017   1.380   0.010  0.00  0.00    +0.040 A 
ATOM      2  C   UNL     1       1.169   2.088   0.002  0.00  0.00    +0.026 A 
ATOM      3  C   UNL     1       2.381   1.410  -0.013  0.00  0.00    +0.035 A 
ATOM      4  C   UNL     1       2.398   0.021  -0.021  0.00  0.00    +0.002 A 
ATOM      5  C   UNL     1       1.210  -0.682  -0.013  0.00  0.00    +0.046 A 
ATOM      6  C   UNL     1       0.002  -0.004   0.002  0.00  0.00    +0.124 A 
ATOM      7  F   UNL     1      -1.159  -0.694   0.010  0.00  0.00    -0.205 F 
ENDROOT
BRANCH   3   8
ATOM      8  N   UNL     1       3.583   2.125  -0.021  0.00  0.00    -0.327 N 
ATOM      9  C   UNL     1       4.307   2.575  -1.224  0.00  0.00    +0.108 C 
ATOM     10  C   UNL     1       5.152   3.783  -0.749  0.00  0.00    +0.052 C 
ATOM     11  C   UNL     1       5.572   3.329   0.674  0.00  0.00    +0.133 C 
ATOM     12  C   UNL     1       4.331   2.557   1.169  0.00  0.00    +0.136 C 
BRANCH  11  13
ATOM     13  O   UNL     1       6.718   2.477   0.615  0.00  0.00    -0.390 OA
ATOM     14  H   UNL     1       7.503   2.898   0.239  0.00  0.00    +0.210 HD
ENDBRANCH  11  13
ENDBRANCH   3   8
BRANCH   4  15
ATOM     15  C   UNL     1       3.711  -0.717  -0.038  0.00  0.00    +0.193 C 
BRANCH  15  16
ATOM     16  O   UNL     1       3.466  -2.125  -0.043  0.00  0.00    -0.390 OA
ATOM     17  H   UNL     1       4.269  -2.664  -0.053  0.00  0.00    +0.210 HD
ENDBRANCH  15  16
ENDBRANCH   4  15
TORSDOF 4
