REMARK  Name = ZINC21727546
REMARK  11 active torsions:
REMARK  status: ('A' for Active; 'I' for Inactive)
REMARK    1  A    between atoms: C_1  and  C_2
REMARK    2  A    between atoms: C_2  and  C_3
REMARK    3  A    between atoms: C_2  and  C_4
REMARK    4  A    between atoms: C_2  and  C_5
REMARK    5  A    between atoms: C_8  and  C_11
REMARK    6  A    between atoms: N_13  and  C_14
REMARK    7  A    between atoms: C_14  and  C_15
REMARK    8  A    between atoms: C_18  and  S_20
REMARK    9  A    between atoms: S_20  and  C_21
REMARK   10  A    between atoms: C_21  and  C_22
REMARK   11  A    between atoms: C_22  and  N_23
REMARK                            x       y       z     vdW  Elec       q    Type
REMARK                         _______ _______ _______ _____ _____    ______ ____
ROOT
ATOM      1  C   UNL     1       2.321   5.714   0.011  0.00  0.00    +0.202 C 
ENDROOT
BRANCH   1   2
ATOM      2  C   UNL     1       3.737   6.228  -0.000  0.00  0.00    +0.235 A 
ATOM      3  N   UNL     1       4.451   6.491  -1.055  0.00  0.00    -0.110 NA
ATOM      4  N   UNL     1       5.612   6.915  -0.696  0.00  0.00    -0.101 NA
ATOM      5  C   UNL     1       5.681   6.929   0.614  0.00  0.00    +0.277 A 
ATOM      6  O   UNL     1       4.496   6.494   1.081  0.00  0.00    -0.414 OA
BRANCH   5   7
ATOM      7  S   UNL     1       7.068   7.424   1.581  0.00  0.00    -0.064 S 
BRANCH   7   8
ATOM      8  C   UNL     1       8.231   7.858   0.264  0.00  0.00    +0.094 C 
BRANCH   8   9
ATOM      9  C   UNL     1       9.548   8.331   0.883  0.00  0.00    +0.095 C 
BRANCH   9  10
ATOM     10  N   UNL     1      10.492   8.683  -0.186  0.00  0.00    -0.297 NA
ATOM     11  C   UNL     1      10.883   7.494  -0.957  0.00  0.00    +0.112 C 
ATOM     12  C   UNL     1      11.818   7.914  -2.095  0.00  0.00    +0.175 C 
ATOM     13  O   UNL     1      12.947   8.599  -1.548  0.00  0.00    -0.377 OA
ATOM     14  C   UNL     1      12.604   9.763  -0.791  0.00  0.00    +0.175 C 
ATOM     15  C   UNL     1      11.677   9.362   0.359  0.00  0.00    +0.112 C 
ENDBRANCH   9  10
ENDBRANCH   8   9
ENDBRANCH   7   8
ENDBRANCH   5   7
ENDBRANCH   1   2
BRANCH   1  18
ATOM     16  C   UNL     1       1.172   3.565   0.010  0.00  0.00    +0.244 C 
ATOM     17  O   UNL     1       0.114   4.164   0.023  0.00  0.00    -0.270 OA
ATOM     18  N   UNL     1       2.333   4.249   0.003  0.00  0.00    -0.303 N 
ATOM     19  H   UNL     1       3.290   3.707  -0.009  0.00  0.00    +0.150 HD
BRANCH  16  23
ATOM     20  C   UNL     1       1.208  -0.682  -0.013  0.00  0.00    -0.042 A 
ATOM     21  C   UNL     1       0.002  -0.004   0.002  0.00  0.00    +0.005 A 
ATOM     22  C   UNL     1      -0.017   1.375   0.010  0.00  0.00    +0.013 A 
ATOM     23  C   UNL     1       1.184   2.087   0.002  0.00  0.00    +0.037 A 
ATOM     24  C   UNL     1       2.397   1.396  -0.013  0.00  0.00    +0.013 A 
ATOM     25  C   UNL     1       2.402   0.016  -0.021  0.00  0.00    +0.005 A 
BRANCH  20  27
ATOM     26  C   UNL     1       0.491  -2.699  -1.266  0.00  0.00    +0.015 C 
ATOM     27  C   UNL     1       1.221  -2.189  -0.021  0.00  0.00    -0.013 C 
ATOM     28  C   UNL     1       2.667  -2.687  -0.037  0.00  0.00    +0.015 C 
ATOM     29  C   UNL     1       0.516  -2.712   1.233  0.00  0.00    +0.015 C 
ENDBRANCH  20  27
ENDBRANCH  16  23
ENDBRANCH   1  18
TORSDOF 8
