REMARK  Name = ZINC20115152
REMARK  9 active torsions:
REMARK  status: ('A' for Active; 'I' for Inactive)
REMARK    1  A    between atoms: C_3  and  C_10
REMARK    2  A    between atoms: C_5  and  N_7
REMARK    3  A    between atoms: C_11  and  C_12
REMARK    4  A    between atoms: N_14  and  C_15
REMARK    5  A    between atoms: C_15  and  N_17
REMARK    6  A    between atoms: N_17  and  C_18
REMARK    7  A    between atoms: C_21  and  C_24
REMARK    8  A    between atoms: N_26  and  C_27
REMARK    9  A    between atoms: C_27  and  C_28
REMARK                            x       y       z     vdW  Elec       q    Type
REMARK                         _______ _______ _______ _____ _____    ______ ____
ROOT
ATOM      1  N   UNL     1      -3.638  10.102   0.087  0.00  0.00    -0.297 N 
ATOM      2  H   UNL     1      -4.340   9.559   0.737  0.00  0.00    +0.154 HD
ENDROOT
BRANCH   1   3
ATOM      3  C   UNL     1      -3.566  11.492   0.148  0.00  0.00    +0.033 A 
ATOM      4  C   UNL     1      -2.327  12.126   0.118  0.00  0.00    +0.024 A 
ATOM      5  C   UNL     1      -2.253  13.499   0.173  0.00  0.00    +0.015 A 
ATOM      6  C   UNL     1      -3.424  14.257   0.269  0.00  0.00    +0.037 A 
ATOM      7  C   UNL     1      -4.666  13.618   0.304  0.00  0.00    +0.015 A 
ATOM      8  C   UNL     1      -4.733  12.244   0.244  0.00  0.00    +0.024 A 
BRANCH   6   9
ATOM      9  C   UNL     1      -3.348  15.730   0.334  0.00  0.00    +0.244 C 
ATOM     10  O   UNL     1      -4.367  16.388   0.416  0.00  0.00    -0.270 OA
ATOM     11  N   UNL     1      -2.149  16.345   0.300  0.00  0.00    -0.304 N 
ATOM     12  H   UNL     1      -1.227  15.749   0.225  0.00  0.00    +0.149 HD
BRANCH  11  13
ATOM     13  C   UNL     1      -2.074  17.806   0.363  0.00  0.00    +0.179 C 
BRANCH  13  14
ATOM     14  C   UNL     1      -0.631  18.238   0.309  0.00  0.00    +0.122 A 
ATOM     15  C   UNL     1       0.066  18.514  -0.808  0.00  0.00    +0.046 A 
ATOM     16  C   UNL     1       1.370  18.875  -0.399  0.00  0.00    +0.041 A 
ATOM     17  C   UNL     1       1.392  18.799   0.944  0.00  0.00    +0.195 A 
ATOM     18  O   UNL     1       0.175  18.419   1.367  0.00  0.00    -0.466 OA
ENDBRANCH  13  14
ENDBRANCH  11  13
ENDBRANCH   6   9
ENDBRANCH   1   3
BRANCH   1  19
ATOM     19  C   UNL     1      -2.847   9.424  -0.768  0.00  0.00    +0.141 C 
ATOM     20  S   UNL     1      -1.859  10.273  -1.878  0.00  0.00    -0.018 S 
BRANCH  19  23
ATOM     21  C   UNL     1      -2.044   7.397  -1.604  0.00  0.00    +0.242 C 
ATOM     22  O   UNL     1      -1.342   8.001  -2.393  0.00  0.00    -0.270 OA
ATOM     23  N   UNL     1      -2.835   8.076  -0.749  0.00  0.00    -0.264 N 
ATOM     24  H   UNL     1      -3.470   7.530  -0.036  0.00  0.00    +0.157 HD
BRANCH  21  26
ATOM     25  C   UNL     1      -1.240   5.255  -2.439  0.00  0.00    +0.013 C 
ATOM     26  C   UNL     1      -2.031   5.934  -1.584  0.00  0.00    +0.068 C 
BRANCH  25  29
ATOM     27  C   UNL     1      -2.018   1.707  -1.504  0.00  0.00    +0.003 A 
ATOM     28  C   UNL     1      -2.032   3.086  -1.514  0.00  0.00    +0.008 A 
ATOM     29  C   UNL     1      -1.226   3.784  -2.419  0.00  0.00    -0.023 A 
ATOM     30  C   UNL     1      -0.407   3.076  -3.304  0.00  0.00    +0.040 A 
ATOM     31  C   UNL     1      -0.400   1.697  -3.279  0.00  0.00    +0.127 A 
ATOM     32  C   UNL     1      -1.200   1.014  -2.380  0.00  0.00    +0.033 A 
BRANCH  31  33
ATOM     33  N   UNL     1       0.466   0.946  -4.215  0.00  0.00    +0.056 N 
ATOM     34  O   UNL     1       0.474  -0.272  -4.194  0.00  0.00    -0.126 OA
ATOM     35  O   UNL     1       1.171   1.546  -5.007  0.00  0.00    -0.126 OA
ENDBRANCH  31  33
ENDBRANCH  25  29
ENDBRANCH  21  26
ENDBRANCH  19  23
ENDBRANCH   1  19
TORSDOF 9
