REMARK  Name = ZINC13734845
REMARK  6 active torsions:
REMARK  status: ('A' for Active; 'I' for Inactive)
REMARK    1  A    between atoms: C_1  and  C_2
REMARK    2  A    between atoms: C_8  and  C_10
REMARK    3  A    between atoms: C_10  and  N_11
REMARK    4  A    between atoms: C_12  and  C_14
REMARK    5  A    between atoms: N_19  and  S_21
REMARK    6  A    between atoms: S_21  and  C_24
REMARK                            x       y       z     vdW  Elec       q    Type
REMARK                         _______ _______ _______ _____ _____    ______ ____
ROOT
ATOM      1  N   UNL     1      -3.608   1.789   0.029  0.00  0.00    -0.306 N 
ATOM      2  C   UNL     1      -4.873   1.323   0.032  0.00  0.00    +0.218 C 
ATOM      3  O   UNL     1      -5.078   0.128   0.027  0.00  0.00    -0.275 OA
ATOM      4  H   UNL     1      -3.444   2.745   0.033  0.00  0.00    +0.149 HD
ENDROOT
BRANCH   2   5
ATOM      5  C   UNL     1      -6.031   2.287   0.043  0.00  0.00    +0.091 C 
ATOM      6  C   UNL     1      -5.971   3.172  -1.204  0.00  0.00    +0.015 C 
ATOM      7  C   UNL     1      -7.129   4.173  -1.177  0.00  0.00    +0.018 C 
ATOM      8  C   UNL     1      -8.457   3.411  -1.189  0.00  0.00    +0.109 C 
ATOM      9  N   UNL     1      -8.463   2.452  -0.076  0.00  0.00    -0.176 NA
ATOM     10  C   UNL     1      -7.348   1.503   0.045  0.00  0.00    +0.122 C 
BRANCH   9  11
ATOM     11  S   UNL     1      -9.702   2.442   1.023  0.00  0.00    +0.061 S 
ATOM     12  O   UNL     1     -10.827   3.017   0.372  0.00  0.00    -0.153 OA
ATOM     13  O   UNL     1      -9.734   1.139   1.588  0.00  0.00    -0.153 OA
BRANCH  11  14
ATOM     14  C   UNL     1      -9.255   3.544   2.323  0.00  0.00    +0.105 A 
ATOM     15  C   UNL     1      -8.559   3.072   3.420  0.00  0.00    +0.028 A 
ATOM     16  C   UNL     1      -8.204   3.938   4.438  0.00  0.00    +0.002 A 
ATOM     17  C   UNL     1      -8.554   5.273   4.363  0.00  0.00    +0.000 A 
ATOM     18  C   UNL     1      -9.254   5.744   3.268  0.00  0.00    +0.002 A 
ATOM     19  C   UNL     1      -9.605   4.879   2.248  0.00  0.00    +0.028 A 
ENDBRANCH  11  14
ENDBRANCH   9  11
ENDBRANCH   2   5
BRANCH   1  20
ATOM     20  C   UNL     1      -2.482   0.853   0.018  0.00  0.00    +0.200 C 
BRANCH  20  28
ATOM     21  C   UNL     1       5.119   2.966  -0.031  0.00  0.00    +0.053 C 
ATOM     22  C   UNL     1       3.644   2.656  -0.019  0.00  0.00    +0.008 A 
ATOM     23  C   UNL     1       2.583   3.499  -0.004  0.00  0.00    +0.124 A 
ATOM     24  N   UNL     1       1.370   2.983   0.005  0.00  0.00    -0.233 NA
ATOM     25  C   UNL     1       1.183   1.677  -0.000  0.00  0.00    +0.165 A 
ATOM     26  S   UNL     1       2.812   1.075  -0.012  0.00  0.00    -0.057 S 
ATOM     27  N   UNL     1      -0.011   0.966   0.007  0.00  0.00    -0.263 N 
ATOM     28  C   UNL     1      -1.187   1.624   0.017  0.00  0.00    +0.236 C 
ATOM     29  O   UNL     1      -1.204   2.837   0.023  0.00  0.00    -0.274 OA
ATOM     30  H   UNL     1       0.002  -0.004   0.002  0.00  0.00    +0.157 HD
ENDBRANCH  20  28
ENDBRANCH   1  20
TORSDOF 5
