REMARK  Name = ZINC38654652
REMARK  5 active torsions:
REMARK  status: ('A' for Active; 'I' for Inactive)
REMARK    1  A    between atoms: C_7  and  C_10
REMARK    2  A    between atoms: N_11  and  N_12
REMARK    3  A    between atoms: C_23  and  C_28
REMARK    4  A    between atoms: C_25  and  N_27
REMARK    5  A    between atoms: N_30  and  C_31
REMARK                            x       y       z     vdW  Elec       q    Type
REMARK                         _______ _______ _______ _____ _____    ______ ____
ROOT
ATOM      1  N   UNL     1       0.269  -5.282  -0.146  0.00  0.00    -0.219 N 
ATOM      2  C   UNL     1      -1.114  -5.195  -0.205  0.00  0.00    +0.162 A 
ATOM      3  C   UNL     1      -1.706  -6.466  -0.286  0.00  0.00    +0.095 A 
ATOM      4  N   UNL     1      -3.009  -6.603  -0.350  0.00  0.00    -0.246 NA
ATOM      5  C   UNL     1      -3.797  -5.521  -0.340  0.00  0.00    +0.090 A 
ATOM      6  C   UNL     1      -5.195  -5.640  -0.407  0.00  0.00    +0.030 A 
ATOM      7  C   UNL     1      -5.969  -4.521  -0.394  0.00  0.00    +0.002 A 
ATOM      8  C   UNL     1      -5.394  -3.253  -0.315  0.00  0.00    +0.002 A 
ATOM      9  C   UNL     1      -4.044  -3.100  -0.249  0.00  0.00    +0.030 A 
ATOM     10  C   UNL     1      -3.211  -4.233  -0.259  0.00  0.00    +0.091 A 
ATOM     11  N   UNL     1      -1.883  -4.113  -0.195  0.00  0.00    -0.227 NA
ATOM     12  C   UNL     1      -0.604  -7.503  -0.280  0.00  0.00    +0.132 C 
ATOM     13  C   UNL     1       0.694  -6.683  -0.191  0.00  0.00    +0.058 C 
ENDROOT
BRANCH  13  14
ATOM     14  N   UNL     1       1.430  -7.031   1.032  0.00  0.00    +0.392 N 
ATOM     15  H   UNL     1       0.812  -6.963   1.827  0.00  0.00    -0.087 HD
ATOM     16  H   UNL     1       1.779  -7.975   0.957  0.00  0.00    -0.087 HD
ATOM     17  H   UNL     1       2.204  -6.395   1.151  0.00  0.00    -0.087 HD
ENDBRANCH  13  14
BRANCH  12  18
ATOM     18  C   UNL     1      -0.631  -8.307  -1.554  0.00  0.00    +0.226 C 
ATOM     19  O   UNL     1       0.325  -8.291  -2.301  0.00  0.00    -0.275 OA
ATOM     20  N   UNL     1      -1.716  -9.043  -1.863  0.00  0.00    -0.285 N 
ATOM     21  H   UNL     1      -2.453  -9.107  -1.236  0.00  0.00    +0.155 HD
BRANCH  20  22
ATOM     22  C   UNL     1      -1.780  -9.716  -3.089  0.00  0.00    +0.033 A 
ATOM     23  C   UNL     1      -2.985  -9.801  -3.774  0.00  0.00    +0.025 A 
ATOM     24  C   UNL     1      -3.044 -10.465  -4.984  0.00  0.00    +0.022 A 
ATOM     25  C   UNL     1      -1.905 -11.045  -5.513  0.00  0.00    +0.041 A 
ATOM     26  C   UNL     1      -0.703 -10.961  -4.832  0.00  0.00    +0.022 A 
ATOM     27  C   UNL     1      -0.636 -10.293  -3.625  0.00  0.00    +0.025 A 
ATOM     28 CL   UNL     1      -1.984 -11.879  -7.033  0.00  0.00    -0.084 Cl
ENDBRANCH  20  22
ENDBRANCH  12  18
BRANCH   1  30
ATOM     29  C   UNL     1       2.366  -4.457  -0.126  0.00  0.00    +0.136 C 
ATOM     30  N   UNL     1       1.068  -4.273  -0.068  0.00  0.00    -0.188 NA
BRANCH  29  37
ATOM     31  C   UNL     1       6.891  -4.172  -0.137  0.00  0.00    +0.001 A 
ATOM     32  C   UNL     1       7.370  -2.885   0.122  0.00  0.00    +0.002 A 
ATOM     33  C   UNL     1       6.533  -1.844   0.350  0.00  0.00    +0.026 A 
ATOM     34  C   UNL     1       5.129  -2.049   0.329  0.00  0.00    +0.043 A 
ATOM     35  N   UNL     1       4.123  -1.217   0.517  0.00  0.00    -0.380 N 
ATOM     36  C   UNL     1       2.859  -1.948   0.386  0.00  0.00    +0.150 C 
ATOM     37  C   UNL     1       3.235  -3.382   0.083  0.00  0.00    +0.000 C 
ATOM     38  C   UNL     1       4.630  -3.406   0.056  0.00  0.00    +0.004 A 
ATOM     39  C   UNL     1       5.561  -4.442  -0.172  0.00  0.00    +0.010 A 
ATOM     40  H   UNL     1       4.207  -0.271   0.712  0.00  0.00    +0.160 HD
ENDBRANCH  29  37
ENDBRANCH   1  30
TORSDOF 5
