REMARK  Name = ZINC25452547
REMARK  10 active torsions:
REMARK  status: ('A' for Active; 'I' for Inactive)
REMARK    1  A    between atoms: C_1  and  C_2
REMARK    2  A    between atoms: C_5  and  C_7
REMARK    3  A    between atoms: C_8  and  C_9
REMARK    4  A    between atoms: N_14  and  C_16
REMARK    5  A    between atoms: C_16  and  N_17
REMARK    6  A    between atoms: N_20  and  C_23
REMARK    7  A    between atoms: C_23  and  C_24
REMARK    8  A    between atoms: N_26  and  C_27
REMARK    9  A    between atoms: C_27  and  C_28
REMARK   10  A    between atoms: C_27  and  C_29
REMARK                            x       y       z     vdW  Elec       q    Type
REMARK                         _______ _______ _______ _____ _____    ______ ____
ROOT
ATOM      1  C   UNL     1       4.787  -7.660  -0.071  0.00  0.00    +0.072 C 
ENDROOT
BRANCH   1   7
ATOM      2  C   UNL     1       3.907  -4.160  -0.041  0.00  0.00    +0.153 A 
ATOM      3  N   UNL     1       5.289  -4.093  -0.042  0.00  0.00    -0.318 N 
ATOM      4  H   UNL     1       5.819  -3.281  -0.036  0.00  0.00    +0.169 HD
ATOM      5  C   UNL     1       5.772  -5.352  -0.053  0.00  0.00    +0.174 A 
ATOM      6  S   UNL     1       7.425  -5.798  -0.058  0.00  0.00    -0.012 S 
ATOM      7  N   UNL     1       4.721  -6.196  -0.059  0.00  0.00    -0.257 N 
ATOM      8  N   UNL     1       3.554  -5.420  -0.046  0.00  0.00    -0.153 NA
BRANCH   2  10
ATOM      9  C   UNL     1       1.657  -3.215  -0.025  0.00  0.00    +0.050 C 
ATOM     10  C   UNL     1       2.993  -3.014  -0.030  0.00  0.00    +0.051 C 
BRANCH   9  15
ATOM     11  C   UNL     1      -0.018   1.503   0.010  0.00  0.00    +0.086 C 
ATOM     12  C   UNL     1       0.002  -0.004   0.002  0.00  0.00    +0.103 A 
ATOM     13  C   UNL     1      -1.084  -0.804   0.003  0.00  0.00    +0.045 A 
ATOM     14  C   UNL     1      -0.620  -2.132  -0.007  0.00  0.00    +0.049 A 
ATOM     15  C   UNL     1       0.745  -2.071  -0.014  0.00  0.00    +0.128 A 
ATOM     16  O   UNL     1       1.104  -0.771  -0.013  0.00  0.00    -0.461 OA
ENDBRANCH   9  15
ENDBRANCH   2  10
ENDBRANCH   1   7
BRANCH   1  17
ATOM     17  N   UNL     1       4.452  -8.176   1.263  0.00  0.00    +0.394 N 
ATOM     18  C   UNL     1       5.477  -7.747   2.225  0.00  0.00    -0.061 C 
ATOM     19  C   UNL     1       5.119  -8.269   3.618  0.00  0.00    +0.066 C 
ATOM     20  N   UNL     1       5.039  -9.736   3.583  0.00  0.00    -0.298 NA
ATOM     21  C   UNL     1       4.035 -10.181   2.606  0.00  0.00    +0.066 C 
ATOM     22  C   UNL     1       4.401  -9.643   1.221  0.00  0.00    -0.061 C 
ATOM     23  H   UNL     1       3.554  -7.816   1.547  0.00  0.00    -0.079 HD
BRANCH  20  24
ATOM     24  C   UNL     1       4.752 -10.280   4.917  0.00  0.00    +0.180 C 
BRANCH  24  25
ATOM     25  C   UNL     1       4.920 -11.777   4.896  0.00  0.00    +0.227 C 
ATOM     26  O   UNL     1       5.245 -12.337   3.870  0.00  0.00    -0.274 OA
ATOM     27  N   UNL     1       4.707 -12.495   6.017  0.00  0.00    -0.312 N 
ATOM     28  H   UNL     1       4.447 -12.048   6.837  0.00  0.00    +0.149 HD
BRANCH  27  29
ATOM     29  C   UNL     1       4.870 -13.951   5.996  0.00  0.00    +0.067 C 
ATOM     30  C   UNL     1       6.341 -14.303   6.225  0.00  0.00    +0.027 C 
ATOM     31  C   UNL     1       4.018 -14.575   7.103  0.00  0.00    +0.027 C 
ENDBRANCH  27  29
ENDBRANCH  24  25
ENDBRANCH  20  24
ENDBRANCH   1  17
TORSDOF 7
