REMARK  Name = ZINC39746978
REMARK  5 active torsions:
REMARK  status: ('A' for Active; 'I' for Inactive)
REMARK    1  A    between atoms: C_4  and  C_7
REMARK    2  A    between atoms: C_7  and  C_9
REMARK    3  A    between atoms: C_7  and  N_16
REMARK    4  A    between atoms: C_9  and  C_10
REMARK    5  A    between atoms: C_17  and  C_19
REMARK                            x       y       z     vdW  Elec       q    Type
REMARK                         _______ _______ _______ _____ _____    ______ ____
ROOT
ATOM      1  C   UNL     1       3.711  -0.707  -0.038  0.00  0.00    +0.111 C 
ENDROOT
BRANCH   1   5
ATOM      2  C   UNL     1      -0.017   1.378   0.010  0.00  0.00    +0.000 A 
ATOM      3  C   UNL     1       1.171   2.086   0.002  0.00  0.00    +0.000 A 
ATOM      4  C   UNL     1       2.377   1.411  -0.013  0.00  0.00    +0.005 A 
ATOM      5  C   UNL     1       2.396   0.029  -0.020  0.00  0.00    -0.027 A 
ATOM      6  C   UNL     1       1.208  -0.679  -0.012  0.00  0.00    +0.005 A 
ATOM      7  C   UNL     1       0.002  -0.004   0.002  0.00  0.00    +0.000 A 
ENDBRANCH   1   5
BRANCH   1   8
ATOM      8  N   UNL     1       3.630  -1.873   0.845  0.00  0.00    -0.302 N 
ATOM      9  C   UNL     1       3.871  -1.738   2.164  0.00  0.00    +0.279 C 
ATOM     10  O   UNL     1       4.155  -0.648   2.622  0.00  0.00    -0.267 OA
ATOM     11  H   UNL     1       3.403  -2.743   0.480  0.00  0.00    +0.150 HD
BRANCH   9  12
ATOM     12  C   UNL     1       3.789  -2.912   3.053  0.00  0.00    +0.180 C 
ATOM     13  C   UNL     1       4.008  -2.855   4.367  0.00  0.00    +0.028 C 
ATOM     14  C   UNL     1       3.816  -4.259   4.915  0.00  0.00    +0.087 C 
ATOM     15  C   UNL     1       3.079  -4.957   3.747  0.00  0.00    +0.244 C 
ATOM     16  O   UNL     1       3.478  -4.158   2.618  0.00  0.00    -0.473 OA
ATOM     17 BR   UNL     1       1.131  -4.882   4.000  0.00  0.00    -0.043 Br
ENDBRANCH   9  12
ENDBRANCH   1   8
BRANCH   1  18
ATOM     18  C   UNL     1       4.019  -1.168  -1.464  0.00  0.00    +0.101 C 
BRANCH  18  19
ATOM     19  C   UNL     1       5.389  -1.794  -1.504  0.00  0.00    +0.109 A 
ATOM     20  N   UNL     1       5.675  -3.031  -1.966  0.00  0.00    -0.348 N 
ATOM     21  H   UNL     1       5.043  -3.671  -2.328  0.00  0.00    +0.166 HD
ATOM     22  C   UNL     1       7.025  -3.212  -1.827  0.00  0.00    +0.104 A 
ATOM     23  C   UNL     1       7.516  -2.081  -1.286  0.00  0.00    +0.130 A 
ATOM     24  N   UNL     1       6.496  -1.230  -1.105  0.00  0.00    -0.241 NA
ENDBRANCH  18  19
ENDBRANCH   1  18
TORSDOF 5
