REMARK  Name = ZINC59045150
REMARK  7 active torsions:
REMARK  status: ('A' for Active; 'I' for Inactive)
REMARK    1  A    between atoms: C_1  and  C_2
REMARK    2  A    between atoms: C_7  and  N_8
REMARK    3  A    between atoms: C_9  and  C_11
REMARK    4  A    between atoms: C_11  and  S_12
REMARK    5  A    between atoms: S_12  and  C_13
REMARK    6  A    between atoms: C_16  and  C_19
REMARK    7  A    between atoms: N_17  and  N_18
REMARK                            x       y       z     vdW  Elec       q    Type
REMARK                         _______ _______ _______ _____ _____    ______ ____
ROOT
ATOM      1  C   UNL     1      -0.382  -0.116   7.687  0.00  0.00    +0.209 A 
ATOM      2  N   UNL     1      -0.407   1.198   7.712  0.00  0.00    -0.121 NA
ATOM      3  N   UNL     1      -0.504   1.614   8.924  0.00  0.00    -0.127 NA
ATOM      4  C   UNL     1      -0.548   0.592   9.747  0.00  0.00    +0.182 A 
ATOM      5  N   UNL     1      -0.477  -0.548   8.979  0.00  0.00    -0.224 N 
ENDROOT
BRANCH   4   6
ATOM      6  C   UNL     1      -0.659   0.654  11.220  0.00  0.00    +0.021 A 
ATOM      7  C   UNL     1      -0.377  -0.475  11.992  0.00  0.00    +0.013 A 
ATOM      8  C   UNL     1      -0.483  -0.411  13.366  0.00  0.00    +0.016 A 
ATOM      9  C   UNL     1      -0.867   0.769  13.979  0.00  0.00    +0.018 A 
ATOM     10  C   UNL     1      -1.148   1.892  13.219  0.00  0.00    +0.016 A 
ATOM     11  C   UNL     1      -1.040   1.842  11.845  0.00  0.00    +0.013 A 
ATOM     12 BR   UNL     1      -1.009   0.848  15.863  0.00  0.00    -0.050 Br
ENDBRANCH   4   6
BRANCH   5  13
ATOM     13  N   UNL     1      -0.495  -1.841   9.418  0.00  0.00    -0.295 N 
ATOM     14  H   UNL     1       0.439  -2.171   9.608  0.00  0.00    +0.163 HD
ATOM     15  H   UNL     1      -1.085  -1.939  10.231  0.00  0.00    +0.163 HD
ENDBRANCH   5  13
BRANCH   1  16
ATOM     16  S   UNL     1      -0.258  -1.132   6.253  0.00  0.00    -0.075 S 
BRANCH  16  17
ATOM     17  C   UNL     1      -0.167   0.054   4.882  0.00  0.00    +0.173 C 
BRANCH  17  19
ATOM     18  N   UNL     1       0.026  -0.014   2.417  0.00  0.00    -0.285 N 
ATOM     19  C   UNL     1      -0.056  -0.694   3.578  0.00  0.00    +0.227 C 
ATOM     20  O   UNL     1      -0.040  -1.906   3.574  0.00  0.00    -0.275 OA
ATOM     21  H   UNL     1       0.079   0.955   2.425  0.00  0.00    +0.155 HD
BRANCH  18  28
ATOM     22  C   UNL     1      -1.265   1.183   0.182  0.00  0.00    +0.046 C 
ATOM     23  C   UNL     1      -0.584  -0.158   0.085  0.00  0.00    -0.028 A 
ATOM     24  C   UNL     1      -0.570  -0.840  -1.116  0.00  0.00    +0.020 A 
ATOM     25  C   UNL     1       0.055  -2.071  -1.206  0.00  0.00    +0.018 A 
ATOM     26  C   UNL     1       0.666  -2.623  -0.094  0.00  0.00    +0.017 A 
ATOM     27  C   UNL     1       0.655  -1.945   1.109  0.00  0.00    +0.024 A 
ATOM     28  C   UNL     1       0.034  -0.706   1.201  0.00  0.00    +0.036 A 
ATOM     29 BR   UNL     1       0.072  -3.002  -2.852  0.00  0.00    -0.050 Br
ENDBRANCH  18  28
ENDBRANCH  17  19
ENDBRANCH  16  17
ENDBRANCH   1  16
TORSDOF 6
