REMARK  Name = ZINC45730726
REMARK  5 active torsions:
REMARK  status: ('A' for Active; 'I' for Inactive)
REMARK    1  A    between atoms: C_4  and  C_7
REMARK    2  A    between atoms: C_7  and  N_8
REMARK    3  A    between atoms: C_17  and  C_19
REMARK    4  A    between atoms: N_25  and  S_26
REMARK    5  A    between atoms: S_26  and  C_29
REMARK                            x       y       z     vdW  Elec       q    Type
REMARK                         _______ _______ _______ _____ _____    ______ ____
ROOT
ATOM      1  N   UNL     1       4.977   0.754   3.001  0.00  0.00    +0.386 N 
ATOM      2  C   UNL     1       5.891  -0.324   2.599  0.00  0.00    -0.072 C 
ATOM      3  C   UNL     1       6.623  -0.887   3.822  0.00  0.00    +0.038 C 
ATOM      4  C   UNL     1       5.576  -1.256   4.865  0.00  0.00    +0.050 A 
ATOM      5  C   UNL     1       4.320  -0.745   4.760  0.00  0.00    -0.002 A 
ATOM      6  S   UNL     1       3.501  -1.449   6.161  0.00  0.00    -0.059 S 
ATOM      7  C   UNL     1       4.809  -2.326   6.762  0.00  0.00    +0.165 A 
ATOM      8  N   UNL     1       5.771  -2.056   5.905  0.00  0.00    -0.229 NA
ATOM      9  N   UNL     1       4.860  -3.137   7.890  0.00  0.00    -0.263 N 
ATOM     10  C   UNL     1       6.007  -3.765   8.217  0.00  0.00    +0.238 C 
ATOM     11  O   UNL     1       6.994  -3.623   7.527  0.00  0.00    -0.274 OA
ATOM     12  C   UNL     1       3.815   0.179   3.707  0.00  0.00    -0.033 C 
ATOM     13  H   UNL     1       4.070  -3.251   8.441  0.00  0.00    +0.157 HD
ATOM     14  H   UNL     1       5.461   1.393   3.615  0.00  0.00    -0.081 HD
ENDROOT
BRANCH  10  15
ATOM     15  C   UNL     1       6.062  -4.644   9.440  0.00  0.00    +0.166 C 
ATOM     16  C   UNL     1       7.303  -4.295  10.268  0.00  0.00    +0.030 C 
ATOM     17  C   UNL     1       7.429  -5.282  11.431  0.00  0.00    +0.003 C 
ATOM     18  C   UNL     1       7.597  -6.701  10.883  0.00  0.00    +0.017 C 
ATOM     19  C   UNL     1       6.360  -7.077  10.062  0.00  0.00    +0.110 C 
ATOM     20  N   UNL     1       6.144  -6.053   9.030  0.00  0.00    -0.165 NA
BRANCH  20  21
ATOM     21  S   UNL     1       6.000  -6.478   7.436  0.00  0.00    +0.062 S 
ATOM     22  O   UNL     1       5.444  -7.785   7.413  0.00  0.00    -0.153 OA
ATOM     23  O   UNL     1       5.389  -5.378   6.776  0.00  0.00    -0.153 OA
BRANCH  21  24
ATOM     24  C   UNL     1       7.632  -6.612   6.784  0.00  0.00    +0.106 A 
ATOM     25  C   UNL     1       8.172  -5.571   6.053  0.00  0.00    +0.028 A 
ATOM     26  C   UNL     1       9.452  -5.676   5.542  0.00  0.00    +0.002 A 
ATOM     27  C   UNL     1      10.192  -6.824   5.761  0.00  0.00    +0.000 A 
ATOM     28  C   UNL     1       9.652  -7.865   6.493  0.00  0.00    +0.002 A 
ATOM     29  C   UNL     1       8.373  -7.757   7.008  0.00  0.00    +0.028 A 
ENDBRANCH  21  24
ENDBRANCH  20  21
ENDBRANCH  10  15
BRANCH   1  30
ATOM     30  C   UNL     1       4.517   1.476   1.807  0.00  0.00    -0.043 C 
BRANCH  30  34
ATOM     31  C   UNL     1       2.146   4.826   2.993  0.00  0.00    +0.000 A 
ATOM     32  C   UNL     1       3.512   4.967   2.836  0.00  0.00    +0.000 A 
ATOM     33  C   UNL     1       4.280   3.883   2.453  0.00  0.00    +0.002 A 
ATOM     34  C   UNL     1       3.681   2.658   2.226  0.00  0.00    -0.064 A 
ATOM     35  C   UNL     1       2.315   2.516   2.383  0.00  0.00    +0.002 A 
ATOM     36  C   UNL     1       1.547   3.601   2.765  0.00  0.00    +0.000 A 
ENDBRANCH  30  34
ENDBRANCH   1  30
TORSDOF 5
