REMARK  Name = ZINC15906319
REMARK  5 active torsions:
REMARK  status: ('A' for Active; 'I' for Inactive)
REMARK    1  A    between atoms: C_4  and  C_7
REMARK    2  A    between atoms: C_10  and  N_16
REMARK    3  A    between atoms: C_11  and  N_13
REMARK    4  A    between atoms: N_16  and  N_17
REMARK    5  A    between atoms: N_21  and  C_24
REMARK                            x       y       z     vdW  Elec       q    Type
REMARK                         _______ _______ _______ _____ _____    ______ ____
ROOT
ATOM      1  N   UNL     1       7.306  -2.760  -0.198  0.00  0.00    -0.235 N 
ATOM      2  H   UNL     1       7.308  -3.728  -0.136  0.00  0.00    +0.174 HD
ENDROOT
BRANCH   1   3
ATOM      3  N   UNL     1       8.417  -2.122  -0.349  0.00  0.00    -0.174 NA
ATOM      4  C   UNL     1       9.555  -2.786  -0.418  0.00  0.00    +0.186 C 
ATOM      5  C   UNL     1      10.913  -2.230  -0.581  0.00  0.00    +0.167 C 
ATOM      6  N   UNL     1      11.745  -3.232  -0.600  0.00  0.00    -0.155 NA
ATOM      7  N   UNL     1      11.078  -4.449  -0.462  0.00  0.00    -0.154 N 
ATOM      8  C   UNL     1       9.751  -4.244  -0.343  0.00  0.00    +0.294 C 
ATOM      9  O   UNL     1       8.887  -5.093  -0.203  0.00  0.00    -0.266 OA
ATOM     10  N   UNL     1      11.244  -0.881  -0.695  0.00  0.00    -0.340 N 
ATOM     11  H   UNL     1      10.547  -0.207  -0.669  0.00  0.00    +0.144 HD
ATOM     12  H   UNL     1      12.171  -0.617  -0.799  0.00  0.00    +0.144 HD
BRANCH   7  13
ATOM     13  C   UNL     1      11.698  -5.704  -0.446  0.00  0.00    +0.060 A 
ATOM     14  C   UNL     1      10.934  -6.856  -0.310  0.00  0.00    +0.025 A 
ATOM     15  C   UNL     1      11.549  -8.092  -0.294  0.00  0.00    +0.002 A 
ATOM     16  C   UNL     1      12.923  -8.184  -0.413  0.00  0.00    +0.000 A 
ATOM     17  C   UNL     1      13.687  -7.039  -0.549  0.00  0.00    +0.002 A 
ATOM     18  C   UNL     1      13.078  -5.800  -0.572  0.00  0.00    +0.025 A 
ENDBRANCH   7  13
ENDBRANCH   1   3
BRANCH   1  22
ATOM     19  C   UNL     1       3.714  -0.665   0.019  0.00  0.00    -0.016 A 
ATOM     20  C   UNL     1       4.901   0.012  -0.256  0.00  0.00    +0.010 A 
ATOM     21  C   UNL     1       6.089  -0.683  -0.327  0.00  0.00    +0.027 A 
ATOM     22  C   UNL     1       6.104  -2.059  -0.126  0.00  0.00    +0.078 A 
ATOM     23  C   UNL     1       4.920  -2.736   0.148  0.00  0.00    +0.149 A 
ATOM     24  C   UNL     1       3.731  -2.044   0.227  0.00  0.00    +0.043 A 
BRANCH  19  28
ATOM     25  C   UNL     1       0.045   1.473   0.238  0.00  0.00    +0.000 A 
ATOM     26  C   UNL     1       1.220   2.148  -0.040  0.00  0.00    +0.001 A 
ATOM     27  C   UNL     1       2.414   1.459  -0.112  0.00  0.00    +0.008 A 
ATOM     28  C   UNL     1       2.434   0.081   0.096  0.00  0.00    -0.018 A 
ATOM     29  C   UNL     1       1.247  -0.594   0.376  0.00  0.00    +0.008 A 
ATOM     30  C   UNL     1       0.059   0.106   0.445  0.00  0.00    +0.001 A 
ENDBRANCH  19  28
BRANCH  23  31
ATOM     31  N   UNL     1       4.939  -4.201   0.362  0.00  0.00    +0.058 N 
ATOM     32  O   UNL     1       4.031  -4.884  -0.053  0.00  0.00    -0.126 OA
ATOM     33  O   UNL     1       5.861  -4.715   0.951  0.00  0.00    -0.126 OA
ENDBRANCH  23  31
ENDBRANCH   1  22
TORSDOF 5
