REMARK  Name = ZINC09496038
REMARK  7 active torsions:
REMARK  status: ('A' for Active; 'I' for Inactive)
REMARK    1  A    between atoms: C_1  and  C_2
REMARK    2  A    between atoms: C_2  and  C_4
REMARK    3  A    between atoms: C_2  and  N_14
REMARK    4  A    between atoms: C_15  and  C_17
REMARK    5  A    between atoms: C_17  and  N_18
REMARK    6  A    between atoms: C_21  and  C_25
REMARK    7  A    between atoms: C_21  and  C_26
REMARK                            x       y       z     vdW  Elec       q    Type
REMARK                         _______ _______ _______ _____ _____    ______ ____
ROOT
ATOM      1  C   UNL     1      -4.149  -5.596  -1.131  0.00  0.00    +0.213 C 
ENDROOT
BRANCH   1   2
ATOM      2  N   UNL     1      -5.576  -5.927  -1.158  0.00  0.00    -0.215 N 
ATOM      3  C   UNL     1      -6.454  -5.417  -2.044  0.00  0.00    +0.251 C 
ATOM      4  O   UNL     1      -6.221  -4.628  -2.934  0.00  0.00    -0.272 OA
ATOM      5  C   UNL     1      -7.793  -6.035  -1.695  0.00  0.00    +0.135 C 
ATOM      6  N   UNL     1      -7.485  -6.902  -0.544  0.00  0.00    -0.281 N 
ATOM      7  C   UNL     1      -6.167  -6.775  -0.309  0.00  0.00    +0.310 C 
ATOM      8  O   UNL     1      -5.579  -7.364   0.577  0.00  0.00    -0.252 OA
ATOM      9  C   UNL     1      -8.326  -6.863  -2.866  0.00  0.00    +0.047 C 
ATOM     10  H   UNL     1      -8.111  -7.458  -0.054  0.00  0.00    +0.152 HD
BRANCH   5  11
ATOM     11  C   UNL     1      -8.784  -4.968  -1.304  0.00  0.00    -0.015 A 
ATOM     12  C   UNL     1      -8.683  -3.701  -1.847  0.00  0.00    +0.007 A 
ATOM     13  C   UNL     1      -9.595  -2.724  -1.493  0.00  0.00    +0.020 A 
ATOM     14  C   UNL     1     -10.601  -3.011  -0.588  0.00  0.00    +0.041 A 
ATOM     15  C   UNL     1     -10.697  -4.278  -0.042  0.00  0.00    +0.020 A 
ATOM     16  C   UNL     1      -9.789  -5.256  -0.400  0.00  0.00    +0.007 A 
ATOM     17 CL   UNL     1     -11.742  -1.782  -0.139  0.00  0.00    -0.084 Cl
ENDBRANCH   5  11
ENDBRANCH   1   2
BRANCH   1  19
ATOM     18  N   UNL     1      -2.681  -3.918  -0.059  0.00  0.00    -0.307 N 
ATOM     19  C   UNL     1      -3.926  -4.404  -0.237  0.00  0.00    +0.231 C 
ATOM     20  O   UNL     1      -4.866  -3.881   0.323  0.00  0.00    -0.274 OA
ATOM     21  H   UNL     1      -1.929  -4.336  -0.506  0.00  0.00    +0.149 HD
BRANCH  18  23
ATOM     22  C   UNL     1      -2.331  -3.226   2.260  0.00  0.00    +0.033 C 
ATOM     23  C   UNL     1      -2.464  -2.759   0.810  0.00  0.00    +0.100 C 
BRANCH  23  24
ATOM     24  C   UNL     1      -1.203  -2.047   0.393  0.00  0.00    -0.027 A 
ATOM     25  C   UNL     1      -0.088  -2.774   0.018  0.00  0.00    +0.006 A 
ATOM     26  C   UNL     1       1.063  -2.116  -0.360  0.00  0.00    +0.004 A 
ATOM     27  C   UNL     1       1.113  -0.728  -0.367  0.00  0.00    -0.044 A 
ATOM     28  C   UNL     1       0.002  -0.004   0.002  0.00  0.00    -0.044 A 
ATOM     29  C   UNL     1      -1.156  -0.669   0.384  0.00  0.00    +0.009 A 
ATOM     30  C   UNL     1      -0.018   1.502   0.010  0.00  0.00    +0.035 C 
ATOM     31  C   UNL     1       1.404   2.059  -0.000  0.00  0.00    +0.005 C 
ATOM     32  C   UNL     1       2.176   1.390  -1.144  0.00  0.00    +0.005 C 
ATOM     33  C   UNL     1       2.407  -0.075  -0.777  0.00  0.00    +0.035 C 
ENDBRANCH  23  24
ENDBRANCH  18  23
ENDBRANCH   1  19
TORSDOF 5
