REMARK  Name = ZINC21076407
REMARK  12 active torsions:
REMARK  status: ('A' for Active; 'I' for Inactive)
REMARK    1  A    between atoms: C_1  and  C_2
REMARK    2  A    between atoms: C_2  and  C_3
REMARK    3  A    between atoms: C_3  and  C_5
REMARK    4  A    between atoms: C_3  and  N_6
REMARK    5  A    between atoms: N_6  and  S_7
REMARK    6  A    between atoms: S_7  and  C_10
REMARK    7  A    between atoms: C_13  and  N_16
REMARK    8  A    between atoms: C_17  and  C_19
REMARK    9  A    between atoms: C_19  and  S_20
REMARK   10  A    between atoms: S_20  and  C_21
REMARK   11  A    between atoms: N_26  and  N_27
REMARK   12  A    between atoms: C_28  and  C_29
REMARK                            x       y       z     vdW  Elec       q    Type
REMARK                         _______ _______ _______ _____ _____    ______ ____
ROOT
ATOM      1  N   UNL     1      -1.692   6.376   0.045  0.00  0.00    -0.285 N 
ATOM      2  C   UNL     1      -0.520   6.699   0.626  0.00  0.00    +0.227 C 
ATOM      3  O   UNL     1      -0.386   7.778   1.164  0.00  0.00    -0.275 OA
ATOM      4  H   UNL     1      -1.789   5.430  -0.508  0.00  0.00    +0.155 HD
ENDROOT
BRANCH   1   8
ATOM      5  C   UNL     1      -4.947   8.959   0.344  0.00  0.00    +0.105 A 
ATOM      6  C   UNL     1      -3.666   9.471   0.245  0.00  0.00    +0.030 A 
ATOM      7  C   UNL     1      -2.585   8.618   0.146  0.00  0.00    +0.025 A 
ATOM      8  C   UNL     1      -2.785   7.243   0.145  0.00  0.00    +0.034 A 
ATOM      9  C   UNL     1      -4.073   6.732   0.239  0.00  0.00    +0.025 A 
ATOM     10  C   UNL     1      -5.149   7.591   0.344  0.00  0.00    +0.030 A 
BRANCH   5  11
ATOM     11  S   UNL     1      -6.324  10.051   0.471  0.00  0.00    +0.059 S 
ATOM     12  O   UNL     1      -7.366   9.319   1.100  0.00  0.00    -0.153 OA
ATOM     13  O   UNL     1      -5.825  11.273   0.998  0.00  0.00    -0.153 OA
BRANCH  11  14
ATOM     14  N   UNL     1      -6.835  10.375  -1.071  0.00  0.00    -0.187 NA
ATOM     15  H   UNL     1      -6.609  11.353  -1.518  0.00  0.00    +0.148 HD
BRANCH  14  16
ATOM     16  C   UNL     1      -7.386   9.300  -1.900  0.00  0.00    +0.073 C 
ATOM     17  C   UNL     1      -8.912   9.297  -1.785  0.00  0.00    +0.025 C 
BRANCH  16  19
ATOM     18  C   UNL     1      -5.466   9.404  -3.495  0.00  0.00    +0.005 C 
ATOM     19  C   UNL     1      -6.985   9.525  -3.359  0.00  0.00    +0.017 C 
ENDBRANCH  16  19
ENDBRANCH  14  16
ENDBRANCH  11  14
ENDBRANCH   5  11
ENDBRANCH   1   8
BRANCH   2  20
ATOM     20  C   UNL     1       0.626   5.720   0.608  0.00  0.00    +0.173 C 
BRANCH  20  21
ATOM     21  S   UNL     1       2.053   6.442   1.464  0.00  0.00    -0.075 S 
BRANCH  21  22
ATOM     22  C   UNL     1       3.291   5.192   1.357  0.00  0.00    +0.211 A 
ATOM     23  N   UNL     1       4.557   5.272   1.863  0.00  0.00    -0.186 NA
ATOM     24  C   UNL     1       5.200   4.100   1.578  0.00  0.00    +0.232 A 
ATOM     25  N   UNL     1       4.366   3.329   0.923  0.00  0.00    -0.245 N 
ATOM     26  N   UNL     1       3.156   4.021   0.784  0.00  0.00    -0.144 NA
ATOM     27  N   UNL     1       6.506   3.782   1.921  0.00  0.00    -0.205 N 
ATOM     28  H   UNL     1       7.122   4.507   2.473  0.00  0.00    +0.177 HD
ATOM     29  H   UNL     1       4.684   2.328   0.595  0.00  0.00    +0.192 HD
BRANCH  27  30
ATOM     30  N   UNL     1       7.041   2.538   1.563  0.00  0.00    -0.184 NA
ATOM     31  C   UNL     1       8.267   2.240   1.885  0.00  0.00    +0.176 C 
BRANCH  31  32
ATOM     32  C   UNL     1       8.827   0.937   1.511  0.00  0.00    +0.147 A 
ATOM     33  C   UNL     1      10.090   0.499   1.784  0.00  0.00    +0.051 A 
ATOM     34  C   UNL     1      10.195  -0.796   1.244  0.00  0.00    +0.042 A 
ATOM     35  C   UNL     1       9.008  -1.085   0.674  0.00  0.00    +0.196 A 
ATOM     36  O   UNL     1       8.182  -0.039   0.842  0.00  0.00    -0.462 OA
ENDBRANCH  31  32
ENDBRANCH  27  30
ENDBRANCH  21  22
ENDBRANCH  20  21
ENDBRANCH   2  20
TORSDOF 10
