REMARK  Name = ZINC12599607
REMARK  9 active torsions:
REMARK  status: ('A' for Active; 'I' for Inactive)
REMARK    1  A    between atoms: C_4  and  C_7
REMARK    2  A    between atoms: C_7  and  C_9
REMARK    3  A    between atoms: C_7  and  O_22
REMARK    4  A    between atoms: N_11  and  C_12
REMARK    5  A    between atoms: C_15  and  N_19
REMARK    6  A    between atoms: O_22  and  C_23
REMARK    7  A    between atoms: C_23  and  C_25
REMARK    8  A    between atoms: C_25  and  N_26
REMARK    9  A    between atoms: C_27  and  C_29
REMARK                            x       y       z     vdW  Elec       q    Type
REMARK                         _______ _______ _______ _____ _____    ______ ____
ROOT
ATOM      1  C   UNL     1       3.744  -0.963   0.178  0.00  0.00    +0.292 C 
ENDROOT
BRANCH   1   5
ATOM      2  C   UNL     1       6.088  -0.132  -3.295  0.00  0.00    +0.000 A 
ATOM      3  C   UNL     1       6.334   0.546  -2.116  0.00  0.00    +0.000 A 
ATOM      4  C   UNL     1       5.576   0.277  -0.993  0.00  0.00    +0.008 A 
ATOM      5  C   UNL     1       4.571  -0.670  -1.048  0.00  0.00    +0.002 A 
ATOM      6  C   UNL     1       4.328  -1.352  -2.225  0.00  0.00    +0.008 A 
ATOM      7  C   UNL     1       5.083  -1.080  -3.350  0.00  0.00    +0.000 A 
ENDBRANCH   1   5
BRANCH   1   8
ATOM      8  C   UNL     1       2.427  -0.238   0.080  0.00  0.00    +0.263 C 
ATOM      9  O   UNL     1       1.388  -0.864   0.087  0.00  0.00    -0.271 OA
ATOM     10  N   UNL     1       2.403   1.106  -0.015  0.00  0.00    -0.281 N 
ATOM     11  H   UNL     1       3.233   1.602  -0.086  0.00  0.00    +0.155 HD
BRANCH  10  12
ATOM     12  C   UNL     1       1.179   1.786  -0.011  0.00  0.00    +0.048 A 
ATOM     13  C   UNL     1       0.064   1.215  -0.609  0.00  0.00    +0.026 A 
ATOM     14  C   UNL     1      -1.141   1.891  -0.608  0.00  0.00    +0.034 A 
ATOM     15  C   UNL     1      -1.239   3.131  -0.002  0.00  0.00    +0.127 A 
ATOM     16  C   UNL     1      -0.131   3.703   0.595  0.00  0.00    +0.049 A 
ATOM     17  C   UNL     1       1.079   3.034   0.592  0.00  0.00    +0.041 A 
ATOM     18 BR   UNL     1       2.595   3.816   1.409  0.00  0.00    -0.048 Br
BRANCH  15  19
ATOM     19  N   UNL     1      -2.533   3.850   0.002  0.00  0.00    +0.056 N 
ATOM     20  O   UNL     1      -2.620   4.944   0.531  0.00  0.00    -0.126 OA
ATOM     21  O   UNL     1      -3.510   3.348  -0.524  0.00  0.00    -0.126 OA
ENDBRANCH  15  19
ENDBRANCH  10  12
ENDBRANCH   1   8
BRANCH   1  22
ATOM     22  O   UNL     1       3.504  -2.393   0.269  0.00  0.00    -0.446 OA
BRANCH  22  23
ATOM     23  C   UNL     1       4.403  -3.119   0.951  0.00  0.00    +0.325 C 
ATOM     24  O   UNL     1       5.359  -2.579   1.456  0.00  0.00    -0.249 OA
BRANCH  23  25
ATOM     25  C   UNL     1       4.220  -4.609   1.089  0.00  0.00    +0.225 C 
BRANCH  25  26
ATOM     26  N   UNL     1       5.326  -5.166   1.871  0.00  0.00    -0.301 N 
ATOM     27  C   UNL     1       5.373  -6.489   2.123  0.00  0.00    +0.245 C 
ATOM     28  O   UNL     1       4.498  -7.220   1.701  0.00  0.00    -0.270 OA
ATOM     29  H   UNL     1       6.024  -4.583   2.208  0.00  0.00    +0.150 HD
BRANCH  27  30
ATOM     30  C   UNL     1       6.489  -7.052   2.914  0.00  0.00    +0.037 A 
ATOM     31  C   UNL     1       7.498  -6.217   3.395  0.00  0.00    +0.013 A 
ATOM     32  C   UNL     1       8.534  -6.747   4.136  0.00  0.00    +0.001 A 
ATOM     33  C   UNL     1       8.579  -8.106   4.393  0.00  0.00    +0.000 A 
ATOM     34  C   UNL     1       7.585  -8.941   3.914  0.00  0.00    +0.001 A 
ATOM     35  C   UNL     1       6.541  -8.422   3.176  0.00  0.00    +0.013 A 
ENDBRANCH  27  30
ENDBRANCH  25  26
ENDBRANCH  23  25
ENDBRANCH  22  23
ENDBRANCH   1  22
TORSDOF 9
