REMARK  Name = ZINC00458374
REMARK  8 active torsions:
REMARK  status: ('A' for Active; 'I' for Inactive)
REMARK    1  A    between atoms: C_1  and  C_2
REMARK    2  A    between atoms: C_3  and  C_20
REMARK    3  A    between atoms: C_4  and  C_10
REMARK    4  A    between atoms: C_14  and  O_17
REMARK    5  A    between atoms: C_15  and  O_16
REMARK    6  A    between atoms: O_17  and  C_18
REMARK    7  A    between atoms: C_20  and  O_22
REMARK    8  A    between atoms: O_22  and  C_23
REMARK                            x       y       z     vdW  Elec       q    Type
REMARK                         _______ _______ _______ _____ _____    ______ ____
ROOT
ATOM      1  C   UNL     1      -0.239   5.405   0.235  0.00  0.00    +0.061 C 
ATOM      2  C   UNL     1      -0.205   3.902   0.120  0.00  0.00    +0.021 C 
ATOM      3  C   UNL     1      -1.365   3.209   0.125  0.00  0.00    +0.078 C 
ATOM      4  C   UNL     1      -1.285   1.701   0.001  0.00  0.00    +0.147 C 
ATOM      5  N   UNL     1       0.060   1.110  -0.104  0.00  0.00    -0.288 N 
ATOM      6  C   UNL     1       1.125   1.935  -0.095  0.00  0.00    +0.304 C 
ATOM      7  O   UNL     1       2.240   1.458  -0.186  0.00  0.00    -0.252 OA
ATOM      8  N   UNL     1       0.997   3.264   0.012  0.00  0.00    -0.273 N 
ATOM      9  H   UNL     1       0.176   0.151  -0.182  0.00  0.00    +0.151 HD
ATOM     10  H   UNL     1       1.803   3.803   0.014  0.00  0.00    +0.156 HD
ENDROOT
BRANCH   4  11
ATOM     11  C   UNL     1      -2.070   1.289  -1.218  0.00  0.00    +0.024 A 
ATOM     12  C   UNL     1      -2.259   2.184  -2.255  0.00  0.00    +0.029 A 
ATOM     13  C   UNL     1      -2.979   1.808  -3.374  0.00  0.00    +0.045 A 
ATOM     14  C   UNL     1      -3.514   0.535  -3.461  0.00  0.00    +0.069 A 
ATOM     15  C   UNL     1      -3.328  -0.366  -2.425  0.00  0.00    +0.163 A 
ATOM     16  C   UNL     1      -2.598   0.011  -1.302  0.00  0.00    +0.164 A 
ATOM     17 CL   UNL     1      -3.213   2.937  -4.673  0.00  0.00    -0.083 Cl
BRANCH  16  18
ATOM     18  O   UNL     1      -2.408  -0.873  -0.285  0.00  0.00    -0.503 OA
ATOM     19  H   UNL     1      -3.134  -0.900   0.353  0.00  0.00    +0.292 HD
ENDBRANCH  16  18
BRANCH  15  20
ATOM     20  O   UNL     1      -3.852  -1.618  -2.509  0.00  0.00    -0.491 OA
ATOM     21  C   UNL     1      -4.585  -1.936  -3.694  0.00  0.00    +0.277 C 
ENDBRANCH  15  20
ENDBRANCH   4  11
BRANCH   3  22
ATOM     22  C   UNL     1      -2.611   3.869   0.237  0.00  0.00    +0.338 C 
ATOM     23  O   UNL     1      -2.648   5.072   0.415  0.00  0.00    -0.245 OA
BRANCH  22  24
ATOM     24  O   UNL     1      -3.758   3.165   0.146  0.00  0.00    -0.465 OA
ATOM     25  C   UNL     1      -4.978   3.908   0.154  0.00  0.00    +0.280 C 
ENDBRANCH  22  24
ENDBRANCH   3  22
TORSDOF 5
