REMARK  Name = ZINC09124036
REMARK  8 active torsions:
REMARK  status: ('A' for Active; 'I' for Inactive)
REMARK    1  A    between atoms: C_1  and  C_2
REMARK    2  A    between atoms: C_4  and  C_30
REMARK    3  A    between atoms: C_5  and  O_29
REMARK    4  A    between atoms: C_6  and  C_8
REMARK    5  A    between atoms: N_16  and  C_26
REMARK    6  A    between atoms: C_17  and  C_19
REMARK    7  A    between atoms: C_26  and  C_27
REMARK    8  A    between atoms: C_27  and  O_28
REMARK                            x       y       z     vdW  Elec       q    Type
REMARK                         _______ _______ _______ _____ _____    ______ ____
ROOT
ATOM      1  C   UNL     1      -0.006  -2.912   2.430  0.00  0.00    +0.075 A 
ATOM      2  C   UNL     1       1.076  -3.544   2.953  0.00  0.00    +0.035 A 
ATOM      3  C   UNL     1       0.585  -4.351   4.003  0.00  0.00    +0.153 A 
ATOM      4  N   UNL     1      -0.719  -4.167   4.052  0.00  0.00    -0.168 NA
ATOM      5  N   UNL     1      -1.089  -3.329   3.150  0.00  0.00    -0.276 N 
ATOM      6  H   UNL     1      -2.002  -3.037   3.002  0.00  0.00    +0.189 HD
ATOM      7  C   UNL     1       1.731  -5.059   4.604  0.00  0.00    +0.268 C 
ATOM      8  O   UNL     1       1.655  -5.838   5.534  0.00  0.00    -0.268 OA
ATOM      9  N   UNL     1       2.871  -4.723   3.976  0.00  0.00    -0.283 N 
ATOM     10  C   UNL     1       2.564  -3.764   2.909  0.00  0.00    +0.141 C 
ENDROOT
BRANCH   1  16
ATOM     11  C   UNL     1      -1.303  -1.756  -2.248  0.00  0.00    +0.044 C 
ATOM     12  C   UNL     1      -0.632  -1.392  -0.948  0.00  0.00    -0.049 A 
ATOM     13  C   UNL     1      -0.019  -0.158  -0.810  0.00  0.00    +0.010 A 
ATOM     14  C   UNL     1       0.599   0.185   0.377  0.00  0.00    -0.008 A 
ATOM     15  C   UNL     1       0.608  -0.706   1.438  0.00  0.00    +0.129 A 
ATOM     16  C   UNL     1      -0.011  -1.953   1.303  0.00  0.00    +0.042 A 
ATOM     17  C   UNL     1      -0.636  -2.287   0.102  0.00  0.00    +0.017 A 
ATOM     18  C   UNL     1       1.264   1.530   0.518  0.00  0.00    +0.047 C 
BRANCH  15  19
ATOM     19  O   UNL     1       1.216  -0.369   2.606  0.00  0.00    -0.506 OA
ATOM     20  H   UNL     1       0.655   0.139   3.209  0.00  0.00    +0.292 HD
ENDBRANCH  15  19
ENDBRANCH   1  16
BRANCH  10  21
ATOM     21  C   UNL     1       2.963  -4.332   1.571  0.00  0.00    -0.022 A 
ATOM     22  C   UNL     1       2.426  -5.531   1.141  0.00  0.00    +0.007 A 
ATOM     23  C   UNL     1       2.792  -6.052  -0.085  0.00  0.00    +0.015 A 
ATOM     24  C   UNL     1       3.696  -5.373  -0.883  0.00  0.00    +0.018 A 
ATOM     25  C   UNL     1       4.233  -4.173  -0.452  0.00  0.00    +0.015 A 
ATOM     26  C   UNL     1       3.862  -3.651   0.772  0.00  0.00    +0.007 A 
ATOM     27 BR   UNL     1       4.197  -6.086  -2.561  0.00  0.00    -0.050 Br
ENDBRANCH  10  21
BRANCH   9  28
ATOM     28  C   UNL     1       4.205  -5.232   4.305  0.00  0.00    +0.137 C 
BRANCH  28  29
ATOM     29  C   UNL     1       4.411  -6.592   3.635  0.00  0.00    +0.175 C 
BRANCH  29  30
ATOM     30  O   UNL     1       4.513  -6.415   2.220  0.00  0.00    -0.393 OA
ATOM     31  H   UNL     1       4.645  -7.238   1.730  0.00  0.00    +0.209 HD
ENDBRANCH  29  30
ENDBRANCH  28  29
ENDBRANCH   9  28
TORSDOF 6
