REMARK  Name = ZINC40177145
REMARK  5 active torsions:
REMARK  status: ('A' for Active; 'I' for Inactive)
REMARK    1  A    between atoms: C_1  and  C_2
REMARK    2  A    between atoms: C_5  and  N_18
REMARK    3  A    between atoms: C_7  and  C_8
REMARK    4  A    between atoms: C_8  and  C_10
REMARK    5  A    between atoms: C_8  and  N_17
REMARK                            x       y       z     vdW  Elec       q    Type
REMARK                         _______ _______ _______ _____ _____    ______ ____
ROOT
ATOM      1  C   UNL     1       0.025   0.045   2.504  0.00  0.00    -0.013 C 
ENDROOT
BRANCH   1   8
ATOM      2  C   UNL     1      -0.018   1.503   0.010  0.00  0.00    +0.044 C 
ATOM      3  C   UNL     1       0.002  -0.004   0.002  0.00  0.00    -0.048 A 
ATOM      4  C   UNL     1       0.006  -0.689  -1.199  0.00  0.00    +0.006 A 
ATOM      5  C   UNL     1       0.025  -2.071  -1.207  0.00  0.00    +0.033 A 
ATOM      6  C   UNL     1       0.040  -2.768  -0.013  0.00  0.00    +0.126 A 
ATOM      7  C   UNL     1       0.037  -2.084   1.188  0.00  0.00    +0.035 A 
ATOM      8  C   UNL     1       0.023  -0.702   1.195  0.00  0.00    -0.053 A 
BRANCH   6   9
ATOM      9  N   UNL     1       0.059  -4.248  -0.021  0.00  0.00    +0.056 N 
ATOM     10  O   UNL     1       0.061  -4.847  -1.072  0.00  0.00    -0.126 OA
ATOM     11  O   UNL     1       0.073  -4.859   1.022  0.00  0.00    -0.126 OA
ENDBRANCH   6   9
ENDBRANCH   1   8
BRANCH   1  12
ATOM     12  C   UNL     1       1.421   0.527   2.805  0.00  0.00    -0.058 A 
ATOM     13  C   UNL     1       2.354  -0.345   3.334  0.00  0.00    +0.003 A 
ATOM     14  C   UNL     1       3.634   0.097   3.610  0.00  0.00    +0.014 A 
ATOM     15  C   UNL     1       3.982   1.412   3.357  0.00  0.00    +0.013 A 
ATOM     16  C   UNL     1       3.048   2.284   2.828  0.00  0.00    +0.014 A 
ATOM     17  C   UNL     1       1.769   1.840   2.547  0.00  0.00    +0.003 A 
ATOM     18  I   UNL     1       5.922   2.082   3.776  0.00  0.00    -0.044 I 
ENDBRANCH   1  12
BRANCH   1  19
ATOM     19  N   UNL     1      -0.426  -0.850   3.579  0.00  0.00    +0.385 N 
ATOM     20  H   UNL     1      -0.425  -0.350   4.455  0.00  0.00    -0.089 HD
ATOM     21  H   UNL     1      -1.361  -1.172   3.377  0.00  0.00    -0.089 HD
ATOM     22  H   UNL     1       0.197  -1.641   3.642  0.00  0.00    -0.089 HD
ENDBRANCH   1  19
TORSDOF 4
