REMARK  Name = ZINC13416551
REMARK  6 active torsions:
REMARK  status: ('A' for Active; 'I' for Inactive)
REMARK    1  A    between atoms: C_1  and  C_2
REMARK    2  A    between atoms: C_4  and  C_16
REMARK    3  A    between atoms: C_12  and  C_13
REMARK    4  A    between atoms: C_16  and  S_17
REMARK    5  A    between atoms: S_17  and  C_18
REMARK    6  A    between atoms: C_20  and  C_27
REMARK                            x       y       z     vdW  Elec       q    Type
REMARK                         _______ _______ _______ _____ _____    ______ ____
ROOT
ATOM      1  C   UNL     1      -0.208   1.298  -2.618  0.00  0.00    +0.111 C 
ENDROOT
BRANCH   1   5
ATOM      2  C   UNL     1       0.616   1.549   0.030  0.00  0.00    +0.046 C 
ATOM      3  C   UNL     1       0.593   0.042   0.044  0.00  0.00    -0.020 A 
ATOM      4  C   UNL     1       0.227  -0.695  -1.094  0.00  0.00    +0.014 A 
ATOM      5  C   UNL     1      -0.161  -0.189  -2.377  0.00  0.00    -0.022 A 
ATOM      6  C   UNL     1      -0.484  -1.046  -3.372  0.00  0.00    +0.075 A 
ATOM      7  C   UNL     1      -0.446  -2.438  -3.164  0.00  0.00    +0.250 A 
ATOM      8  O   UNL     1      -0.740  -3.199  -4.071  0.00  0.00    -0.268 OA
ATOM      9  N   UNL     1      -0.083  -2.928  -1.963  0.00  0.00    -0.317 N 
ATOM     10  H   UNL     1      -0.057  -3.888  -1.823  0.00  0.00    +0.169 HD
ATOM     11  C   UNL     1       0.247  -2.090  -0.946  0.00  0.00    +0.089 A 
ATOM     12  S   UNL     1       0.732  -2.354   0.634  0.00  0.00    -0.064 S 
ATOM     13  C   UNL     1       0.932  -0.665   1.161  0.00  0.00    +0.106 A 
BRANCH  13  14
ATOM     14  C   UNL     1       1.340  -0.176   2.428  0.00  0.00    +0.393 C 
ATOM     15  O   UNL     1       1.424   1.031   2.621  0.00  0.00    -0.240 OA
ATOM     16  O   UNL     1       1.610  -0.960   3.330  0.00  0.00    -0.240 OA
ENDBRANCH  13  14
ENDBRANCH   1   5
BRANCH   1  17
ATOM     17  S   UNL     1      -1.797   1.954  -2.039  0.00  0.00    -0.100 S 
BRANCH  17  18
ATOM     18  C   UNL     1      -1.698   3.678  -2.386  0.00  0.00    +0.109 A 
ATOM     19  C   UNL     1      -2.779   4.541  -2.059  0.00  0.00    +0.047 A 
ATOM     20  C   UNL     1      -4.061   4.231  -1.435  0.00  0.00    +0.001 A 
ATOM     21  C   UNL     1      -4.942   5.237  -1.222  0.00  0.00    +0.056 A 
ATOM     22  S   UNL     1      -4.093   6.673  -1.851  0.00  0.00    -0.076 S 
ATOM     23  C   UNL     1      -2.589   5.900  -2.382  0.00  0.00    +0.113 A 
ATOM     24  N   UNL     1      -1.475   6.322  -2.950  0.00  0.00    -0.228 NA
ATOM     25  C   UNL     1      -0.505   5.473  -3.231  0.00  0.00    +0.223 A 
ATOM     26  N   UNL     1      -0.613   4.187  -2.950  0.00  0.00    -0.229 NA
BRANCH  20  27
ATOM     27  C   UNL     1      -4.394   2.841  -1.044  0.00  0.00    -0.017 A 
ATOM     28  C   UNL     1      -3.579   2.152  -0.146  0.00  0.00    +0.008 A 
ATOM     29  C   UNL     1      -3.894   0.858   0.215  0.00  0.00    +0.001 A 
ATOM     30  C   UNL     1      -5.016   0.243  -0.312  0.00  0.00    +0.000 A 
ATOM     31  C   UNL     1      -5.828   0.921  -1.204  0.00  0.00    +0.001 A 
ATOM     32  C   UNL     1      -5.526   2.218  -1.568  0.00  0.00    +0.008 A 
ENDBRANCH  20  27
ENDBRANCH  17  18
ENDBRANCH   1  17
TORSDOF 5
