REMARK  Name = ZINC31054471
REMARK  5 active torsions:
REMARK  status: ('A' for Active; 'I' for Inactive)
REMARK    1  A    between atoms: C_3  and  N_8
REMARK    2  A    between atoms: C_9  and  C_11
REMARK    3  A    between atoms: N_16  and  C_18
REMARK    4  A    between atoms: C_18  and  C_19
REMARK    5  A    between atoms: C_21  and  C_24
REMARK                            x       y       z     vdW  Elec       q    Type
REMARK                         _______ _______ _______ _____ _____    ______ ____
ROOT
ATOM      1  C   UNL     1      -3.282   3.580  -2.832  0.00  0.00    +0.059 C 
ATOM      2  C   UNL     1      -3.270   2.346  -3.738  0.00  0.00    +0.009 C 
ATOM      3  C   UNL     1      -1.901   1.667  -3.644  0.00  0.00    -0.018 C 
ATOM      4  C   UNL     1      -1.619   1.299  -2.186  0.00  0.00    -0.078 C 
ATOM      5  N   UNL     1      -1.641   2.513  -1.360  0.00  0.00    +0.386 N 
ATOM      6  C   UNL     1      -2.960   3.157  -1.397  0.00  0.00    -0.065 C 
ATOM      7  H   UNL     1      -0.911   3.219  -1.783  0.00  0.00    -0.081 HD
ENDROOT
BRANCH   1   9
ATOM      8  N   UNL     1      -5.142   4.675  -4.041  0.00  0.00    -0.285 N 
ATOM      9  C   UNL     1      -4.645   4.221  -2.873  0.00  0.00    +0.219 C 
ATOM     10  O   UNL     1      -5.296   4.329  -1.855  0.00  0.00    -0.275 OA
ATOM     11  H   UNL     1      -4.522   4.647  -4.950  0.00  0.00    +0.155 HD
BRANCH   8  14
ATOM     12  C   UNL     1      -8.250   6.388  -3.080  0.00  0.00    +0.003 A 
ATOM     13  C   UNL     1      -6.964   5.889  -3.022  0.00  0.00    +0.023 A 
ATOM     14  C   UNL     1      -6.445   5.182  -4.098  0.00  0.00    +0.034 A 
ATOM     15  C   UNL     1      -7.219   4.983  -5.233  0.00  0.00    +0.038 A 
ATOM     16  C   UNL     1      -8.508   5.480  -5.284  0.00  0.00    +0.020 A 
ATOM     17  C   UNL     1      -9.022   6.185  -4.210  0.00  0.00    +0.015 A 
ATOM     18 BR   UNL     1      -9.567   5.205  -6.827  0.00  0.00    -0.050 Br
ENDBRANCH   8  14
ENDBRANCH   1   9
BRANCH   5  19
ATOM     19  C   UNL     1      -1.238   2.218   0.021  0.00  0.00    +0.022 C 
BRANCH  19  20
ATOM     20  C   UNL     1      -0.008   1.346   0.011  0.00  0.00    +0.211 A 
ATOM     21  N   UNL     1       1.236   1.756   0.006  0.00  0.00    -0.193 NA
ATOM     22  C   UNL     1       1.988   0.632  -0.010  0.00  0.00    +0.203 A 
ATOM     23  N   UNL     1       1.165  -0.384  -0.013  0.00  0.00    -0.056 NA
ATOM     24  O   UNL     1       0.017   0.010  -0.002  0.00  0.00    -0.340 OA
BRANCH  22  25
ATOM     25  C   UNL     1       3.470   0.565  -0.020  0.00  0.00    +0.041 A 
ATOM     26  C   UNL     1       4.114  -0.671  -0.036  0.00  0.00    +0.014 A 
ATOM     27  C   UNL     1       5.492  -0.729  -0.045  0.00  0.00    +0.021 A 
ATOM     28  C   UNL     1       6.237   0.439  -0.041  0.00  0.00    +0.042 A 
ATOM     29  C   UNL     1       5.604   1.669  -0.025  0.00  0.00    +0.040 A 
ATOM     30  C   UNL     1       4.224   1.738  -0.021  0.00  0.00    +0.053 A 
ATOM     31 CL   UNL     1       3.430   3.282  -0.010  0.00  0.00    -0.083 Cl
ATOM     32 CL   UNL     1       7.971   0.359  -0.054  0.00  0.00    -0.083 Cl
ENDBRANCH  22  25
ENDBRANCH  19  20
ENDBRANCH   5  19
TORSDOF 5
