REMARK  Name = ZINC39778869
REMARK  9 active torsions:
REMARK  status: ('A' for Active; 'I' for Inactive)
REMARK    1  A    between atoms: C_1  and  C_2
REMARK    2  A    between atoms: C_2  and  N_3
REMARK    3  A    between atoms: C_6  and  N_9
REMARK    4  A    between atoms: C_10  and  C_12
REMARK    5  A    between atoms: C_12  and  S_13
REMARK    6  A    between atoms: S_13  and  C_14
REMARK    7  A    between atoms: C_18  and  C_27
REMARK    8  A    between atoms: N_19  and  C_20
REMARK    9  A    between atoms: C_20  and  C_21
REMARK                            x       y       z     vdW  Elec       q    Type
REMARK                         _______ _______ _______ _____ _____    ______ ____
ROOT
ATOM      1  C   UNL     1       5.861  -6.429   6.641  0.00  0.00    +0.237 C 
ATOM      2  N   UNL     1       7.038  -5.591   6.925  0.00  0.00    -0.237 N 
ATOM      3  N   UNL     1       6.654  -4.692   7.926  0.00  0.00    -0.169 NA
ATOM      4  C   UNL     1       5.410  -4.878   8.279  0.00  0.00    +0.147 C 
ATOM      5  N   UNL     1       4.824  -5.923   7.554  0.00  0.00    -0.283 N 
ATOM      6  H   UNL     1       7.909  -5.651   6.502  0.00  0.00    +0.171 HD
ENDROOT
BRANCH   4   7
ATOM      7  C   UNL     1       4.745  -4.128   9.262  0.00  0.00    +0.022 C 
ATOM      8  C   UNL     1       5.239  -3.022   9.956  0.00  0.00    +0.006 A 
ATOM      9  C   UNL     1       6.473  -2.340   9.908  0.00  0.00    +0.010 A 
ATOM     10  C   UNL     1       6.682  -1.269  10.717  0.00  0.00    +0.001 A 
ATOM     11  C   UNL     1       5.701  -0.820  11.604  0.00  0.00    +0.002 A 
ATOM     12  C   UNL     1       4.493  -1.428  11.702  0.00  0.00    +0.026 A 
ATOM     13  C   UNL     1       4.201  -2.553  10.889  0.00  0.00    +0.043 A 
ATOM     14  N   UNL     1       3.122  -3.305  10.796  0.00  0.00    -0.380 N 
ATOM     15  C   UNL     1       3.342  -4.344   9.784  0.00  0.00    +0.152 C 
ATOM     16  H   UNL     1       2.310  -3.188  11.312  0.00  0.00    +0.160 HD
ENDBRANCH   4   7
BRANCH   1  17
ATOM     17  S   UNL     1       5.341  -6.227   4.915  0.00  0.00    -0.109 S 
BRANCH  17  18
ATOM     18  C   UNL     1       5.050  -4.444   4.750  0.00  0.00    +0.168 C 
BRANCH  18  20
ATOM     19  N   UNL     1       4.330  -2.865   2.987  0.00  0.00    -0.312 N 
ATOM     20  C   UNL     1       4.606  -4.135   3.343  0.00  0.00    +0.223 C 
ATOM     21  O   UNL     1       4.496  -5.030   2.532  0.00  0.00    -0.275 OA
ATOM     22  H   UNL     1       4.418  -2.149   3.636  0.00  0.00    +0.149 HD
BRANCH  19  26
ATOM     23  N   UNL     1       2.263  -0.962  -0.154  0.00  0.00    +0.380 N 
ATOM     24  C   UNL     1       3.719  -0.782  -0.118  0.00  0.00    -0.077 C 
ATOM     25  C   UNL     1       4.243  -1.112   1.281  0.00  0.00    +0.003 C 
ATOM     26  C   UNL     1       3.899  -2.565   1.619  0.00  0.00    +0.069 C 
ATOM     27  C   UNL     1       2.384  -2.760   1.506  0.00  0.00    +0.003 C 
ATOM     28  C   UNL     1       1.929  -2.369   0.098  0.00  0.00    -0.077 C 
ATOM     29  H   UNL     1       1.837  -0.384   0.554  0.00  0.00    -0.082 HD
BRANCH  23  31
ATOM     30  C   UNL     1       1.991   0.926  -1.690  0.00  0.00    -0.017 C 
ATOM     31  C   UNL     1       1.755  -0.570  -1.476  0.00  0.00    -0.082 C 
ENDBRANCH  23  31
ENDBRANCH  19  26
ENDBRANCH  18  20
ENDBRANCH  17  18
ENDBRANCH   1  17
BRANCH   5  32
ATOM     32  C   UNL     1       3.450  -6.415   7.678  0.00  0.00    +0.140 C 
BRANCH  32  33
ATOM     33  C   UNL     1       2.519  -5.550   6.826  0.00  0.00    +0.136 C 
ATOM     34  C   UNL     1       1.053  -5.976   7.054  0.00  0.00    +0.035 C 
ATOM     35  C   UNL     1       0.453  -5.872   5.625  0.00  0.00    +0.031 C 
ATOM     36  C   UNL     1       1.671  -6.292   4.764  0.00  0.00    +0.160 C 
ATOM     37  O   UNL     1       2.815  -5.739   5.437  0.00  0.00    -0.375 OA
ENDBRANCH  32  33
ENDBRANCH   5  32
TORSDOF 8
