REMARK  Name = ZINC12170539
REMARK  10 active torsions:
REMARK  status: ('A' for Active; 'I' for Inactive)
REMARK    1  A    between atoms: N_13  and  C_16
REMARK    2  A    between atoms: C_16  and  C_17
REMARK    3  A    between atoms: C_22  and  C_23
REMARK    4  A    between atoms: C_22  and  N_81
REMARK    5  A    between atoms: C_23  and  C_25
REMARK    6  A    between atoms: C_23  and  O_39
REMARK    7  A    between atoms: C_25  and  O_26
REMARK    8  A    between atoms: O_26  and  C_27
REMARK    9  A    between atoms: C_27  and  C_28
REMARK   10  A    between atoms: C_28  and  C_29
REMARK                            x       y       z     vdW  Elec       q    Type
REMARK                         _______ _______ _______ _____ _____    ______ ____
ROOT
ATOM      1  C   UNL     1      -0.815   1.351  -0.797  0.00  0.00    +0.003 C 
ATOM      2  C   UNL     1       0.276   2.271  -0.241  0.00  0.00    -0.014 C 
ATOM      3  C   UNL     1      -0.115   3.729  -0.495  0.00  0.00    -0.078 C 
ATOM      4  C   UNL     1      -2.472   3.176  -0.399  0.00  0.00    -0.078 C 
ATOM      5  C   UNL     1      -2.153   1.702  -0.140  0.00  0.00    -0.014 C 
ATOM      6  N   UNL     1      -1.398   4.009   0.183  0.00  0.00    +0.381 N 
ATOM      7  H   UNL     1      -1.304   3.782   1.180  0.00  0.00    -0.082 HD
ENDROOT
BRANCH   1   8
ATOM      8  C   UNL     1      -0.461  -0.105  -0.491  0.00  0.00    +0.120 C 
BRANCH   8  21
ATOM      9  C   UNL     1       5.593  -0.817  -1.428  0.00  0.00    +0.001 A 
ATOM     10  C   UNL     1       5.534  -1.343  -2.687  0.00  0.00    +0.008 A 
ATOM     11  C   UNL     1       4.289  -1.540  -3.309  0.00  0.00    -0.016 A 
ATOM     12  C   UNL     1       4.175  -2.079  -4.602  0.00  0.00    +0.008 A 
ATOM     13  C   UNL     1       2.943  -2.252  -5.165  0.00  0.00    +0.001 A 
ATOM     14  C   UNL     1       1.779  -1.907  -4.488  0.00  0.00    +0.014 A 
ATOM     15  C   UNL     1       1.848  -1.372  -3.210  0.00  0.00    +0.046 A 
ATOM     16  C   UNL     1       3.115  -1.185  -2.612  0.00  0.00    +0.006 A 
ATOM     17  C   UNL     1       3.196  -0.642  -1.310  0.00  0.00    +0.046 A 
ATOM     18  C   UNL     1       4.444  -0.464  -0.731  0.00  0.00    +0.014 A 
ATOM     19  C   UNL     1       1.950  -0.285  -0.616  0.00  0.00    +0.254 C 
ATOM     20  O   UNL     1       1.996   0.184   0.506  0.00  0.00    -0.270 OA
ATOM     21  N   UNL     1       0.759  -0.474  -1.214  0.00  0.00    -0.234 N 
ATOM     22  C   UNL     1       0.647  -0.994  -2.451  0.00  0.00    +0.254 C 
ATOM     23  O   UNL     1      -0.454  -1.149  -2.945  0.00  0.00    -0.270 OA
ENDBRANCH   8  21
ENDBRANCH   1   8
BRANCH   6  24
ATOM     24  C   UNL     1      -1.740   5.440   0.047  0.00  0.00    -0.045 C 
BRANCH  24  25
ATOM     25  C   UNL     1      -2.774   5.799   1.115  0.00  0.00    +0.124 C 
BRANCH  25  26
ATOM     26  O   UNL     1      -2.212   5.593   2.412  0.00  0.00    -0.391 OA
ATOM     27  H   UNL     1      -1.423   6.125   2.588  0.00  0.00    +0.210 HD
ENDBRANCH  25  26
BRANCH  25  28
ATOM     28  C   UNL     1      -3.177   7.268   0.961  0.00  0.00    +0.189 C 
BRANCH  28  29
ATOM     29  O   UNL     1      -4.226   7.572   1.882  0.00  0.00    -0.377 OA
BRANCH  29  30
ATOM     30  C   UNL     1      -4.678   8.927   1.820  0.00  0.00    +0.160 C 
BRANCH  30  31
ATOM     31  C   UNL     1      -5.796   9.139   2.843  0.00  0.00    +0.035 C 
BRANCH  31  32
ATOM     32  C   UNL     1      -6.280  10.588   2.776  0.00  0.00    -0.026 C 
ATOM     33  C   UNL     1      -5.116  11.530   3.091  0.00  0.00    +0.010 C 
ATOM     34  C   UNL     1      -5.600  12.980   3.025  0.00  0.00    -0.010 C 
ATOM     35  C   UNL     1      -6.718  13.191   4.048  0.00  0.00    +0.007 C 
ATOM     36  C   UNL     1      -7.883  12.250   3.733  0.00  0.00    -0.010 C 
ATOM     37  C   UNL     1      -7.398  10.800   3.799  0.00  0.00    +0.010 C 
ATOM     38  C   UNL     1      -8.413  12.547   2.329  0.00  0.00    +0.007 C 
ATOM     39  C   UNL     1      -7.295  12.335   1.306  0.00  0.00    -0.010 C 
ATOM     40  C   UNL     1      -6.130  13.277   1.621  0.00  0.00    +0.007 C 
ATOM     41  C   UNL     1      -6.811  10.885   1.372  0.00  0.00    +0.010 C 
ENDBRANCH  31  32
ENDBRANCH  30  31
ENDBRANCH  29  30
ENDBRANCH  28  29
ENDBRANCH  25  28
ENDBRANCH  24  25
ENDBRANCH   6  24
TORSDOF 10
