REMARK  Name = ZINC06515120
REMARK  11 active torsions:
REMARK  status: ('A' for Active; 'I' for Inactive)
REMARK    1  A    between atoms: C_1  and  C_2
REMARK    2  A    between atoms: C_2  and  C_31
REMARK    3  A    between atoms: C_3  and  C_11
REMARK    4  A    between atoms: C_7  and  C_8
REMARK    5  A    between atoms: C_7  and  C_9
REMARK    6  A    between atoms: N_13  and  C_14
REMARK    7  A    between atoms: C_19  and  N_20
REMARK    8  A    between atoms: C_21  and  C_22
REMARK    9  A    between atoms: C_25  and  N_28
REMARK   10  A    between atoms: N_28  and  C_29
REMARK   11  A    between atoms: N_28  and  C_30
REMARK                            x       y       z     vdW  Elec       q    Type
REMARK                         _______ _______ _______ _____ _____    ______ ____
ROOT
ATOM      1  C   UNL     1      -0.015   1.826  -0.159  0.00  0.00    +0.059 A 
ATOM      2  C   UNL     1      -1.197   1.188  -0.503  0.00  0.00    +0.025 A 
ATOM      3  C   UNL     1      -1.263  -0.192  -0.507  0.00  0.00    +0.002 A 
ATOM      4  C   UNL     1      -0.153  -0.948  -0.168  0.00  0.00    +0.002 A 
ATOM      5  C   UNL     1       1.031  -0.329   0.176  0.00  0.00    +0.029 A 
ATOM      6  C   UNL     1       1.112   1.064   0.184  0.00  0.00    +0.085 A 
ENDROOT
BRANCH   1   9
ATOM      7  C   UNL     1      -0.833   3.942  -0.870  0.00  0.00    +0.221 C 
ATOM      8  O   UNL     1      -1.629   3.380  -1.592  0.00  0.00    -0.275 OA
ATOM      9  N   UNL     1       0.054   3.222  -0.155  0.00  0.00    -0.284 N 
ATOM     10  H   UNL     1       0.739   3.672   0.363  0.00  0.00    +0.155 HD
BRANCH   7  13
ATOM     11  C   UNL     1       0.714   7.327  -1.410  0.00  0.00    +0.013 C 
ATOM     12  C   UNL     1       0.014   6.061  -1.907  0.00  0.00    -0.008 C 
ATOM     13  C   UNL     1      -0.834   5.446  -0.774  0.00  0.00    +0.082 C 
ATOM     14  C   UNL     1      -2.258   6.004  -1.016  0.00  0.00    +0.014 C 
ATOM     15  C   UNL     1      -2.367   5.995  -2.564  0.00  0.00    +0.019 C 
ATOM     16  C   UNL     1      -0.961   6.409  -3.046  0.00  0.00    +0.075 C 
ATOM     17  C   UNL     1      -0.925   7.913  -3.324  0.00  0.00    +0.023 C 
ATOM     18  C   UNL     1       1.050   5.046  -2.396  0.00  0.00    +0.013 C 
BRANCH  16  19
ATOM     19  C   UNL     1      -0.594   5.645  -4.291  0.00  0.00    +0.362 C 
ATOM     20  O   UNL     1      -1.325   4.777  -4.705  0.00  0.00    -0.246 OA
ATOM     21  O   UNL     1       0.545   5.929  -4.942  0.00  0.00    -0.246 OA
ENDBRANCH  16  19
ENDBRANCH   7  13
ENDBRANCH   1   9
BRANCH   6  22
ATOM     22  N   UNL     1       2.283   1.683   0.524  0.00  0.00    -0.253 NA
ATOM     23  C   UNL     1       3.422   1.186   0.130  0.00  0.00    +0.119 C 
BRANCH  23  24
ATOM     24  C   UNL     1       4.684   1.782   0.592  0.00  0.00    -0.007 A 
ATOM     25  C   UNL     1       4.665   2.887   1.451  0.00  0.00    +0.011 A 
ATOM     26  C   UNL     1       5.848   3.439   1.885  0.00  0.00    +0.024 A 
ATOM     27  C   UNL     1       7.063   2.906   1.463  0.00  0.00    +0.029 A 
ATOM     28  C   UNL     1       7.087   1.810   0.605  0.00  0.00    +0.024 A 
ATOM     29  C   UNL     1       5.907   1.249   0.170  0.00  0.00    +0.011 A 
BRANCH  27  30
ATOM     30  N   UNL     1       8.258   3.471   1.900  0.00  0.00    -0.336 N 
ATOM     31  C   UNL     1       9.538   2.913   1.456  0.00  0.00    +0.129 C 
ATOM     32  C   UNL     1       8.236   4.625   2.803  0.00  0.00    +0.129 C 
ENDBRANCH  27  30
ENDBRANCH  23  24
ENDBRANCH   6  22
TORSDOF 6
