REMARK  Name = ZINC18248439
REMARK  12 active torsions:
REMARK  status: ('A' for Active; 'I' for Inactive)
REMARK    1  A    between atoms: C_1  and  C_2
REMARK    2  A    between atoms: C_2  and  C_3
REMARK    3  A    between atoms: C_2  and  C_4
REMARK    4  A    between atoms: C_2  and  N_5
REMARK    5  A    between atoms: C_9  and  C_11
REMARK    6  A    between atoms: C_11  and  O_12
REMARK    7  A    between atoms: O_12  and  C_13
REMARK    8  A    between atoms: C_13  and  C_15
REMARK    9  A    between atoms: C_15  and  C_17
REMARK   10  A    between atoms: C_15  and  N_28
REMARK   11  A    between atoms: C_17  and  C_18
REMARK   12  A    between atoms: C_29  and  C_31
REMARK                            x       y       z     vdW  Elec       q    Type
REMARK                         _______ _______ _______ _____ _____    ______ ____
ROOT
ATOM      1  C   UNL     1       2.453  -4.278  -0.045  0.00  0.00    +0.186 C 
ENDROOT
BRANCH   1   2
ATOM      2  N   UNL     1       2.427  -2.813  -0.037  0.00  0.00    -0.298 N 
ATOM      3  C   UNL     1       1.248  -2.160  -0.022  0.00  0.00    +0.245 C 
ATOM      4  O   UNL     1       0.207  -2.787  -0.016  0.00  0.00    -0.270 OA
ATOM      5  H   UNL     1       3.259  -2.313  -0.042  0.00  0.00    +0.150 HD
BRANCH   3   6
ATOM      6  C   UNL     1       1.222  -0.683  -0.013  0.00  0.00    +0.037 A 
ATOM      7  C   UNL     1       0.002  -0.004   0.002  0.00  0.00    +0.016 A 
ATOM      8  C   UNL     1      -0.017   1.374   0.010  0.00  0.00    +0.039 A 
ATOM      9  C   UNL     1       1.173   2.086   0.002  0.00  0.00    +0.123 A 
ATOM     10  C   UNL     1       2.387   1.417  -0.013  0.00  0.00    +0.039 A 
ATOM     11  C   UNL     1       2.417   0.039  -0.021  0.00  0.00    +0.016 A 
ATOM     12  F   UNL     1       1.149   3.437   0.009  0.00  0.00    -0.205 F 
ENDBRANCH   3   6
ENDBRANCH   1   2
BRANCH   1  13
ATOM     13  C   UNL     1       3.755  -4.761   0.540  0.00  0.00    +0.328 C 
ATOM     14  O   UNL     1       4.577  -3.963   0.925  0.00  0.00    -0.249 OA
BRANCH  13  15
ATOM     15  O   UNL     1       4.002  -6.077   0.634  0.00  0.00    -0.454 OA
BRANCH  15  16
ATOM     16  C   UNL     1       5.276  -6.469   1.208  0.00  0.00    +0.328 C 
BRANCH  16  21
ATOM     17  N   UNL     1       7.670 -10.508   2.241  0.00  0.00    -0.294 N 
ATOM     18  C   UNL     1       6.566  -9.913   1.748  0.00  0.00    +0.306 C 
ATOM     19  O   UNL     1       5.651 -10.589   1.321  0.00  0.00    -0.252 OA
ATOM     20  N   UNL     1       6.479  -8.568   1.726  0.00  0.00    -0.237 N 
ATOM     21  C   UNL     1       5.375  -7.973   1.232  0.00  0.00    +0.258 C 
ATOM     22  O   UNL     1       4.461  -8.647   0.807  0.00  0.00    -0.272 OA
ATOM     23  H   UNL     1       8.401  -9.969   2.581  0.00  0.00    +0.151 HD
ATOM     24  H   UNL     1       7.210  -8.029   2.066  0.00  0.00    +0.159 HD
BRANCH  17  26
ATOM     25  C   UNL     1       7.662 -12.511   0.837  0.00  0.00    +0.031 C 
ATOM     26  C   UNL     1       7.766 -11.970   2.264  0.00  0.00    +0.028 C 
ATOM     27  C   UNL     1       9.109 -12.384   2.870  0.00  0.00    +0.031 C 
ATOM     28  C   UNL     1       6.627 -12.542   3.111  0.00  0.00    +0.031 C 
ENDBRANCH  17  26
ENDBRANCH  16  21
ENDBRANCH  15  16
ENDBRANCH  13  15
ENDBRANCH   1  13
BRANCH   1  29
ATOM     29  C   UNL     1       2.323  -4.782  -1.484  0.00  0.00    +0.071 C 
BRANCH  29  30
ATOM     30  C   UNL     1       0.970  -4.404  -2.028  0.00  0.00    -0.020 A 
ATOM     31  C   UNL     1      -0.131  -5.173  -2.036  0.00  0.00    +0.087 A 
ATOM     32  N   UNL     1      -1.170  -4.493  -2.611  0.00  0.00    -0.360 N 
ATOM     33  H   UNL     1      -2.067  -4.843  -2.729  0.00  0.00    +0.165 HD
ATOM     34  C   UNL     1      -0.754  -3.239  -2.996  0.00  0.00    +0.047 A 
ATOM     35  C   UNL     1       0.604  -3.126  -2.643  0.00  0.00    +0.003 A 
ATOM     36  C   UNL     1       1.300  -1.948  -2.922  0.00  0.00    +0.010 A 
ATOM     37  C   UNL     1       0.656  -0.906  -3.528  0.00  0.00    +0.001 A 
ATOM     38  C   UNL     1      -0.684  -1.011  -3.873  0.00  0.00    +0.002 A 
ATOM     39  C   UNL     1      -1.389  -2.166  -3.612  0.00  0.00    +0.026 A 
ENDBRANCH  29  30
ENDBRANCH   1  29
TORSDOF 9
