REMARK  Name = ZINC35293672
REMARK  18 active torsions:
REMARK  status: ('A' for Active; 'I' for Inactive)
REMARK    1  A    between atoms: C_1  and  C_2
REMARK    2  A    between atoms: C_2  and  N_3
REMARK    3  A    between atoms: N_3  and  C_4
REMARK    4  A    between atoms: N_3  and  C_6
REMARK    5  A    between atoms: C_4  and  C_5
REMARK    6  A    between atoms: C_6  and  C_7
REMARK    7  A    between atoms: C_7  and  C_8
REMARK    8  A    between atoms: C_8  and  C_9
REMARK    9  A    between atoms: C_9  and  C_11
REMARK   10  A    between atoms: C_9  and  N_12
REMARK   11  A    between atoms: C_13  and  C_15
REMARK   12  A    between atoms: C_15  and  S_16
REMARK   13  A    between atoms: S_16  and  C_17
REMARK   14  A    between atoms: C_28  and  C_31
REMARK   15  A    between atoms: C_32  and  C_34
REMARK   16  A    between atoms: C_34  and  C_35
REMARK   17  A    between atoms: C_34  and  C_36
REMARK   18  A    between atoms: C_34  and  C_37
REMARK                            x       y       z     vdW  Elec       q    Type
REMARK                         _______ _______ _______ _____ _____    ______ ____
ROOT
ATOM      1  C   UNL     1       2.791  -2.989  -7.704  0.00  0.00    +0.192 A 
ATOM      2  N   UNL     1       3.180  -2.505  -8.874  0.00  0.00    -0.207 NA
ATOM      3  C   UNL     1       2.291  -2.229  -9.823  0.00  0.00    +0.127 A 
ATOM      4  C   UNL     1       0.937  -2.457  -9.569  0.00  0.00    +0.083 A 
ATOM      5  C   UNL     1       0.573  -2.963  -8.334  0.00  0.00    +0.135 A 
ATOM      6  N   UNL     1       1.514  -3.220  -7.436  0.00  0.00    -0.210 NA
ATOM      7 CL   UNL     1      -1.097  -3.265  -7.967  0.00  0.00    -0.062 Cl
ATOM      8  N   UNL     1       2.701  -1.723 -11.045  0.00  0.00    -0.312 N 
ATOM      9  C   UNL     1       4.126  -1.698 -11.404  0.00  0.00    +0.125 C 
ATOM     10  C   UNL     1       4.514  -0.260 -11.770  0.00  0.00    +0.127 C 
ATOM     11  N   UNL     1       3.532   0.262 -12.731  0.00  0.00    -0.295 N 
ATOM     12  C   UNL     1       2.107   0.237 -12.371  0.00  0.00    +0.090 C 
ATOM     13  C   UNL     1       1.718  -1.206 -12.008  0.00  0.00    +0.128 C 
ATOM     14  C   UNL     1       1.864   1.159 -11.175  0.00  0.00    +0.029 C 
ATOM     15  C   UNL     1       3.931   0.754 -13.920  0.00  0.00    +0.221 C 
ATOM     16  O   UNL     1       3.126   1.277 -14.661  0.00  0.00    -0.275 OA
ENDROOT
BRANCH  15  17
ATOM     17  C   UNL     1       5.378   0.656 -14.329  0.00  0.00    +0.039 C 
ATOM     18  C   UNL     1       5.548   1.214 -15.743  0.00  0.00    +0.020 C 
ATOM     19  C   UNL     1       6.239   1.464 -13.356  0.00  0.00    +0.020 C 
ATOM     20  C   UNL     1       5.818  -0.809 -14.303  0.00  0.00    +0.020 C 
ENDBRANCH  15  17
BRANCH   1  21
ATOM     21  S   UNL     1       4.004  -3.342  -6.474  0.00  0.00    -0.077 S 
BRANCH  21  22
ATOM     22  C   UNL     1       3.039  -3.978  -5.076  0.00  0.00    +0.173 C 
BRANCH  22  24
ATOM     23  N   UNL     1       3.470  -4.816  -2.789  0.00  0.00    -0.312 N 
ATOM     24  C   UNL     1       3.967  -4.322  -3.940  0.00  0.00    +0.224 C 
ATOM     25  O   UNL     1       5.162  -4.155  -4.062  0.00  0.00    -0.275 OA
ATOM     26  H   UNL     1       2.514  -4.949  -2.691  0.00  0.00    +0.149 HD
BRANCH  23  27
ATOM     27  C   UNL     1       4.373  -5.151  -1.685  0.00  0.00    +0.070 C 
ATOM     28  C   UNL     1       4.919  -6.566  -1.885  0.00  0.00    +0.028 C 
BRANCH  27  29
ATOM     29  C   UNL     1       3.608  -5.081  -0.362  0.00  0.00    +0.020 C 
BRANCH  29  30
ATOM     30  C   UNL     1       3.169  -3.639  -0.102  0.00  0.00    -0.017 C 
BRANCH  30  31
ATOM     31  C   UNL     1       2.404  -3.570   1.222  0.00  0.00    -0.079 C 
BRANCH  31  32
ATOM     32  N   UNL     1       1.982  -2.185   1.471  0.00  0.00    +0.379 N 
ATOM     33  H   UNL     1       2.787  -1.577   1.439  0.00  0.00    -0.082 HD
BRANCH  32  35
ATOM     34  C   UNL     1       0.673  -0.294   0.628  0.00  0.00    -0.017 C 
ATOM     35  C   UNL     1       1.017  -1.774   0.443  0.00  0.00    -0.082 C 
ENDBRANCH  32  35
BRANCH  32  36
ATOM     36  C   UNL     1       1.353  -2.095   2.796  0.00  0.00    -0.082 C 
ATOM     37  C   UNL     1       2.394  -2.399   3.876  0.00  0.00    -0.017 C 
ENDBRANCH  32  36
ENDBRANCH  31  32
ENDBRANCH  30  31
ENDBRANCH  29  30
ENDBRANCH  27  29
ENDBRANCH  23  27
ENDBRANCH  22  24
ENDBRANCH  21  22
ENDBRANCH   1  21
TORSDOF 11
