REMARK  Name = ZINC03207157
REMARK  6 active torsions:
REMARK  status: ('A' for Active; 'I' for Inactive)
REMARK    1  A    between atoms: C_8  and  C_10
REMARK    2  A    between atoms: N_12  and  C_13
REMARK    3  A    between atoms: C_13  and  N_15
REMARK    4  A    between atoms: N_15  and  C_16
REMARK    5  A    between atoms: C_19  and  S_22
REMARK    6  A    between atoms: S_22  and  N_25
REMARK                            x       y       z     vdW  Elec       q    Type
REMARK                         _______ _______ _______ _____ _____    ______ ____
ROOT
ATOM      1  N   UNL     1      -4.697  -0.836   0.041  0.00  0.00    -0.297 N 
ATOM      2  H   UNL     1      -3.944  -0.964  -0.558  0.00  0.00    +0.154 HD
ENDROOT
BRANCH   1   3
ATOM      3  C   UNL     1      -5.717  -1.792   0.095  0.00  0.00    +0.033 A 
ATOM      4  C   UNL     1      -5.402  -3.143   0.155  0.00  0.00    +0.025 A 
ATOM      5  C   UNL     1      -6.411  -4.084   0.215  0.00  0.00    +0.030 A 
ATOM      6  C   UNL     1      -7.734  -3.683   0.204  0.00  0.00    +0.109 A 
ATOM      7  C   UNL     1      -8.052  -2.338   0.138  0.00  0.00    +0.030 A 
ATOM      8  C   UNL     1      -7.047  -1.392   0.084  0.00  0.00    +0.025 A 
BRANCH   6   9
ATOM      9  S   UNL     1      -9.019  -4.887   0.273  0.00  0.00    +0.074 S 
ATOM     10  O   UNL     1      -8.459  -6.044   0.879  0.00  0.00    -0.150 OA
ATOM     11  O   UNL     1     -10.164  -4.229   0.799  0.00  0.00    -0.150 OA
BRANCH   9  12
ATOM     12  N   UNL     1      -9.386  -5.301  -1.288  0.00  0.00    -0.194 N 
ATOM     13  C   UNL     1      -8.443  -5.943  -2.075  0.00  0.00    +0.177 A 
ATOM     14  N   UNL     1      -7.211  -6.300  -1.766  0.00  0.00    -0.232 NA
ATOM     15  C   UNL     1      -6.438  -6.914  -2.643  0.00  0.00    +0.120 A 
ATOM     16  C   UNL     1      -6.934  -7.163  -3.878  0.00  0.00    +0.068 A 
ATOM     17  S   UNL     1      -8.577  -6.477  -3.721  0.00  0.00    -0.059 S 
ATOM     18  H   UNL     1     -10.261  -5.094  -1.651  0.00  0.00    +0.176 HD
ENDBRANCH   9  12
ENDBRANCH   6   9
ENDBRANCH   1   3
BRANCH   1  19
ATOM     19  C   UNL     1      -4.761   0.262   0.819  0.00  0.00    +0.141 C 
ATOM     20  S   UNL     1      -6.140   0.542   1.794  0.00  0.00    -0.018 S 
BRANCH  19  23
ATOM     21  C   UNL     1      -3.802   2.239   1.608  0.00  0.00    +0.258 C 
ATOM     22  O   UNL     1      -4.782   2.437   2.301  0.00  0.00    -0.269 OA
ATOM     23  N   UNL     1      -3.738   1.140   0.830  0.00  0.00    -0.263 N 
ATOM     24  H   UNL     1      -2.957   0.982   0.277  0.00  0.00    +0.157 HD
BRANCH  21  32
ATOM     25  C   UNL     1       0.076   6.993   2.615  0.00  0.00    +0.001 A 
ATOM     26  C   UNL     1       1.016   6.478   1.731  0.00  0.00    +0.001 A 
ATOM     27  C   UNL     1       0.756   5.292   1.076  0.00  0.00    +0.016 A 
ATOM     28  C   UNL     1      -0.434   4.634   1.309  0.00  0.00    +0.021 A 
ATOM     29  C   UNL     1      -1.409   5.135   2.203  0.00  0.00    +0.008 A 
ATOM     30  C   UNL     1      -1.100   6.357   2.854  0.00  0.00    +0.010 A 
ATOM     31  C   UNL     1      -2.569   4.349   2.332  0.00  0.00    +0.068 A 
ATOM     32  C   UNL     1      -2.689   3.195   1.620  0.00  0.00    +0.094 A 
ATOM     33  S   UNL     1      -1.158   3.131   0.705  0.00  0.00    -0.082 S 
ATOM     34 CL   UNL     1      -3.845   4.849   3.398  0.00  0.00    -0.082 Cl
ENDBRANCH  21  32
ENDBRANCH  19  23
ENDBRANCH   1  19
TORSDOF 6
