REMARK  Name = ZINC61555681
REMARK  15 active torsions:
REMARK  status: ('A' for Active; 'I' for Inactive)
REMARK    1  A    between atoms: C_1  and  C_2
REMARK    2  A    between atoms: C_2  and  O_3
REMARK    3  A    between atoms: O_3  and  C_4
REMARK    4  A    between atoms: N_6  and  C_7
REMARK    5  A    between atoms: C_7  and  C_8
REMARK    6  A    between atoms: C_7  and  C_12
REMARK    7  A    between atoms: C_8  and  C_9
REMARK    8  A    between atoms: C_9  and  C_10
REMARK    9  A    between atoms: C_9  and  C_11
REMARK   10  A    between atoms: C_12  and  N_13
REMARK   11  A    between atoms: N_16  and  C_17
REMARK   12  A    between atoms: C_19  and  C_24
REMARK   13  A    between atoms: C_22  and  C_23
REMARK   14  A    between atoms: N_26  and  C_27
REMARK   15  A    between atoms: N_26  and  C_28
REMARK                            x       y       z     vdW  Elec       q    Type
REMARK                         _______ _______ _______ _____ _____    ______ ____
ROOT
ATOM      1  N   UNL     1      -0.112  -3.923  -5.380  0.00  0.00    -0.297 N 
ATOM      2  C   UNL     1      -0.181  -4.048  -6.720  0.00  0.00    +0.304 C 
ATOM      3  O   UNL     1       0.654  -4.702  -7.314  0.00  0.00    -0.253 OA
ATOM      4  N   UNL     1      -1.177  -3.449  -7.402  0.00  0.00    -0.269 N 
ATOM      5  H   UNL     1      -0.778  -3.402  -4.906  0.00  0.00    +0.150 HD
ATOM      6  H   UNL     1      -1.804  -2.872  -6.938  0.00  0.00    +0.156 HD
ENDROOT
BRANCH   4   7
ATOM      7  C   UNL     1      -1.307  -3.658  -8.780  0.00  0.00    +0.038 A 
ATOM      8  C   UNL     1      -0.194  -3.985  -9.539  0.00  0.00    +0.036 A 
ATOM      9  C   UNL     1      -0.328  -4.193 -10.911  0.00  0.00    +0.039 A 
ATOM     10  C   UNL     1      -1.583  -4.071 -11.512  0.00  0.00    +0.013 A 
ATOM     11  C   UNL     1      -2.685  -3.745 -10.747  0.00  0.00    +0.006 A 
ATOM     12  C   UNL     1      -2.552  -3.544  -9.386  0.00  0.00    -0.029 A 
ATOM     13  C   UNL     1      -3.761  -3.195  -8.557  0.00  0.00    +0.045 C 
BRANCH   9  14
ATOM     14  C   UNL     1       0.854  -4.541 -11.728  0.00  0.00    +0.246 C 
ATOM     15  O   UNL     1       1.940  -4.066 -11.459  0.00  0.00    -0.270 OA
ATOM     16  N   UNL     1       0.727  -5.386 -12.771  0.00  0.00    -0.304 N 
ATOM     17  C   UNL     1       1.914  -5.809 -13.519  0.00  0.00    +0.132 C 
ATOM     18  C   UNL     1      -0.597  -5.880 -13.157  0.00  0.00    +0.132 C 
ENDBRANCH   9  14
ENDBRANCH   4   7
BRANCH   1  19
ATOM     19  C   UNL     1       0.971  -4.575  -4.639  0.00  0.00    +0.128 C 
BRANCH  19  20
ATOM     20  C   UNL     1       0.819  -4.276  -3.146  0.00  0.00    +0.093 C 
BRANCH  20  23
ATOM     21  C   UNL     1       0.222  -2.327  -1.811  0.00  0.00    +0.401 C 
ATOM     22  O   UNL     1      -0.297  -3.073  -1.004  0.00  0.00    -0.226 OA
ATOM     23  N   UNL     1       0.761  -2.827  -2.941  0.00  0.00    -0.277 N 
ATOM     24  H   UNL     1       1.110  -2.227  -3.618  0.00  0.00    +0.152 HD
BRANCH  21  25
ATOM     25  O   UNL     1       0.259  -1.002  -1.577  0.00  0.00    -0.451 OA
BRANCH  25  27
ATOM     26  C   UNL     1      -0.194   0.980  -0.269  0.00  0.00    +0.048 C 
ATOM     27  C   UNL     1      -0.331  -0.542  -0.359  0.00  0.00    +0.230 C 
ENDBRANCH  25  27
ENDBRANCH  21  25
ENDBRANCH  20  23
BRANCH  20  28
ATOM     28  C   UNL     1       2.016  -4.851  -2.386  0.00  0.00    +0.027 C 
BRANCH  28  29
ATOM     29  C   UNL     1       2.037  -6.373  -2.543  0.00  0.00    -0.015 C 
ATOM     30  C   UNL     1       3.290  -6.938  -1.870  0.00  0.00    +0.007 C 
ATOM     31  C   UNL     1       0.791  -6.970  -1.885  0.00  0.00    +0.007 C 
ENDBRANCH  28  29
ENDBRANCH  20  28
ENDBRANCH  19  20
ENDBRANCH   1  19
TORSDOF 9
