REMARK  Name = ZINC39920371
REMARK  6 active torsions:
REMARK  status: ('A' for Active; 'I' for Inactive)
REMARK    1  A    between atoms: C_1  and  C_2
REMARK    2  A    between atoms: N_13  and  N_14
REMARK    3  A    between atoms: C_15  and  C_17
REMARK    4  A    between atoms: C_17  and  C_19
REMARK    5  A    between atoms: C_17  and  O_20
REMARK    6  A    between atoms: O_20  and  C_21
REMARK                            x       y       z     vdW  Elec       q    Type
REMARK                         _______ _______ _______ _____ _____    ______ ____
ROOT
ATOM      1  N   UNL     1      -0.200  -0.905   2.010  0.00  0.00    -0.227 N 
ATOM      2  C   UNL     1      -0.359  -2.130   2.548  0.00  0.00    +0.270 C 
ATOM      3  O   UNL     1       0.167  -3.093   2.030  0.00  0.00    -0.270 OA
ATOM      4  H   UNL     1      -0.620  -0.135   2.424  0.00  0.00    +0.173 HD
ENDROOT
BRANCH   1  16
ATOM      5  C   UNL     1      -0.258   0.996  -0.648  0.00  0.00    +0.051 C 
ATOM      6  C   UNL     1      -0.093  -0.510  -0.429  0.00  0.00    +0.177 C 
ATOM      7  N   UNL     1       0.704  -1.075  -1.524  0.00  0.00    -0.324 N 
ATOM      8  C   UNL     1       2.079  -0.863  -1.523  0.00  0.00    +0.041 A 
ATOM      9  C   UNL     1       2.810  -0.794  -2.696  0.00  0.00    +0.025 A 
ATOM     10  C   UNL     1       4.174  -0.578  -2.640  0.00  0.00    +0.017 A 
ATOM     11  C   UNL     1       4.814  -0.428  -1.419  0.00  0.00    +0.019 A 
ATOM     12  C   UNL     1       4.099  -0.495  -0.240  0.00  0.00    +0.030 A 
ATOM     13  C   UNL     1       2.724  -0.715  -0.283  0.00  0.00    +0.060 A 
ATOM     14  C   UNL     1       1.914  -0.804   0.945  0.00  0.00    +0.266 C 
ATOM     15  O   UNL     1       2.452  -0.932   2.029  0.00  0.00    -0.268 OA
ATOM     16  N   UNL     1       0.573  -0.743   0.852  0.00  0.00    -0.196 N 
ATOM     17 BR   UNL     1       6.681  -0.131  -1.368  0.00  0.00    -0.050 Br
ATOM     18  H   UNL     1       0.282  -1.586  -2.232  0.00  0.00    +0.148 HD
ENDBRANCH   1  16
BRANCH   2  19
ATOM     19  C   UNL     1      -1.190  -2.304   3.793  0.00  0.00    +0.257 C 
ATOM     20  C   UNL     1      -0.518  -1.579   4.960  0.00  0.00    +0.062 C 
BRANCH  19  21
ATOM     21  O   UNL     1      -1.304  -3.695   4.098  0.00  0.00    -0.480 OA
BRANCH  21  22
ATOM     22  C   UNL     1      -2.384  -4.080   4.828  0.00  0.00    +0.122 A 
ATOM     23  C   UNL     1      -3.258  -3.111   5.331  0.00  0.00    +0.046 A 
ATOM     24  C   UNL     1      -4.347  -3.465   6.064  0.00  0.00    +0.012 A 
ATOM     25  C   UNL     1      -4.603  -4.823   6.322  0.00  0.00    -0.018 A 
ATOM     26  C   UNL     1      -5.720  -5.223   7.075  0.00  0.00    +0.008 A 
ATOM     27  C   UNL     1      -5.937  -6.547   7.306  0.00  0.00    +0.001 A 
ATOM     28  C   UNL     1      -5.068  -7.515   6.805  0.00  0.00    +0.001 A 
ATOM     29  C   UNL     1      -3.977  -7.165   6.071  0.00  0.00    +0.008 A 
ATOM     30  C   UNL     1      -3.719  -5.807   5.813  0.00  0.00    -0.014 A 
ATOM     31  C   UNL     1      -2.606  -5.408   5.055  0.00  0.00    +0.054 A 
ENDBRANCH  21  22
ENDBRANCH  19  21
ENDBRANCH   2  19
TORSDOF 4
