REMARK  Name = ZINC12880532
REMARK  7 active torsions:
REMARK  status: ('A' for Active; 'I' for Inactive)
REMARK    1  A    between atoms: C_1  and  C_2
REMARK    2  A    between atoms: C_2  and  C_27
REMARK    3  A    between atoms: N_5  and  N_9
REMARK    4  A    between atoms: C_10  and  C_12
REMARK    5  A    between atoms: N_17  and  C_19
REMARK    6  A    between atoms: C_19  and  C_20
REMARK    7  A    between atoms: C_20  and  C_21
REMARK                            x       y       z     vdW  Elec       q    Type
REMARK                         _______ _______ _______ _____ _____    ______ ____
ROOT
ATOM      1  N   UNL     1       3.359   6.172   2.739  0.00  0.00    -0.223 N 
ATOM      2  C   UNL     1       2.862   6.020   3.982  0.00  0.00    +0.235 C 
ATOM      3  O   UNL     1       2.257   5.010   4.274  0.00  0.00    -0.274 OA
ATOM      4  H   UNL     1       3.842   6.980   2.505  0.00  0.00    +0.174 HD
ENDROOT
BRANCH   1   9
ATOM      5  C   UNL     1       2.907   4.204  -1.437  0.00  0.00    +0.047 C 
ATOM      6  C   UNL     1       2.451   3.937  -0.001  0.00  0.00    +0.137 C 
ATOM      7  C   UNL     1       2.302   5.238   0.762  0.00  0.00    +0.267 C 
ATOM      8  O   UNL     1       1.551   6.155   0.505  0.00  0.00    -0.271 OA
ATOM      9  N   UNL     1       3.177   5.164   1.784  0.00  0.00    -0.137 N 
ATOM     10  C   UNL     1       3.852   4.008   1.773  0.00  0.00    +0.327 C 
ATOM     11  O   UNL     1       4.696   3.712   2.595  0.00  0.00    -0.251 OA
ATOM     12  N   UNL     1       3.492   3.210   0.747  0.00  0.00    -0.280 N 
ATOM     13  H   UNL     1       3.846   2.331   0.541  0.00  0.00    +0.152 HD
BRANCH   6  14
ATOM     14  C   UNL     1       1.156   3.165   0.008  0.00  0.00    -0.015 A 
ATOM     15  C   UNL     1       1.175   1.783   0.000  0.00  0.00    +0.006 A 
ATOM     16  C   UNL     1      -0.013   1.076   0.008  0.00  0.00    +0.000 A 
ATOM     17  C   UNL     1      -1.219   1.751   0.017  0.00  0.00    +0.000 A 
ATOM     18  C   UNL     1      -1.238   3.133   0.030  0.00  0.00    +0.000 A 
ATOM     19  C   UNL     1      -0.050   3.840   0.022  0.00  0.00    +0.006 A 
ENDBRANCH   6  14
ENDBRANCH   1   9
BRANCH   2  20
ATOM     20  C   UNL     1       3.057   7.105   5.010  0.00  0.00    +0.102 C 
ATOM     21  C   UNL     1       4.560   7.337   5.291  0.00  0.00    +0.110 C 
ATOM     22  C   UNL     1       4.620   7.622   6.776  0.00  0.00    +0.216 C 
ATOM     23  O   UNL     1       5.562   8.127   7.349  0.00  0.00    -0.276 OA
ATOM     24  N   UNL     1       3.477   7.234   7.367  0.00  0.00    -0.300 N 
ATOM     25  C   UNL     1       2.543   6.653   6.395  0.00  0.00    +0.121 C 
BRANCH  24  26
ATOM     26  C   UNL     1       3.198   7.375   8.799  0.00  0.00    +0.112 C 
BRANCH  26  27
ATOM     27  C   UNL     1       2.536   8.730   9.059  0.00  0.00    +0.054 C 
BRANCH  27  28
ATOM     28  C   UNL     1       2.250   8.874  10.531  0.00  0.00    -0.046 A 
ATOM     29  C   UNL     1       1.038   8.450  11.044  0.00  0.00    +0.004 A 
ATOM     30  C   UNL     1       0.777   8.578  12.396  0.00  0.00    +0.000 A 
ATOM     31  C   UNL     1       1.724   9.139  13.232  0.00  0.00    +0.000 A 
ATOM     32  C   UNL     1       2.933   9.569  12.719  0.00  0.00    +0.000 A 
ATOM     33  C   UNL     1       3.196   9.436  11.368  0.00  0.00    +0.004 A 
ENDBRANCH  27  28
ENDBRANCH  26  27
ENDBRANCH  24  26
ENDBRANCH   2  20
TORSDOF 6
