REMARK  Name = ZINC45912823
REMARK  7 active torsions:
REMARK  status: ('A' for Active; 'I' for Inactive)
REMARK    1  A    between atoms: C_1  and  C_2
REMARK    2  A    between atoms: C_2  and  N_3
REMARK    3  A    between atoms: C_10  and  C_26
REMARK    4  A    between atoms: C_11  and  S_13
REMARK    5  A    between atoms: S_13  and  C_14
REMARK    6  A    between atoms: C_14  and  C_15
REMARK    7  A    between atoms: N_17  and  C_18
REMARK                            x       y       z     vdW  Elec       q    Type
REMARK                         _______ _______ _______ _____ _____    ______ ____
ROOT
ATOM      1  N   UNL     1       0.709  -0.363   1.144  0.00  0.00    +0.380 N 
ATOM      2  C   UNL     1       2.114   0.057   1.083  0.00  0.00    -0.075 C 
ATOM      3  C   UNL     1       2.841  -0.394   2.352  0.00  0.00    +0.035 C 
ATOM      4  C   UNL     1       2.756  -1.917   2.467  0.00  0.00    +0.150 C 
ATOM      5  C   UNL     1       1.292  -2.357   2.444  0.00  0.00    +0.035 C 
ATOM      6  C   UNL     1       0.626  -1.828   1.171  0.00  0.00    -0.075 C 
ATOM      7  N   UNL     1       3.488  -2.546   1.364  0.00  0.00    -0.251 NA
ATOM      8  C   UNL     1       4.433  -3.267   1.890  0.00  0.00    +0.100 C 
ATOM      9  C   UNL     1       4.377  -3.154   3.367  0.00  0.00    +0.120 C 
ATOM     10  N   UNL     1       3.398  -2.366   3.705  0.00  0.00    -0.246 NA
ATOM     11  H   UNL     1       0.285   0.012   1.979  0.00  0.00    -0.082 HD
ENDROOT
BRANCH   8  12
ATOM     12  C   UNL     1       5.413  -4.077   1.132  0.00  0.00    +0.003 A 
ATOM     13  C   UNL     1       6.016  -5.186   1.728  0.00  0.00    +0.011 A 
ATOM     14  C   UNL     1       6.928  -5.937   1.016  0.00  0.00    +0.016 A 
ATOM     15  C   UNL     1       7.245  -5.593  -0.287  0.00  0.00    +0.018 A 
ATOM     16  C   UNL     1       6.650  -4.495  -0.884  0.00  0.00    +0.016 A 
ATOM     17  C   UNL     1       5.732  -3.739  -0.184  0.00  0.00    +0.011 A 
ATOM     18 BR   UNL     1       8.497  -6.628  -1.256  0.00  0.00    -0.050 Br
ENDBRANCH   8  12
BRANCH   1  20
ATOM     19  C   UNL     1      -0.025   1.674   0.000  0.00  0.00    -0.017 C 
ATOM     20  C   UNL     1      -0.004   0.145  -0.036  0.00  0.00    -0.082 C 
ENDBRANCH   1  20
BRANCH   9  21
ATOM     21  S   UNL     1       5.467  -3.963   4.491  0.00  0.00    -0.095 S 
BRANCH  21  22
ATOM     22  C   UNL     1       4.887  -3.428   6.125  0.00  0.00    +0.172 C 
BRANCH  22  23
ATOM     23  C   UNL     1       5.745  -4.056   7.192  0.00  0.00    +0.228 C 
ATOM     24  O   UNL     1       6.658  -4.792   6.882  0.00  0.00    -0.275 OA
ATOM     25  N   UNL     1       5.498  -3.801   8.492  0.00  0.00    -0.282 N 
ATOM     26  H   UNL     1       4.720  -3.280   8.745  0.00  0.00    +0.155 HD
BRANCH  25  27
ATOM     27  C   UNL     1       6.366  -4.287   9.479  0.00  0.00    +0.072 A 
ATOM     28  C   UNL     1       7.726  -4.384   9.222  0.00  0.00    +0.064 A 
ATOM     29  C   UNL     1       8.581  -4.864  10.198  0.00  0.00    +0.125 A 
ATOM     30  C   UNL     1       8.079  -5.249  11.431  0.00  0.00    +0.041 A 
ATOM     31  C   UNL     1       6.724  -5.154  11.689  0.00  0.00    +0.043 A 
ATOM     32  C   UNL     1       5.866  -4.669  10.719  0.00  0.00    +0.145 A 
ATOM     33  F   UNL     1       4.543  -4.572  10.974  0.00  0.00    -0.204 F 
ATOM     34  F   UNL     1       9.905  -4.959   9.949  0.00  0.00    -0.205 F 
ENDBRANCH  25  27
ENDBRANCH  22  23
ENDBRANCH  21  22
ENDBRANCH   9  21
TORSDOF 6
