REMARK  Name = ZINC39630790
REMARK  11 active torsions:
REMARK  status: ('A' for Active; 'I' for Inactive)
REMARK    1  A    between atoms: C_1  and  C_2
REMARK    2  A    between atoms: C_4  and  C_9
REMARK    3  A    between atoms: C_13  and  C_22
REMARK    4  A    between atoms: N_24  and  C_25
REMARK    5  A    between atoms: C_25  and  C_26
REMARK    6  A    between atoms: C_26  and  C_27
REMARK    7  A    between atoms: C_26  and  C_28
REMARK    8  A    between atoms: C_26  and  C_29
REMARK    9  A    between atoms: C_29  and  N_30
REMARK   10  A    between atoms: N_30  and  C_31
REMARK   11  A    between atoms: N_30  and  C_32
REMARK                            x       y       z     vdW  Elec       q    Type
REMARK                         _______ _______ _______ _____ _____    ______ ____
ROOT
ATOM      1  C   UNL     1      -1.467  -2.499  -0.677  0.00  0.00    +0.247 C 
ATOM      2  O   UNL     1      -1.844  -1.754  -1.560  0.00  0.00    -0.270 OA
ATOM      3  N   UNL     1      -1.186  -3.788  -0.956  0.00  0.00    -0.296 N 
ATOM      4  C   UNL     1      -0.836  -4.868  -0.005  0.00  0.00    +0.121 C 
ATOM      5  C   UNL     1      -1.568  -6.117  -0.545  0.00  0.00    +0.100 C 
ATOM      6  C   UNL     1      -1.775  -5.833  -2.042  0.00  0.00    -0.004 C 
ATOM      7  C   UNL     1      -1.165  -4.445  -2.285  0.00  0.00    +0.115 C 
ATOM      8  C   UNL     1      -3.264  -5.813  -2.376  0.00  0.00    -0.010 C 
ATOM      9  C   UNL     1      -3.443  -5.586  -3.879  0.00  0.00    -0.082 C 
ATOM     10  N   UNL     1      -2.769  -6.658  -4.622  0.00  0.00    +0.379 N 
ATOM     11  C   UNL     1      -1.324  -6.612  -4.367  0.00  0.00    -0.082 C 
ATOM     12  C   UNL     1      -1.056  -6.882  -2.884  0.00  0.00    -0.010 C 
ATOM     13  H   UNL     1      -3.133  -7.551  -4.324  0.00  0.00    -0.086 HD
ATOM     14  H   UNL     1      -2.940  -6.541  -5.609  0.00  0.00    -0.086 HD
ENDROOT
BRANCH   1  18
ATOM     15  C   UNL     1      -2.678   0.796   2.869  0.00  0.00    +0.045 C 
ATOM     16  C   UNL     1      -1.896  -0.409   2.413  0.00  0.00    -0.036 A 
ATOM     17  C   UNL     1      -2.041  -0.877   1.124  0.00  0.00    +0.017 A 
ATOM     18  C   UNL     1      -1.316  -1.993   0.704  0.00  0.00    +0.037 A 
ATOM     19  C   UNL     1      -0.448  -2.630   1.593  0.00  0.00    +0.014 A 
ATOM     20  C   UNL     1      -0.312  -2.153   2.880  0.00  0.00    +0.016 A 
ATOM     21  C   UNL     1      -1.030  -1.042   3.289  0.00  0.00    +0.021 A 
ATOM     22 BR   UNL     1      -0.831  -0.390   5.053  0.00  0.00    -0.050 Br
ENDBRANCH   1  18
BRANCH   5  23
ATOM     23  C   UNL     1      -0.719  -7.347  -0.355  0.00  0.00    +0.218 C 
ATOM     24  O   UNL     1       0.488  -7.245  -0.280  0.00  0.00    -0.275 OA
ATOM     25  N   UNL     1      -1.299  -8.560  -0.268  0.00  0.00    -0.315 N 
ATOM     26  H   UNL     1      -2.264  -8.642  -0.328  0.00  0.00    +0.149 HD
BRANCH  25  27
ATOM     27  C   UNL     1      -0.473  -9.756  -0.083  0.00  0.00    +0.108 C 
BRANCH  27  28
ATOM     28  C   UNL     1      -1.372 -10.992  -0.016  0.00  0.00    -0.034 C 
ATOM     29  C   UNL     1      -2.341 -10.854   1.160  0.00  0.00    +0.010 C 
ATOM     30  C   UNL     1      -2.165 -11.116  -1.318  0.00  0.00    +0.010 C 
BRANCH  28  31
ATOM     31  C   UNL     1      -0.510 -12.241   0.177  0.00  0.00    -0.072 C 
BRANCH  31  32
ATOM     32  N   UNL     1      -1.371 -13.430   0.211  0.00  0.00    +0.376 N 
ATOM     33  C   UNL     1      -1.614 -13.898  -1.160  0.00  0.00    -0.097 C 
ATOM     34  C   UNL     1      -0.709 -14.492   0.981  0.00  0.00    -0.097 C 
ATOM     35  H   UNL     1      -2.250 -13.197   0.648  0.00  0.00    -0.083 HD
ENDBRANCH  31  32
ENDBRANCH  28  31
ENDBRANCH  27  28
ENDBRANCH  25  27
ENDBRANCH   5  23
TORSDOF 6
