REMARK  Name = ZINC59516368
REMARK  10 active torsions:
REMARK  status: ('A' for Active; 'I' for Inactive)
REMARK    1  A    between atoms: C_1  and  C_2
REMARK    2  A    between atoms: C_2  and  C_24
REMARK    3  A    between atoms: N_3  and  N_4
REMARK    4  A    between atoms: C_5  and  S_7
REMARK    5  A    between atoms: S_7  and  C_8
REMARK    6  A    between atoms: N_13  and  C_16
REMARK    7  A    between atoms: C_25  and  C_26
REMARK    8  A    between atoms: C_29  and  N_32
REMARK    9  A    between atoms: N_32  and  C_33
REMARK   10  A    between atoms: N_32  and  C_34
REMARK                            x       y       z     vdW  Elec       q    Type
REMARK                         _______ _______ _______ _____ _____    ______ ____
ROOT
ATOM      1  N   UNL     1       0.610  -1.664   1.564  0.00  0.00    -0.259 N 
ATOM      2  C   UNL     1       0.364  -2.370   2.651  0.00  0.00    +0.146 C 
ATOM      3  N   UNL     1       0.273  -3.738   2.576  0.00  0.00    -0.338 N 
ATOM      4  H   UNL     1       0.390  -4.186   1.723  0.00  0.00    +0.144 HD
ATOM      5  H   UNL     1       0.091  -4.257   3.375  0.00  0.00    +0.144 HD
ATOM      6  H   UNL     1       0.727  -2.112   0.711  0.00  0.00    +0.191 HD
ENDROOT
BRANCH   1   9
ATOM      7  C   UNL     1       0.825   1.835   0.612  0.00  0.00    +0.067 C 
ATOM      8  C   UNL     1       0.841   0.329   0.542  0.00  0.00    +0.058 C 
ATOM      9  N   UNL     1       0.696  -0.379   1.635  0.00  0.00    -0.177 NA
BRANCH   8  10
ATOM     10  C   UNL     1       1.012  -0.318  -0.702  0.00  0.00    +0.025 C 
ATOM     11  C   UNL     1       1.272   0.409  -1.812  0.00  0.00    +0.010 C 
BRANCH  11  12
ATOM     12  C   UNL     1       1.336  -0.251  -3.124  0.00  0.00    -0.025 A 
ATOM     13  C   UNL     1       1.123  -1.631  -3.227  0.00  0.00    +0.010 A 
ATOM     14  C   UNL     1       1.184  -2.245  -4.458  0.00  0.00    +0.023 A 
ATOM     15  C   UNL     1       1.456  -1.496  -5.599  0.00  0.00    +0.029 A 
ATOM     16  C   UNL     1       1.668  -0.124  -5.501  0.00  0.00    +0.023 A 
ATOM     17  C   UNL     1       1.604   0.499  -4.275  0.00  0.00    +0.010 A 
BRANCH  15  18
ATOM     18  N   UNL     1       1.517  -2.122  -6.844  0.00  0.00    -0.336 N 
ATOM     19  C   UNL     1       1.173  -3.541  -6.968  0.00  0.00    +0.129 C 
ATOM     20  C   UNL     1       1.924  -1.361  -8.028  0.00  0.00    +0.129 C 
ENDBRANCH  15  18
ENDBRANCH  11  12
ENDBRANCH   8  10
ENDBRANCH   1   9
BRANCH   2  21
ATOM     21  S   UNL     1       0.151  -1.557   4.200  0.00  0.00    -0.078 S 
BRANCH  21  22
ATOM     22  C   UNL     1      -0.159  -2.911   5.367  0.00  0.00    +0.149 C 
ATOM     23  C   UNL     1      -0.298  -2.367   6.804  0.00  0.00    +0.120 C 
ATOM     24  C   UNL     1      -1.708  -2.756   7.194  0.00  0.00    +0.228 C 
ATOM     25  O   UNL     1      -2.232  -2.517   8.261  0.00  0.00    -0.275 OA
ATOM     26  N   UNL     1      -2.284  -3.405   6.175  0.00  0.00    -0.209 N 
ATOM     27  C   UNL     1      -1.502  -3.552   5.094  0.00  0.00    +0.240 C 
ATOM     28  O   UNL     1      -1.819  -4.107   4.064  0.00  0.00    -0.274 OA
BRANCH  26  29
ATOM     29  C   UNL     1      -3.597  -3.895   6.233  0.00  0.00    +0.045 A 
ATOM     30  C   UNL     1      -3.848  -5.241   6.002  0.00  0.00    +0.025 A 
ATOM     31  C   UNL     1      -5.141  -5.722   6.059  0.00  0.00    +0.023 A 
ATOM     32  C   UNL     1      -6.188  -4.863   6.346  0.00  0.00    +0.059 A 
ATOM     33  C   UNL     1      -5.941  -3.520   6.577  0.00  0.00    +0.061 A 
ATOM     34  C   UNL     1      -4.647  -3.036   6.526  0.00  0.00    +0.045 A 
ATOM     35 CL   UNL     1      -7.256  -2.445   6.937  0.00  0.00    -0.082 Cl
ATOM     36 CL   UNL     1      -7.812  -5.470   6.417  0.00  0.00    -0.082 Cl
ENDBRANCH  26  29
ENDBRANCH  21  22
ENDBRANCH   2  21
TORSDOF 7
