REMARK  Name = ZINC31045514
REMARK  5 active torsions:
REMARK  status: ('A' for Active; 'I' for Inactive)
REMARK    1  A    between atoms: C_6  and  C_7
REMARK    2  A    between atoms: C_9  and  C_12
REMARK    3  A    between atoms: C_12  and  N_13
REMARK    4  A    between atoms: C_17  and  C_20
REMARK    5  A    between atoms: N_22  and  C_23
REMARK                            x       y       z     vdW  Elec       q    Type
REMARK                         _______ _______ _______ _____ _____    ______ ____
ROOT
ATOM      1  N   UNL     1       3.719   1.754  -0.039  0.00  0.00    +0.386 N 
ATOM      2  C   UNL     1       3.821   2.587  -1.245  0.00  0.00    -0.078 C 
ATOM      3  C   UNL     1       2.685   3.611  -1.256  0.00  0.00    -0.018 C 
ATOM      4  C   UNL     1       1.341   2.877  -1.232  0.00  0.00    +0.009 C 
ATOM      5  C   UNL     1       1.280   1.980   0.007  0.00  0.00    +0.059 C 
ATOM      6  C   UNL     1       2.458   1.002  -0.018  0.00  0.00    -0.065 C 
ATOM      7  H   UNL     1       3.724   2.424   0.833  0.00  0.00    -0.081 HD
ENDROOT
BRANCH   5   8
ATOM      8  C   UNL     1      -0.014   1.209   0.007  0.00  0.00    +0.219 C 
ATOM      9  O   UNL     1       0.002  -0.004  -0.008  0.00  0.00    -0.275 OA
ATOM     10  N   UNL     1      -1.191   1.867   0.018  0.00  0.00    -0.285 N 
ATOM     11  H   UNL     1      -1.207   2.963   0.108  0.00  0.00    +0.155 HD
BRANCH  10  12
ATOM     12  C   UNL     1      -2.391   1.155  -0.086  0.00  0.00    +0.035 A 
ATOM     13  C   UNL     1      -2.510  -0.099   0.499  0.00  0.00    +0.024 A 
ATOM     14  C   UNL     1      -3.695  -0.799   0.396  0.00  0.00    +0.018 A 
ATOM     15  C   UNL     1      -4.766  -0.253  -0.290  0.00  0.00    +0.036 A 
ATOM     16  C   UNL     1      -4.651   0.997  -0.875  0.00  0.00    +0.057 A 
ATOM     17  C   UNL     1      -3.468   1.704  -0.769  0.00  0.00    +0.044 A 
ATOM     18 CL   UNL     1      -5.996   1.679  -1.734  0.00  0.00    -0.082 Cl
ATOM     19 BR   UNL     1      -6.387  -1.216  -0.430  0.00  0.00    -0.049 Br
ENDBRANCH  10  12
ENDBRANCH   5   8
BRANCH   1  20
ATOM     20  C   UNL     1       4.872   0.851   0.075  0.00  0.00    +0.022 C 
BRANCH  20  23
ATOM     21  C   UNL     1       7.735   2.723   1.177  0.00  0.00    +0.202 A 
ATOM     22  N   UNL     1       6.615   2.021   1.462  0.00  0.00    -0.193 NA
ATOM     23  C   UNL     1       6.123   1.659   0.303  0.00  0.00    +0.211 A 
ATOM     24  O   UNL     1       6.936   2.147  -0.639  0.00  0.00    -0.340 OA
ATOM     25  N   UNL     1       7.852   2.752  -0.125  0.00  0.00    -0.056 NA
BRANCH  21  31
ATOM     26  C   UNL     1       8.402   3.238   3.524  0.00  0.00    +0.013 A 
ATOM     27  C   UNL     1       9.265   3.815   4.433  0.00  0.00    +0.021 A 
ATOM     28  C   UNL     1      10.376   4.513   3.990  0.00  0.00    +0.041 A 
ATOM     29  C   UNL     1      10.630   4.629   2.634  0.00  0.00    +0.021 A 
ATOM     30  C   UNL     1       9.776   4.050   1.717  0.00  0.00    +0.013 A 
ATOM     31  C   UNL     1       8.657   3.348   2.159  0.00  0.00    +0.023 A 
ATOM     32 CL   UNL     1      11.454   5.243   5.138  0.00  0.00    -0.084 Cl
ENDBRANCH  21  31
ENDBRANCH  20  23
ENDBRANCH   1  20
TORSDOF 5
