REMARK  Name = ZINC36546460
REMARK  12 active torsions:
REMARK  status: ('A' for Active; 'I' for Inactive)
REMARK    1  A    between atoms: C_1  and  C_2
REMARK    2  A    between atoms: C_2  and  C_3
REMARK    3  A    between atoms: C_2  and  C_4
REMARK    4  A    between atoms: C_2  and  N_5
REMARK    5  A    between atoms: C_6  and  C_8
REMARK    6  A    between atoms: C_8  and  C_10
REMARK    7  A    between atoms: C_8  and  N_15
REMARK    8  A    between atoms: N_15  and  C_16
REMARK    9  A    between atoms: C_23  and  C_25
REMARK   10  A    between atoms: C_25  and  C_26
REMARK   11  A    between atoms: C_25  and  C_32
REMARK   12  A    between atoms: C_25  and  O_38
REMARK                            x       y       z     vdW  Elec       q    Type
REMARK                         _______ _______ _______ _____ _____    ______ ____
ROOT
ATOM      1  N   UNL     1       4.494  -0.229  -3.076  0.00  0.00    -0.248 N 
ATOM      2  C   UNL     1       4.407   0.807  -3.932  0.00  0.00    +0.262 C 
ATOM      3  O   UNL     1       3.434   0.923  -4.647  0.00  0.00    -0.271 OA
ENDROOT
BRANCH   1   4
ATOM      4  C   UNL     1       5.665  -0.428  -2.334  0.00  0.00    +0.056 A 
ATOM      5  C   UNL     1       5.785   0.118  -1.064  0.00  0.00    +0.025 A 
ATOM      6  C   UNL     1       6.942  -0.080  -0.335  0.00  0.00    +0.002 A 
ATOM      7  C   UNL     1       7.979  -0.822  -0.869  0.00  0.00    +0.002 A 
ATOM      8  C   UNL     1       7.863  -1.368  -2.134  0.00  0.00    +0.022 A 
ATOM      9  C   UNL     1       6.707  -1.179  -2.866  0.00  0.00    +0.062 A 
ATOM     10 CL   UNL     1       6.558  -1.871  -4.451  0.00  0.00    -0.082 Cl
ENDBRANCH   1   4
BRANCH   1  11
ATOM     11  C   UNL     1       3.364  -1.148  -2.920  0.00  0.00    +0.233 C 
BRANCH  11  12
ATOM     12  C   UNL     1       3.836  -2.565  -3.125  0.00  0.00    +0.135 A 
ATOM     13  C   UNL     1       3.170  -3.527  -3.788  0.00  0.00    +0.047 A 
ATOM     14  C   UNL     1       3.972  -4.690  -3.736  0.00  0.00    +0.041 A 
ATOM     15  C   UNL     1       5.080  -4.369  -3.045  0.00  0.00    +0.195 A 
ATOM     16  O   UNL     1       4.995  -3.078  -2.682  0.00  0.00    -0.465 OA
ENDBRANCH  11  12
BRANCH  11  18
ATOM     17  N   UNL     1       1.673  -1.683  -1.196  0.00  0.00    -0.309 N 
ATOM     18  C   UNL     1       2.788  -1.006  -1.535  0.00  0.00    +0.242 C 
ATOM     19  O   UNL     1       3.328  -0.283  -0.725  0.00  0.00    -0.273 OA
ATOM     20  H   UNL     1       1.240  -2.261  -1.844  0.00  0.00    +0.149 HD
BRANCH  17  22
ATOM     21  C   UNL     1       0.748  -0.081   0.404  0.00  0.00    +0.031 C 
ATOM     22  C   UNL     1       1.113  -1.545   0.151  0.00  0.00    +0.026 C 
ATOM     23  C   UNL     1       2.148  -1.998   1.182  0.00  0.00    +0.031 C 
ATOM     24  C   UNL     1      -0.142  -2.412   0.273  0.00  0.00    +0.031 C 
ENDBRANCH  17  22
ENDBRANCH  11  18
ENDBRANCH   1  11
BRANCH   2  25
ATOM     25  C   UNL     1       5.518   1.823  -4.002  0.00  0.00    +0.193 C 
BRANCH  25  26
ATOM     26  C   UNL     1       6.609   1.311  -4.908  0.00  0.00    -0.003 A 
ATOM     27  C   UNL     1       6.285   0.594  -6.044  0.00  0.00    +0.007 A 
ATOM     28  C   UNL     1       7.285   0.125  -6.875  0.00  0.00    +0.000 A 
ATOM     29  C   UNL     1       8.611   0.374  -6.569  0.00  0.00    +0.000 A 
ATOM     30  C   UNL     1       8.935   1.092  -5.433  0.00  0.00    +0.000 A 
ATOM     31  C   UNL     1       7.934   1.565  -4.605  0.00  0.00    +0.007 A 
ENDBRANCH  25  26
BRANCH  25  32
ATOM     32  C   UNL     1       4.980   3.120  -4.547  0.00  0.00    -0.003 A 
ATOM     33  C   UNL     1       4.850   3.296  -5.912  0.00  0.00    +0.007 A 
ATOM     34  C   UNL     1       4.356   4.486  -6.412  0.00  0.00    +0.000 A 
ATOM     35  C   UNL     1       3.992   5.501  -5.547  0.00  0.00    +0.000 A 
ATOM     36  C   UNL     1       4.121   5.325  -4.182  0.00  0.00    +0.000 A 
ATOM     37  C   UNL     1       4.611   4.133  -3.682  0.00  0.00    +0.007 A 
ENDBRANCH  25  32
BRANCH  25  38
ATOM     38  O   UNL     1       6.049   2.039  -2.693  0.00  0.00    -0.371 OA
ATOM     39  H   UNL     1       5.400   2.369  -2.056  0.00  0.00    +0.212 HD
ENDBRANCH  25  38
ENDBRANCH   2  25
TORSDOF 9
