REMARK  Name = ZINC38718554
REMARK  6 active torsions:
REMARK  status: ('A' for Active; 'I' for Inactive)
REMARK    1  A    between atoms: C_3  and  C_6
REMARK    2  A    between atoms: N_11  and  C_13
REMARK    3  A    between atoms: C_13  and  C_14
REMARK    4  A    between atoms: C_14  and  N_15
REMARK    5  A    between atoms: C_16  and  C_18
REMARK    6  A    between atoms: N_20  and  C_21
REMARK                            x       y       z     vdW  Elec       q    Type
REMARK                         _______ _______ _______ _____ _____    ______ ____
ROOT
ATOM      1  N   UNL     1       7.150   4.810  -1.469  0.00  0.00    -0.306 N 
ATOM      2  C   UNL     1       7.457   5.415  -2.633  0.00  0.00    +0.299 C 
ATOM      3  O   UNL     1       7.168   4.886  -3.687  0.00  0.00    -0.265 OA
ATOM      4  H   UNL     1       7.381   5.233  -0.627  0.00  0.00    +0.149 HD
ENDROOT
BRANCH   2   5
ATOM      5  C   UNL     1       8.153   6.736  -2.628  0.00  0.00    +0.303 C 
ATOM      6  O   UNL     1       8.442   7.265  -1.574  0.00  0.00    -0.265 OA
ATOM      7  N   UNL     1       8.461   7.340  -3.792  0.00  0.00    -0.278 N 
ATOM      8  H   UNL     1       8.291   6.888  -4.633  0.00  0.00    +0.155 HD
BRANCH   7   9
ATOM      9  C   UNL     1       9.025   8.620  -3.788  0.00  0.00    +0.035 A 
ATOM     10  C   UNL     1       8.699   9.527  -4.788  0.00  0.00    +0.026 A 
ATOM     11  C   UNL     1       9.256  10.790  -4.782  0.00  0.00    +0.041 A 
ATOM     12  C   UNL     1      10.140  11.154  -3.780  0.00  0.00    +0.142 A 
ATOM     13  C   UNL     1      10.468  10.251  -2.781  0.00  0.00    +0.078 A 
ATOM     14  C   UNL     1       9.908   8.987  -2.780  0.00  0.00    +0.046 A 
ATOM     15 CL   UNL     1      11.577  10.709  -1.527  0.00  0.00    -0.081 Cl
ATOM     16  F   UNL     1      10.685  12.390  -3.777  0.00  0.00    -0.204 F 
ENDBRANCH   7   9
ENDBRANCH   2   5
BRANCH   1  17
ATOM     17  C   UNL     1       6.467   3.514  -1.474  0.00  0.00    +0.128 C 
BRANCH  17  18
ATOM     18  C   UNL     1       6.237   3.052  -0.034  0.00  0.00    +0.166 C 
BRANCH  18  24
ATOM     19  C   UNL     1       3.595   0.599  -0.037  0.00  0.00    +0.126 A 
ATOM     20  C   UNL     1       4.278  -0.641  -0.050  0.00  0.00    +0.038 A 
ATOM     21  C   UNL     1       5.641  -0.627  -0.058  0.00  0.00    +0.074 A 
ATOM     22  C   UNL     1       6.290   0.628  -0.052  0.00  0.00    +0.267 A 
ATOM     23  O   UNL     1       7.508   0.690  -0.059  0.00  0.00    -0.266 OA
ATOM     24  N   UNL     1       5.554   1.756  -0.040  0.00  0.00    -0.227 N 
ATOM     25  N   UNL     1       4.271   1.726  -0.037  0.00  0.00    -0.165 NA
BRANCH  19  28
ATOM     26  C   UNL     1       0.001   1.303  -0.016  0.00  0.00    +0.042 A 
ATOM     27  C   UNL     1       1.340   1.742  -0.021  0.00  0.00    +0.051 A 
ATOM     28  C   UNL     1       2.118   0.626  -0.029  0.00  0.00    +0.155 A 
ATOM     29  O   UNL     1       1.307  -0.450  -0.028  0.00  0.00    -0.461 OA
ATOM     30  C   UNL     1       0.027  -0.044  -0.020  0.00  0.00    +0.196 A 
ENDBRANCH  19  28
ENDBRANCH  18  24
ENDBRANCH  17  18
ENDBRANCH   1  17
TORSDOF 6
