REMARK  Name = ZINC66618813
REMARK  4 active torsions:
REMARK  status: ('A' for Active; 'I' for Inactive)
REMARK    1  A    between atoms: C_1  and  C_2
REMARK    2  A    between atoms: C_9  and  C_11
REMARK    3  A    between atoms: C_18  and  C_20
REMARK    4  A    between atoms: C_23  and  C_26
REMARK                            x       y       z     vdW  Elec       q    Type
REMARK                         _______ _______ _______ _____ _____    ______ ____
ROOT
ATOM      1  C   UNL     1       0.303  -6.548  -0.822  0.00  0.00    +0.093 C 
ATOM      2  C   UNL     1       0.215  -7.088  -2.251  0.00  0.00    +0.016 C 
ATOM      3  C   UNL     1      -0.050  -8.595  -2.214  0.00  0.00    +0.020 C 
ATOM      4  C   UNL     1      -1.387  -8.857  -1.514  0.00  0.00    +0.108 C 
ATOM      5  N   UNL     1      -1.363  -8.216  -0.193  0.00  0.00    -0.297 N 
ATOM      6  C   UNL     1      -1.030  -6.788  -0.106  0.00  0.00    +0.120 C 
ATOM      7  C   UNL     1      -1.642  -8.925   0.919  0.00  0.00    +0.247 C 
ATOM      8  O   UNL     1      -1.819 -10.125   0.847  0.00  0.00    -0.270 OA
ENDROOT
BRANCH   1  17
ATOM      9  C   UNL     1       1.402   1.198   0.058  0.00  0.00    +0.045 C 
ATOM     10  C   UNL     1       1.216  -0.294   0.158  0.00  0.00    -0.032 A 
ATOM     11  C   UNL     1       1.063  -0.900   1.398  0.00  0.00    +0.008 A 
ATOM     12  C   UNL     1       0.895  -2.272   1.446  0.00  0.00    +0.044 A 
ATOM     13  C   UNL     1       0.884  -2.994   0.257  0.00  0.00    +0.125 A 
ATOM     14  N   UNL     1       1.033  -2.380  -0.905  0.00  0.00    -0.240 NA
ATOM     15  C   UNL     1       1.190  -1.072  -0.982  0.00  0.00    +0.116 A 
ATOM     16  N   UNL     1       0.716  -4.378   0.291  0.00  0.00    -0.270 N 
ATOM     17  C   UNL     1       0.595  -5.070  -0.859  0.00  0.00    +0.223 C 
ATOM     18  O   UNL     1       0.722  -4.504  -1.924  0.00  0.00    -0.275 OA
ATOM     19  H   UNL     1       0.686  -4.842   1.142  0.00  0.00    +0.156 HD
ENDBRANCH   1  17
BRANCH   7  20
ATOM     20  C   UNL     1      -1.733  -8.241   2.230  0.00  0.00    +0.037 A 
ATOM     21  C   UNL     1      -2.220  -6.934   2.302  0.00  0.00    +0.014 A 
ATOM     22  C   UNL     1      -2.305  -6.297   3.521  0.00  0.00    +0.012 A 
ATOM     23  C   UNL     1      -1.903  -6.959   4.685  0.00  0.00    +0.014 A 
ATOM     24  C   UNL     1      -1.416  -8.267   4.611  0.00  0.00    +0.012 A 
ATOM     25  C   UNL     1      -1.337  -8.905   3.392  0.00  0.00    +0.014 A 
BRANCH  23  26
ATOM     26  C   UNL     1      -1.994  -6.278   5.989  0.00  0.00    +0.258 C 
ATOM     27  O   UNL     1      -1.645  -6.853   6.998  0.00  0.00    -0.296 OA
ENDBRANCH  23  26
ENDBRANCH   7  20
TORSDOF 3
