REMARK  Name = ZINC01196754
REMARK  7 active torsions:
REMARK  status: ('A' for Active; 'I' for Inactive)
REMARK    1  A    between atoms: C_1  and  C_2
REMARK    2  A    between atoms: C_2  and  C_3
REMARK    3  A    between atoms: C_3  and  C_4
REMARK    4  A    between atoms: C_7  and  C_11
REMARK    5  A    between atoms: C_7  and  C_12
REMARK    6  A    between atoms: N_17  and  N_18
REMARK    7  A    between atoms: C_19  and  C_21
REMARK                            x       y       z     vdW  Elec       q    Type
REMARK                         _______ _______ _______ _____ _____    ______ ____
ROOT
ATOM      1  C   UNL     1      -0.113   3.265  -5.464  0.00  0.00    +0.094 A 
ATOM      2  C   UNL     1       0.747   3.935  -6.268  0.00  0.00    +0.076 A 
ATOM      3  S   UNL     1      -0.338   5.178  -6.954  0.00  0.00    -0.059 S 
ATOM      4  C   UNL     1      -1.786   4.695  -6.126  0.00  0.00    +0.175 A 
ATOM      5  N   UNL     1      -1.370   3.663  -5.418  0.00  0.00    -0.225 NA
ATOM      6  N   UNL     1      -3.055   5.249  -6.197  0.00  0.00    -0.242 N 
ATOM      7  H   UNL     1      -3.779   4.872  -5.673  0.00  0.00    +0.172 HD
ENDROOT
BRANCH   1  10
ATOM      8  C   UNL     1      -0.037   1.099  -2.490  0.00  0.00    +0.102 C 
ATOM      9  C   UNL     1      -0.794   1.561  -3.756  0.00  0.00    +0.069 C 
ATOM     10  C   UNL     1       0.354   2.088  -4.647  0.00  0.00    +0.153 C 
ATOM     11  O   UNL     1       1.387   2.500  -3.704  0.00  0.00    -0.452 OA
ATOM     12  C   UNL     1       1.331   1.738  -2.603  0.00  0.00    +0.311 C 
ATOM     13  O   UNL     1       2.236   1.583  -1.818  0.00  0.00    -0.251 OA
ATOM     14  C   UNL     1       0.877   0.978  -5.561  0.00  0.00    +0.063 C 
BRANCH   8  15
ATOM     15  C   UNL     1      -0.753   1.593  -1.232  0.00  0.00    +0.014 C 
BRANCH  15  17
ATOM     16  C   UNL     1      -0.729   1.579   1.267  0.00  0.00    +0.004 C 
ATOM     17  C   UNL     1      -0.013   1.086   0.008  0.00  0.00    -0.003 C 
ENDBRANCH  15  17
ENDBRANCH   8  15
ENDBRANCH   1  10
BRANCH   6  18
ATOM     18  N   UNL     1      -3.292   6.354  -7.024  0.00  0.00    -0.231 N 
ATOM     19  C   UNL     1      -4.526   6.893  -7.093  0.00  0.00    +0.260 C 
ATOM     20  O   UNL     1      -5.433   6.420  -6.436  0.00  0.00    -0.269 OA
ATOM     21  H   UNL     1      -2.568   6.732  -7.548  0.00  0.00    +0.173 HD
BRANCH  19  22
ATOM     22  C   UNL     1      -4.776   8.059  -7.966  0.00  0.00    +0.038 A 
ATOM     23  C   UNL     1      -3.735   8.608  -8.717  0.00  0.00    +0.013 A 
ATOM     24  C   UNL     1      -3.977   9.693  -9.534  0.00  0.00    +0.001 A 
ATOM     25  C   UNL     1      -5.244  10.244  -9.602  0.00  0.00    +0.000 A 
ATOM     26  C   UNL     1      -6.279   9.707  -8.856  0.00  0.00    +0.001 A 
ATOM     27  C   UNL     1      -6.052   8.619  -8.039  0.00  0.00    +0.013 A 
ENDBRANCH  19  22
ENDBRANCH   6  18
TORSDOF 5
