REMARK  Name = ZINC63625886
REMARK  9 active torsions:
REMARK  status: ('A' for Active; 'I' for Inactive)
REMARK    1  A    between atoms: C_1  and  O_2
REMARK    2  A    between atoms: O_2  and  C_3
REMARK    3  A    between atoms: C_8  and  C_13
REMARK    4  A    between atoms: N_15  and  N_16
REMARK    5  A    between atoms: C_17  and  C_19
REMARK    6  A    between atoms: C_19  and  O_20
REMARK    7  A    between atoms: O_20  and  C_21
REMARK    8  A    between atoms: C_21  and  C_22
REMARK    9  A    between atoms: N_24  and  C_25
REMARK                            x       y       z     vdW  Elec       q    Type
REMARK                         _______ _______ _______ _____ _____    ______ ____
ROOT
ATOM      1  N   UNL     1      -5.346  -6.756   2.456  0.00  0.00    -0.232 N 
ATOM      2  C   UNL     1      -5.384  -8.103   2.493  0.00  0.00    +0.255 C 
ATOM      3  O   UNL     1      -5.025  -8.747   1.530  0.00  0.00    -0.272 OA
ATOM      4  H   UNL     1      -5.633  -6.241   3.226  0.00  0.00    +0.173 HD
ENDROOT
BRANCH   1   7
ATOM      5  C   UNL     1      -4.852  -4.753   1.268  0.00  0.00    +0.255 C 
ATOM      6  O   UNL     1      -5.211  -4.110   2.231  0.00  0.00    -0.272 OA
ATOM      7  N   UNL     1      -4.890  -6.100   1.305  0.00  0.00    -0.232 N 
ATOM      8  H   UNL     1      -4.603  -6.615   0.534  0.00  0.00    +0.173 HD
BRANCH   5  14
ATOM      9  C   UNL     1      -1.200  -0.637   0.010  0.00  0.00    +0.121 A 
ATOM     10  C   UNL     1      -2.375   0.135   0.020  0.00  0.00    +0.047 A 
ATOM     11  C   UNL     1      -3.607  -0.415   0.028  0.00  0.00    +0.029 A 
ATOM     12  C   UNL     1      -3.753  -1.875   0.027  0.00  0.00    +0.043 A 
ATOM     13  N   UNL     1      -4.809  -2.650   0.034  0.00  0.00    -0.370 N 
ATOM     14  C   UNL     1      -4.362  -4.047   0.029  0.00  0.00    +0.191 C 
ATOM     15  C   UNL     1      -2.851  -4.000   0.018  0.00  0.00    +0.016 C 
ATOM     16  C   UNL     1      -2.516  -2.690   0.016  0.00  0.00    -0.000 A 
ATOM     17  C   UNL     1      -1.226  -1.992   0.003  0.00  0.00    +0.055 A 
ATOM     18  H   UNL     1      -5.731  -2.350   0.042  0.00  0.00    +0.161 HD
BRANCH   9  20
ATOM     19  C   UNL     1      -0.017   1.425   0.010  0.00  0.00    +0.277 C 
ATOM     20  O   UNL     1       0.002  -0.004   0.002  0.00  0.00    -0.495 OA
ENDBRANCH   9  20
ENDBRANCH   5  14
ENDBRANCH   1   7
BRANCH   2  21
ATOM     21  C   UNL     1      -5.874  -8.809   3.731  0.00  0.00    +0.257 C 
BRANCH  21  22
ATOM     22  O   UNL     1      -5.820 -10.222   3.526  0.00  0.00    -0.361 OA
BRANCH  22  23
ATOM     23  C   UNL     1      -6.266 -10.989   4.647  0.00  0.00    +0.256 C 
BRANCH  23  24
ATOM     24  C   UNL     1      -6.167 -12.457   4.322  0.00  0.00    +0.239 C 
ATOM     25  O   UNL     1      -5.756 -12.812   3.237  0.00  0.00    -0.273 OA
ATOM     26  N   UNL     1      -6.535 -13.376   5.236  0.00  0.00    -0.308 N 
ATOM     27  H   UNL     1      -6.864 -13.093   6.103  0.00  0.00    +0.149 HD
BRANCH  26  28
ATOM     28  C   UNL     1      -6.440 -14.803   4.920  0.00  0.00    +0.035 C 
ATOM     29  C   UNL     1      -4.986 -15.159   4.604  0.00  0.00    +0.029 C 
ATOM     30  C   UNL     1      -4.885 -16.650   4.274  0.00  0.00    -0.008 C 
ATOM     31  C   UNL     1      -5.362 -17.471   5.473  0.00  0.00    +0.007 C 
ATOM     32  C   UNL     1      -6.816 -17.115   5.790  0.00  0.00    -0.008 C 
ATOM     33  C   UNL     1      -6.916 -15.625   6.120  0.00  0.00    +0.029 C 
ATOM     34  C   UNL     1      -7.693 -17.429   4.576  0.00  0.00    +0.007 C 
ATOM     35  C   UNL     1      -7.216 -16.608   3.376  0.00  0.00    -0.008 C 
ATOM     36  C   UNL     1      -5.762 -16.964   3.060  0.00  0.00    +0.007 C 
ATOM     37  C   UNL     1      -7.317 -15.117   3.706  0.00  0.00    +0.029 C 
ENDBRANCH  26  28
ENDBRANCH  23  24
ENDBRANCH  22  23
ENDBRANCH  21  22
ENDBRANCH   2  21
TORSDOF 8
