REMARK  Name = ZINC20664819
REMARK  8 active torsions:
REMARK  status: ('A' for Active; 'I' for Inactive)
REMARK    1  A    between atoms: C_1  and  C_2
REMARK    2  A    between atoms: C_7  and  N_12
REMARK    3  A    between atoms: C_9  and  C_11
REMARK    4  A    between atoms: N_12  and  S_13
REMARK    5  A    between atoms: S_13  and  C_16
REMARK    6  A    between atoms: C_20  and  C_22
REMARK    7  A    between atoms: N_24  and  C_25
REMARK    8  A    between atoms: C_27  and  C_32
REMARK                            x       y       z     vdW  Elec       q    Type
REMARK                         _______ _______ _______ _____ _____    ______ ____
ROOT
ATOM      1  C   UNL     1      -1.742  -0.815  -2.152  0.00  0.00    +0.106 A 
ATOM      2  C   UNL     1      -3.115  -0.813  -2.327  0.00  0.00    +0.031 A 
ATOM      3  C   UNL     1      -3.862  -1.929  -2.000  0.00  0.00    +0.041 A 
ATOM      4  C   UNL     1      -3.240  -3.057  -1.496  0.00  0.00    +0.136 A 
ATOM      5  C   UNL     1      -1.853  -3.064  -1.317  0.00  0.00    +0.074 A 
ATOM      6  C   UNL     1      -1.107  -1.933  -1.656  0.00  0.00    +0.044 A 
ATOM      7  F   UNL     1      -3.970  -4.148  -1.177  0.00  0.00    -0.205 F 
ENDROOT
BRANCH   5   8
ATOM      8  C   UNL     1      -1.181  -4.264  -0.779  0.00  0.00    +0.251 C 
ATOM      9  O   UNL     1      -1.833  -5.248  -0.490  0.00  0.00    -0.270 OA
ATOM     10  N   UNL     1       0.156  -4.267  -0.609  0.00  0.00    -0.280 N 
ATOM     11  H   UNL     1       0.755  -3.405  -0.939  0.00  0.00    +0.155 HD
BRANCH  10  12
ATOM     12  C   UNL     1       0.783  -5.367  -0.012  0.00  0.00    +0.053 A 
ATOM     13  C   UNL     1       0.295  -6.649  -0.231  0.00  0.00    +0.037 A 
ATOM     14  C   UNL     1       0.920  -7.732   0.355  0.00  0.00    +0.057 A 
ATOM     15  C   UNL     1       2.021  -7.542   1.169  0.00  0.00    +0.014 A 
ATOM     16  C   UNL     1       2.506  -6.267   1.394  0.00  0.00    +0.022 A 
ATOM     17  C   UNL     1       1.890  -5.178   0.806  0.00  0.00    +0.062 A 
ATOM     18 CL   UNL     1       2.499  -3.577   1.089  0.00  0.00    -0.082 Cl
BRANCH  14  19
ATOM     19  C   UNL     1       0.395  -9.124   0.113  0.00  0.00    +0.417 C 
ATOM     20  F   UNL     1       1.181 -10.047   0.811  0.00  0.00    -0.166 F 
ATOM     21  F   UNL     1      -0.929  -9.208   0.558  0.00  0.00    -0.166 F 
ATOM     22  F   UNL     1       0.446  -9.410  -1.256  0.00  0.00    -0.166 F 
ENDBRANCH  14  19
ENDBRANCH  10  12
ENDBRANCH   5   8
BRANCH   1  23
ATOM     23  S   UNL     1      -0.801   0.615  -2.572  0.00  0.00    +0.059 S 
ATOM     24  O   UNL     1      -1.562   1.334  -3.533  0.00  0.00    -0.153 OA
ATOM     25  O   UNL     1       0.523   0.168  -2.829  0.00  0.00    -0.153 OA
BRANCH  23  26
ATOM     26  N   UNL     1      -0.726   1.566  -1.219  0.00  0.00    -0.187 NA
ATOM     27  H   UNL     1      -1.341   2.476  -1.167  0.00  0.00    +0.148 HD
BRANCH  26  33
ATOM     28  C   UNL     1      -1.488   3.620   2.478  0.00  0.00    +0.008 C 
ATOM     29  C   UNL     1      -0.766   3.120   1.225  0.00  0.00    -0.010 C 
ATOM     30  C   UNL     1       0.668   3.651   1.217  0.00  0.00    +0.003 C 
ATOM     31  C   UNL     1       1.391   3.151  -0.036  0.00  0.00    +0.002 C 
ATOM     32  C   UNL     1       1.413   1.621  -0.035  0.00  0.00    +0.020 C 
ATOM     33  C   UNL     1      -0.022   1.089  -0.026  0.00  0.00    +0.080 C 
ATOM     34  C   UNL     1      -0.744   1.590   1.226  0.00  0.00    +0.007 C 
ATOM     35  C   UNL     1      -2.179   1.059   1.234  0.00  0.00    +0.009 C 
ENDBRANCH  26  33
ENDBRANCH  23  26
ENDBRANCH   1  23
TORSDOF 6
