REMARK  Name = ZINC36500943
REMARK  9 active torsions:
REMARK  status: ('A' for Active; 'I' for Inactive)
REMARK    1  A    between atoms: C_3  and  C_9
REMARK    2  A    between atoms: C_9  and  C_10
REMARK    3  A    between atoms: N_12  and  C_13
REMARK    4  A    between atoms: N_12  and  C_19
REMARK    5  A    between atoms: C_13  and  C_14
REMARK    6  A    between atoms: C_19  and  C_21
REMARK    7  A    between atoms: C_19  and  C_28
REMARK    8  A    between atoms: C_24  and  O_27
REMARK    9  A    between atoms: N_30  and  C_31
REMARK                            x       y       z     vdW  Elec       q    Type
REMARK                         _______ _______ _______ _____ _____    ______ ____
ROOT
ATOM      1  C   UNL     1       5.030   3.014   2.619  0.00  0.00    +0.193 C 
ENDROOT
BRANCH   1   2
ATOM      2  C   UNL     1       5.048   4.267   1.782  0.00  0.00    -0.018 A 
ATOM      3  C   UNL     1       5.675   4.264   0.550  0.00  0.00    +0.009 A 
ATOM      4  C   UNL     1       5.692   5.412  -0.219  0.00  0.00    +0.046 A 
ATOM      5  C   UNL     1       5.080   6.567   0.245  0.00  0.00    +0.117 A 
ATOM      6  C   UNL     1       4.452   6.566   1.482  0.00  0.00    +0.046 A 
ATOM      7  C   UNL     1       4.432   5.415   2.245  0.00  0.00    +0.009 A 
BRANCH   5   8
ATOM      8  O   UNL     1       5.097   7.697  -0.509  0.00  0.00    -0.507 OA
ATOM      9  H   UNL     1       4.346   7.778  -1.112  0.00  0.00    +0.292 HD
ENDBRANCH   5   8
ENDBRANCH   1   2
BRANCH   1  10
ATOM     10  C   UNL     1       6.403   2.772   3.191  0.00  0.00    +0.238 C 
ATOM     11  O   UNL     1       7.307   2.413   2.466  0.00  0.00    -0.273 OA
ATOM     12  N   UNL     1       6.628   2.954   4.507  0.00  0.00    -0.311 N 
ATOM     13  H   UNL     1       5.905   3.241   5.087  0.00  0.00    +0.149 HD
BRANCH  12  14
ATOM     14  C   UNL     1       7.963   2.719   5.062  0.00  0.00    +0.073 C 
ATOM     15  C   UNL     1       8.124   1.233   5.390  0.00  0.00    +0.022 C 
ATOM     16  C   UNL     1       9.519   0.988   5.970  0.00  0.00    +0.002 C 
ATOM     17  C   UNL     1       9.693   1.814   7.246  0.00  0.00    +0.000 C 
ATOM     18  C   UNL     1       9.532   3.300   6.918  0.00  0.00    +0.002 C 
ATOM     19  C   UNL     1       8.137   3.545   6.338  0.00  0.00    +0.022 C 
ENDBRANCH  12  14
ENDBRANCH   1  10
BRANCH   1  22
ATOM     20  C   UNL     1       3.384   1.789   1.305  0.00  0.00    +0.221 C 
ATOM     21  O   UNL     1       2.576   2.656   1.563  0.00  0.00    -0.275 OA
ATOM     22  N   UNL     1       4.640   1.874   1.785  0.00  0.00    -0.278 N 
BRANCH  20  23
ATOM     23  C   UNL     1       2.983   0.617   0.446  0.00  0.00    +0.132 C 
BRANCH  23  26
ATOM     24  C   UNL     1      -0.109   1.373  -1.584  0.00  0.00    +0.002 A 
ATOM     25  C   UNL     1       1.216   1.242  -1.212  0.00  0.00    +0.005 A 
ATOM     26  C   UNL     1       1.538   0.761   0.043  0.00  0.00    -0.019 A 
ATOM     27  C   UNL     1       0.535   0.411   0.928  0.00  0.00    +0.063 A 
ATOM     28  C   UNL     1      -0.792   0.543   0.556  0.00  0.00    +0.060 A 
ATOM     29  C   UNL     1      -1.113   1.024  -0.701  0.00  0.00    +0.021 A 
ATOM     30 CL   UNL     1      -2.053   0.104   1.666  0.00  0.00    -0.082 Cl
ATOM     31 CL   UNL     1       0.939  -0.194   2.504  0.00  0.00    -0.082 Cl
ENDBRANCH  23  26
ENDBRANCH  20  23
BRANCH  22  32
ATOM     32  C   UNL     1       5.616   0.827   1.473  0.00  0.00    +0.183 C 
BRANCH  32  33
ATOM     33  C   UNL     1       6.218   1.089   0.116  0.00  0.00    +0.122 A 
ATOM     34  C   UNL     1       7.516   1.336  -0.135  0.00  0.00    +0.046 A 
ATOM     35  C   UNL     1       7.635   1.522  -1.531  0.00  0.00    +0.041 A 
ATOM     36  C   UNL     1       6.402   1.378  -2.050  0.00  0.00    +0.195 A 
ATOM     37  O   UNL     1       5.549   1.110  -1.048  0.00  0.00    -0.466 OA
ENDBRANCH  32  33
ENDBRANCH  22  32
ENDBRANCH   1  22
TORSDOF 9
