REMARK  Name = ZINC59385061
REMARK  8 active torsions:
REMARK  status: ('A' for Active; 'I' for Inactive)
REMARK    1  A    between atoms: C_1  and  C_2
REMARK    2  A    between atoms: C_3  and  C_17
REMARK    3  A    between atoms: C_4  and  C_10
REMARK    4  A    between atoms: C_13  and  O_16
REMARK    5  A    between atoms: N_19  and  N_20
REMARK    6  A    between atoms: C_21  and  C_22
REMARK    7  A    between atoms: C_27  and  O_28
REMARK    8  A    between atoms: O_28  and  C_29
REMARK                            x       y       z     vdW  Elec       q    Type
REMARK                         _______ _______ _______ _____ _____    ______ ____
ROOT
ATOM      1  C   UNL     1       0.658   1.366   0.080  0.00  0.00    +0.061 C 
ATOM      2  C   UNL     1       0.360  -0.111   0.044  0.00  0.00    +0.017 C 
ATOM      3  C   UNL     1      -0.921  -0.529  -0.025  0.00  0.00    +0.057 C 
ATOM      4  C   UNL     1      -1.176  -2.022  -0.058  0.00  0.00    +0.139 C 
ATOM      5  N   UNL     1       0.005  -2.901  -0.012  0.00  0.00    -0.315 N 
ATOM      6  C   UNL     1       1.225  -2.334   0.056  0.00  0.00    +0.135 C 
ATOM      7  S   UNL     1       2.607  -3.344   0.108  0.00  0.00    -0.019 S 
ATOM      8  N   UNL     1       1.393  -1.005   0.077  0.00  0.00    -0.300 N 
ATOM      9  H   UNL     1      -0.094  -3.866  -0.030  0.00  0.00    +0.149 HD
ATOM     10  H   UNL     1       2.297  -0.659   0.122  0.00  0.00    +0.154 HD
ENDROOT
BRANCH   4  11
ATOM     11  C   UNL     1      -1.939  -2.335  -1.319  0.00  0.00    -0.022 A 
ATOM     12  C   UNL     1      -1.290  -2.319  -2.540  0.00  0.00    +0.009 A 
ATOM     13  C   UNL     1      -1.988  -2.605  -3.698  0.00  0.00    +0.046 A 
ATOM     14  C   UNL     1      -3.340  -2.910  -3.635  0.00  0.00    +0.117 A 
ATOM     15  C   UNL     1      -3.988  -2.926  -2.408  0.00  0.00    +0.046 A 
ATOM     16  C   UNL     1      -3.285  -2.644  -1.253  0.00  0.00    +0.009 A 
BRANCH  14  17
ATOM     17  O   UNL     1      -4.028  -3.191  -4.772  0.00  0.00    -0.507 OA
ATOM     18  H   UNL     1      -4.030  -4.129  -5.009  0.00  0.00    +0.292 HD
ENDBRANCH  14  17
ENDBRANCH   4  11
BRANCH   3  19
ATOM     19  C   UNL     1      -1.992   0.397  -0.064  0.00  0.00    +0.263 C 
ATOM     20  O   UNL     1      -2.657   0.602   0.936  0.00  0.00    -0.269 OA
ATOM     21  N   UNL     1      -2.275   1.052  -1.207  0.00  0.00    -0.203 N 
ATOM     22  H   UNL     1      -1.795   0.836  -2.022  0.00  0.00    +0.178 HD
BRANCH  21  23
ATOM     23  N   UNL     1      -3.264   2.045  -1.219  0.00  0.00    -0.187 NA
ATOM     24  C   UNL     1      -3.536   2.676  -2.321  0.00  0.00    +0.142 C 
BRANCH  24  25
ATOM     25  C   UNL     1      -4.576   3.720  -2.334  0.00  0.00    +0.036 A 
ATOM     26  C   UNL     1      -4.877   4.397  -3.518  0.00  0.00    +0.013 A 
ATOM     27  C   UNL     1      -5.851   5.373  -3.523  0.00  0.00    +0.001 A 
ATOM     28  C   UNL     1      -6.533   5.685  -2.359  0.00  0.00    +0.004 A 
ATOM     29  C   UNL     1      -6.244   5.023  -1.181  0.00  0.00    +0.046 A 
ATOM     30  C   UNL     1      -5.272   4.036  -1.159  0.00  0.00    +0.129 A 
BRANCH  30  31
ATOM     31  O   UNL     1      -4.992   3.380  -0.003  0.00  0.00    -0.494 OA
ATOM     32  C   UNL     1      -5.743   3.755   1.154  0.00  0.00    +0.277 C 
ENDBRANCH  30  31
ENDBRANCH  24  25
ENDBRANCH  21  23
ENDBRANCH   3  19
TORSDOF 6
