REMARK  Name = ZINC20151673
REMARK  13 active torsions:
REMARK  status: ('A' for Active; 'I' for Inactive)
REMARK    1  A    between atoms: C_1  and  C_2
REMARK    2  A    between atoms: C_2  and  C_3
REMARK    3  A    between atoms: C_2  and  C_4
REMARK    4  A    between atoms: C_2  and  C_5
REMARK    5  A    between atoms: C_8  and  C_11
REMARK    6  A    between atoms: N_13  and  C_14
REMARK    7  A    between atoms: C_14  and  N_16
REMARK    8  A    between atoms: N_16  and  C_17
REMARK    9  A    between atoms: C_19  and  C_25
REMARK   10  A    between atoms: C_22  and  O_23
REMARK   11  A    between atoms: O_23  and  C_24
REMARK   12  A    between atoms: C_28  and  C_30
REMARK   13  A    between atoms: C_30  and  O_31
REMARK                            x       y       z     vdW  Elec       q    Type
REMARK                         _______ _______ _______ _____ _____    ______ ____
ROOT
ATOM      1  N   UNL     1       5.897  -1.616  -6.282  0.00  0.00    -0.294 N 
ATOM      2  H   UNL     1       6.391  -1.238  -5.538  0.00  0.00    +0.154 HD
ENDROOT
BRANCH   1   3
ATOM      3  C   UNL     1       6.585  -2.152  -7.379  0.00  0.00    +0.076 A 
ATOM      4  C   UNL     1       6.189  -3.363  -7.920  0.00  0.00    +0.038 A 
ATOM      5  C   UNL     1       6.876  -3.894  -9.013  0.00  0.00    +0.019 A 
ATOM      6  C   UNL     1       7.961  -3.201  -9.555  0.00  0.00    +0.015 A 
ATOM      7  C   UNL     1       8.352  -1.995  -9.011  0.00  0.00    +0.048 A 
ATOM      8  C   UNL     1       7.665  -1.464  -7.929  0.00  0.00    +0.141 A 
BRANCH   5   9
ATOM      9  C   UNL     1       6.458  -5.186  -9.594  0.00  0.00    +0.135 A 
ATOM     10  C   UNL     1       7.043  -5.813 -10.649  0.00  0.00    +0.050 A 
ATOM     11  C   UNL     1       6.324  -7.007 -10.861  0.00  0.00    +0.047 A 
ATOM     12  C   UNL     1       5.347  -7.050  -9.935  0.00  0.00    +0.131 A 
ATOM     13  O   UNL     1       5.434  -5.951  -9.167  0.00  0.00    -0.457 OA
BRANCH  12  14
ATOM     14  C   UNL     1       4.329  -8.150  -9.782  0.00  0.00    +0.230 C 
BRANCH  14  15
ATOM     15  O   UNL     1       4.835  -9.146  -8.890  0.00  0.00    -0.387 OA
ATOM     16  H   UNL     1       4.230  -9.887  -8.744  0.00  0.00    +0.210 HD
ENDBRANCH  14  15
ENDBRANCH  12  14
ENDBRANCH   5   9
BRANCH   8  17
ATOM     17  O   UNL     1       8.051  -0.272  -7.401  0.00  0.00    -0.493 OA
ATOM     18  C   UNL     1       9.165   0.380  -8.013  0.00  0.00    +0.277 C 
ENDBRANCH   8  17
ENDBRANCH   1   3
BRANCH   1  19
ATOM     19  C   UNL     1       4.550  -1.625  -6.262  0.00  0.00    +0.141 C 
ATOM     20  S   UNL     1       3.676  -2.163  -7.633  0.00  0.00    -0.018 S 
BRANCH  19  23
ATOM     21  C   UNL     1       2.542  -1.221  -5.142  0.00  0.00    +0.250 C 
ATOM     22  O   UNL     1       1.922  -1.603  -6.115  0.00  0.00    -0.270 OA
ATOM     23  N   UNL     1       3.889  -1.211  -5.162  0.00  0.00    -0.264 N 
ATOM     24  H   UNL     1       4.384  -0.906  -4.386  0.00  0.00    +0.157 HD
BRANCH  21  28
ATOM     25  C   UNL     1       0.462   0.083  -1.676  0.00  0.00    -0.042 A 
ATOM     26  C   UNL     1      -0.247  -0.351  -2.783  0.00  0.00    +0.005 A 
ATOM     27  C   UNL     1       0.422  -0.775  -3.912  0.00  0.00    +0.013 A 
ATOM     28  C   UNL     1       1.818  -0.767  -3.936  0.00  0.00    +0.037 A 
ATOM     29  C   UNL     1       2.527  -0.328  -2.816  0.00  0.00    +0.013 A 
ATOM     30  C   UNL     1       1.845   0.099  -1.696  0.00  0.00    +0.005 A 
BRANCH  25  32
ATOM     31  C   UNL     1       0.082   2.004  -0.155  0.00  0.00    +0.015 C 
ATOM     32  C   UNL     1      -0.277   0.545  -0.447  0.00  0.00    -0.013 C 
ATOM     33  C   UNL     1       0.122  -0.327   0.746  0.00  0.00    +0.015 C 
ATOM     34  C   UNL     1      -1.784   0.428  -0.682  0.00  0.00    +0.015 C 
ENDBRANCH  25  32
ENDBRANCH  21  28
ENDBRANCH  19  23
ENDBRANCH   1  19
TORSDOF 9
