REMARK  Name = ZINC14955176
REMARK  11 active torsions:
REMARK  status: ('A' for Active; 'I' for Inactive)
REMARK    1  A    between atoms: C_1  and  N_2
REMARK    2  A    between atoms: N_2  and  C_3
REMARK    3  A    between atoms: C_3  and  C_4
REMARK    4  A    between atoms: C_9  and  C_11
REMARK    5  A    between atoms: C_14  and  C_32
REMARK    6  A    between atoms: C_16  and  N_17
REMARK    7  A    between atoms: C_20  and  N_23
REMARK    8  A    between atoms: C_27  and  C_30
REMARK    9  A    between atoms: C_30  and  O_31
REMARK   10  A    between atoms: C_35  and  S_38
REMARK   11  A    between atoms: S_38  and  C_39
REMARK                            x       y       z     vdW  Elec       q    Type
REMARK                         _______ _______ _______ _____ _____    ______ ____
ROOT
ATOM      1  C   UNL     1       2.365   0.320   0.300  0.00  0.00    +0.077 A 
ATOM      2  C   UNL     1       1.520  -0.594   0.945  0.00  0.00    +0.018 A 
ATOM      3  C   UNL     1       0.231  -0.740   0.478  0.00  0.00    +0.029 A 
ATOM      4  C   UNL     1      -0.193   0.018  -0.616  0.00  0.00    +0.073 A 
ATOM      5  N   UNL     1       0.627   0.877  -1.210  0.00  0.00    -0.231 NA
ATOM      6  C   UNL     1       1.871   1.050  -0.796  0.00  0.00    +0.134 A 
ENDROOT
BRANCH   6   7
ATOM      7  N   UNL     1       2.691   1.955  -1.444  0.00  0.00    -0.315 N 
ATOM      8  C   UNL     1       2.945   1.537  -2.829  0.00  0.00    +0.105 C 
ATOM      9  C   UNL     1       3.968   2.479  -3.468  0.00  0.00    +0.004 C 
ATOM     10  C   UNL     1       3.424   3.910  -3.438  0.00  0.00    -0.066 C 
ATOM     11  C   UNL     1       3.123   4.303  -1.990  0.00  0.00    +0.004 C 
ATOM     12  C   UNL     1       2.124   3.308  -1.393  0.00  0.00    +0.105 C 
BRANCH  10  13
ATOM     13  N   UNL     1       4.425   4.828  -3.998  0.00  0.00    +0.382 N 
ATOM     14  C   UNL     1       3.980   6.223  -3.888  0.00  0.00    -0.078 C 
ATOM     15  C   UNL     1       5.103   7.156  -4.345  0.00  0.00    -0.018 C 
ATOM     16  C   UNL     1       5.471   6.832  -5.795  0.00  0.00    +0.002 C 
ATOM     17  C   UNL     1       5.885   5.361  -5.892  0.00  0.00    -0.002 C 
ATOM     18  C   UNL     1       4.739   4.479  -5.390  0.00  0.00    -0.073 C 
ATOM     19  H   UNL     1       5.349   4.723  -3.410  0.00  0.00    -0.081 HD
BRANCH  17  20
ATOM     20  C   UNL     1       6.198   5.011  -7.348  0.00  0.00    +0.157 C 
BRANCH  20  21
ATOM     21  O   UNL     1       7.342   5.750  -7.780  0.00  0.00    -0.395 OA
ATOM     22  H   UNL     1       7.719   5.630  -8.806  0.00  0.00    +0.209 HD
ENDBRANCH  20  21
ENDBRANCH  17  20
ENDBRANCH  10  13
ENDBRANCH   6   7
BRANCH   4  23
ATOM     23  C   UNL     1      -1.574  -0.142  -1.123  0.00  0.00    +0.000 A 
ATOM     24  C   UNL     1      -2.442  -1.050  -0.514  0.00  0.00    +0.011 A 
ATOM     25  C   UNL     1      -3.728  -1.193  -0.984  0.00  0.00    +0.015 A 
ATOM     26  C   UNL     1      -4.160  -0.442  -2.073  0.00  0.00    +0.008 A 
ATOM     27  C   UNL     1      -3.295   0.460  -2.686  0.00  0.00    +0.015 A 
ATOM     28  C   UNL     1      -2.009   0.611  -2.215  0.00  0.00    +0.011 A 
BRANCH  26  29
ATOM     29  S   UNL     1      -5.804  -0.633  -2.678  0.00  0.00    -0.129 S 
ATOM     30  C   UNL     1      -6.530  -1.887  -1.586  0.00  0.00    +0.090 C 
ENDBRANCH  26  29
ENDBRANCH   4  23
BRANCH   1  33
ATOM     31  C   UNL     1       2.907   0.704   3.039  0.00  0.00    +0.133 C 
ATOM     32  N   UNL     1       4.000   0.748   2.064  0.00  0.00    -0.293 N 
ATOM     33  C   UNL     1       3.751   0.511   0.761  0.00  0.00    +0.250 C 
ATOM     34  O   UNL     1       4.670   0.456  -0.033  0.00  0.00    -0.270 OA
BRANCH  32  35
ATOM     35  C   UNL     1       5.364   1.050   2.506  0.00  0.00    +0.182 C 
BRANCH  35  36
ATOM     36  C   UNL     1       5.591   2.538   2.452  0.00  0.00    +0.122 A 
ATOM     37  C   UNL     1       5.357   3.407   3.452  0.00  0.00    +0.046 A 
ATOM     38  C   UNL     1       5.708   4.689   2.971  0.00  0.00    +0.041 A 
ATOM     39  C   UNL     1       6.136   4.528   1.706  0.00  0.00    +0.195 A 
ATOM     40  O   UNL     1       6.069   3.222   1.399  0.00  0.00    -0.466 OA
ENDBRANCH  35  36
ENDBRANCH  32  35
ENDBRANCH   1  33
TORSDOF 9
