REMARK  Name = ZINC36644628
REMARK  10 active torsions:
REMARK  status: ('A' for Active; 'I' for Inactive)
REMARK    1  A    between atoms: C_1  and  C_2
REMARK    2  A    between atoms: C_2  and  N_3
REMARK    3  A    between atoms: N_3  and  C_4
REMARK    4  A    between atoms: N_3  and  S_6
REMARK    5  A    between atoms: C_4  and  C_5
REMARK    6  A    between atoms: S_6  and  C_9
REMARK    7  A    between atoms: C_11  and  C_31
REMARK    8  A    between atoms: C_12  and  C_30
REMARK    9  A    between atoms: C_13  and  N_15
REMARK   10  A    between atoms: C_16  and  C_18
REMARK                            x       y       z     vdW  Elec       q    Type
REMARK                         _______ _______ _______ _____ _____    ______ ____
ROOT
ATOM      1  C   UNL     1      -0.314   0.591  -3.507  0.00  0.00    +0.107 A 
ATOM      2  C   UNL     1      -1.383   1.445  -3.305  0.00  0.00    +0.032 A 
ATOM      3  C   UNL     1      -1.512   2.589  -4.070  0.00  0.00    -0.044 A 
ATOM      4  C   UNL     1      -0.572   2.884  -5.039  0.00  0.00    -0.026 A 
ATOM      5  C   UNL     1       0.502   2.028  -5.244  0.00  0.00    +0.038 A 
ATOM      6  C   UNL     1       0.631   0.882  -4.471  0.00  0.00    +0.052 A 
ATOM      7  C   UNL     1      -0.713   4.131  -5.872  0.00  0.00    +0.046 C 
ATOM      8  C   UNL     1      -2.678   3.517  -3.846  0.00  0.00    +0.044 C 
ENDROOT
BRANCH   5   9
ATOM      9  N   UNL     1       1.455   2.323  -6.225  0.00  0.00    -0.285 N 
ATOM     10  C   UNL     1       2.185   1.332  -6.776  0.00  0.00    +0.225 C 
ATOM     11  O   UNL     1       1.947   0.177  -6.495  0.00  0.00    -0.275 OA
ATOM     12  H   UNL     1       1.591   3.241  -6.509  0.00  0.00    +0.155 HD
BRANCH  10  13
ATOM     13  C   UNL     1       3.296   1.661  -7.740  0.00  0.00    +0.116 C 
ATOM     14  C   UNL     1       4.334   2.539  -7.040  0.00  0.00    +0.113 C 
ATOM     15  C   UNL     1       5.102   1.724  -6.035  0.00  0.00    +0.218 C 
ATOM     16  O   UNL     1       5.462   2.237  -4.997  0.00  0.00    -0.275 OA
ATOM     17  N   UNL     1       5.393   0.432  -6.275  0.00  0.00    -0.285 N 
ATOM     18  C   UNL     1       4.972  -0.181  -7.459  0.00  0.00    +0.037 A 
ATOM     19  C   UNL     1       3.948   0.385  -8.207  0.00  0.00    -0.014 A 
ATOM     20  C   UNL     1       3.532  -0.220  -9.375  0.00  0.00    +0.006 A 
ATOM     21  C   UNL     1       4.133  -1.391  -9.801  0.00  0.00    +0.000 A 
ATOM     22  C   UNL     1       5.152  -1.958  -9.058  0.00  0.00    +0.002 A 
ATOM     23  C   UNL     1       5.573  -1.357  -7.888  0.00  0.00    +0.023 A 
ATOM     24  H   UNL     1       5.899  -0.076  -5.622  0.00  0.00    +0.155 HD
ENDBRANCH  10  13
ENDBRANCH   5   9
BRANCH   1  25
ATOM     25  S   UNL     1      -0.155  -0.867  -2.530  0.00  0.00    +0.061 S 
ATOM     26  O   UNL     1       0.639  -1.775  -3.281  0.00  0.00    -0.153 OA
ATOM     27  O   UNL     1      -1.460  -1.193  -2.072  0.00  0.00    -0.153 OA
BRANCH  25  28
ATOM     28  N   UNL     1       0.730  -0.463  -1.189  0.00  0.00    -0.177 NA
BRANCH  28  30
ATOM     29  C   UNL     1       0.029   1.542   0.024  0.00  0.00    +0.022 C 
ATOM     30  C   UNL     1       0.052   0.012   0.020  0.00  0.00    +0.106 C 
ENDBRANCH  28  30
BRANCH  28  31
ATOM     31  C   UNL     1       2.190  -0.580  -1.212  0.00  0.00    +0.106 C 
ATOM     32  C   UNL     1       2.602  -1.932  -0.627  0.00  0.00    +0.022 C 
ENDBRANCH  28  31
ENDBRANCH  25  28
ENDBRANCH   1  25
TORSDOF 6
