REMARK  Name = ZINC04598647
REMARK  5 active torsions:
REMARK  status: ('A' for Active; 'I' for Inactive)
REMARK    1  A    between atoms: C_1  and  C_2
REMARK    2  A    between atoms: C_3  and  C_21
REMARK    3  A    between atoms: N_17  and  C_18
REMARK    4  A    between atoms: C_18  and  C_19
REMARK    5  A    between atoms: N_23  and  C_24
REMARK                            x       y       z     vdW  Elec       q    Type
REMARK                         _______ _______ _______ _____ _____    ______ ____
ROOT
ATOM      1  C   UNL     1      -3.210   3.856   1.317  0.00  0.00    +0.079 C 
ATOM      2  C   UNL     1      -2.593   4.133  -0.055  0.00  0.00    +0.190 C 
ATOM      3  C   UNL     1      -1.158   3.588  -0.087  0.00  0.00    +0.162 C 
ATOM      4  C   UNL     1      -0.550   4.013  -1.434  0.00  0.00    +0.123 C 
ATOM      5  C   UNL     1      -1.471   3.543  -2.538  0.00  0.00    +0.015 A 
ATOM      6  C   UNL     1      -0.954   3.357  -3.808  0.00  0.00    +0.009 A 
ATOM      7  C   UNL     1      -1.776   2.943  -4.838  0.00  0.00    +0.001 A 
ATOM      8  C   UNL     1      -3.119   2.715  -4.600  0.00  0.00    +0.004 A 
ATOM      9  C   UNL     1      -3.637   2.896  -3.335  0.00  0.00    +0.046 A 
ATOM     10  C   UNL     1      -2.812   3.310  -2.293  0.00  0.00    +0.128 A 
ATOM     11  O   UNL     1      -3.356   3.470  -1.059  0.00  0.00    -0.467 OA
ATOM     12  N   UNL     1      -0.536   5.485  -1.471  0.00  0.00    -0.318 N 
ATOM     13  C   UNL     1      -1.554   6.175  -0.929  0.00  0.00    +0.136 C 
ATOM     14  S   UNL     1      -1.558   7.881  -1.063  0.00  0.00    -0.019 S 
ATOM     15  N   UNL     1      -2.568   5.573  -0.293  0.00  0.00    -0.271 N 
ATOM     16  H   UNL     1       0.204   5.955  -1.884  0.00  0.00    +0.148 HD
ENDROOT
BRANCH   3  17
ATOM     17  C   UNL     1      -1.175   2.085   0.018  0.00  0.00    +0.228 C 
ATOM     18  O   UNL     1      -2.231   1.496   0.111  0.00  0.00    -0.275 OA
ATOM     19  N   UNL     1      -0.017   1.395   0.010  0.00  0.00    -0.285 N 
ATOM     20  H   UNL     1       0.830   1.869  -0.001  0.00  0.00    +0.155 HD
BRANCH  19  21
ATOM     21  C   UNL     1      -0.036  -0.004   0.010  0.00  0.00    +0.033 A 
ATOM     22  C   UNL     1      -1.020  -0.686   0.712  0.00  0.00    +0.025 A 
ATOM     23  C   UNL     1      -1.039  -2.067   0.707  0.00  0.00    +0.022 A 
ATOM     24  C   UNL     1      -0.072  -2.771   0.011  0.00  0.00    +0.041 A 
ATOM     25  C   UNL     1       0.913  -2.094  -0.686  0.00  0.00    +0.022 A 
ATOM     26  C   UNL     1       0.933  -0.713  -0.688  0.00  0.00    +0.025 A 
ATOM     27 CL   UNL     1      -0.095  -4.507   0.011  0.00  0.00    -0.084 Cl
ENDBRANCH  19  21
ENDBRANCH   3  17
BRANCH  15  28
ATOM     28  C   UNL     1      -3.683   6.392   0.189  0.00  0.00    +0.137 C 
BRANCH  28  29
ATOM     29  C   UNL     1      -3.389   6.866   1.589  0.00  0.00    -0.016 C 
ATOM     30  C   UNL     1      -3.422   8.145   1.869  0.00  0.00    +0.005 C 
ENDBRANCH  28  29
ENDBRANCH  15  28
TORSDOF 4
