REMARK  Name = ZINC08662691
REMARK  6 active torsions:
REMARK  status: ('A' for Active; 'I' for Inactive)
REMARK    1  A    between atoms: C_1  and  C_2
REMARK    2  A    between atoms: C_3  and  C_22
REMARK    3  A    between atoms: C_3  and  C_26
REMARK    4  A    between atoms: N_11  and  C_14
REMARK    5  A    between atoms: C_17  and  O_20
REMARK    6  A    between atoms: O_20  and  C_21
REMARK                            x       y       z     vdW  Elec       q    Type
REMARK                         _______ _______ _______ _____ _____    ______ ____
ROOT
ATOM      1  C   UNL     1      -0.300   1.352   3.024  0.00  0.00    +0.081 C 
ATOM      2  C   UNL     1      -0.425   2.438   1.987  0.00  0.00    +0.071 C 
ATOM      3  C   UNL     1       0.449   4.435   0.953  0.00  0.00    +0.264 C 
ATOM      4  C   UNL     1      -0.529   4.156  -0.152  0.00  0.00    +0.098 A 
ATOM      5  C   UNL     1      -0.490   4.899  -1.343  0.00  0.00    +0.262 A 
ATOM      6  O   UNL     1       0.344   5.776  -1.493  0.00  0.00    -0.267 OA
ATOM      7  N   UNL     1      -1.381   4.634  -2.320  0.00  0.00    -0.274 N 
ATOM      8  H   UNL     1      -1.355   5.161  -3.170  0.00  0.00    +0.173 HD
ATOM      9  C   UNL     1      -2.304   3.668  -2.163  0.00  0.00    +0.335 A 
ATOM     10  O   UNL     1      -3.099   3.449  -3.056  0.00  0.00    -0.246 OA
ATOM     11  N   UNL     1      -2.361   2.941  -1.031  0.00  0.00    -0.250 N 
ATOM     12  C   UNL     1      -1.469   3.178  -0.013  0.00  0.00    +0.124 A 
ATOM     13  N   UNL     1      -1.506   2.432   1.140  0.00  0.00    -0.290 N 
ATOM     14  H   UNL     1      -2.293   1.907   1.356  0.00  0.00    +0.155 HD
ATOM     15  N   UNL     1       0.554   3.334   1.975  0.00  0.00    -0.352 N 
ATOM     16  H   UNL     1       1.343   3.278   2.630  0.00  0.00    +0.162 HD
ENDROOT
BRANCH  11  17
ATOM     17  C   UNL     1      -3.332   1.939  -0.891  0.00  0.00    +0.053 A 
ATOM     18  C   UNL     1      -3.051   0.638  -1.287  0.00  0.00    +0.030 A 
ATOM     19  C   UNL     1      -4.006  -0.348  -1.145  0.00  0.00    +0.047 A 
ATOM     20  C   UNL     1      -5.250  -0.038  -0.616  0.00  0.00    +0.120 A 
ATOM     21  C   UNL     1      -5.534   1.262  -0.225  0.00  0.00    +0.047 A 
ATOM     22  C   UNL     1      -4.578   2.249  -0.362  0.00  0.00    +0.030 A 
BRANCH  20  23
ATOM     23  O   UNL     1      -6.193  -1.009  -0.480  0.00  0.00    -0.495 OA
ATOM     24  C   UNL     1      -5.833  -2.326  -0.903  0.00  0.00    +0.277 C 
ENDBRANCH  20  23
ENDBRANCH  11  17
BRANCH   3  25
ATOM     25  C   UNL     1       0.040   5.722   1.672  0.00  0.00    +0.426 C 
ATOM     26  F   UNL     1       0.969   6.010   2.678  0.00  0.00    -0.167 F 
ATOM     27  F   UNL     1       0.004   6.778   0.755  0.00  0.00    -0.167 F 
ATOM     28  F   UNL     1      -1.227   5.556   2.241  0.00  0.00    -0.167 F 
ENDBRANCH   3  25
BRANCH   3  29
ATOM     29  C   UNL     1       1.844   4.620   0.353  0.00  0.00    +0.426 C 
ATOM     30  F   UNL     1       2.081   3.617  -0.594  0.00  0.00    -0.167 F 
ATOM     31  F   UNL     1       1.924   5.872  -0.266  0.00  0.00    -0.167 F 
ATOM     32  F   UNL     1       2.803   4.539   1.368  0.00  0.00    -0.167 F 
ENDBRANCH   3  29
TORSDOF 4
