REMARK  Name = ZINC63908242
REMARK  6 active torsions:
REMARK  status: ('A' for Active; 'I' for Inactive)
REMARK    1  A    between atoms: C_1  and  C_2
REMARK    2  A    between atoms: C_4  and  C_12
REMARK    3  A    between atoms: C_18  and  C_20
REMARK    4  A    between atoms: C_24  and  S_26
REMARK    5  A    between atoms: S_26  and  N_29
REMARK    6  A    between atoms: N_32  and  C_35
REMARK                            x       y       z     vdW  Elec       q    Type
REMARK                         _______ _______ _______ _____ _____    ______ ____
ROOT
ATOM      1  C   UNL     1       0.379  -0.285  -2.575  0.00  0.00    +0.079 A 
ATOM      2  C   UNL     1       1.196  -0.731  -3.606  0.00  0.00    +0.076 A 
ATOM      3  S   UNL     1       0.358  -0.231  -4.976  0.00  0.00    -0.060 S 
ATOM      4  C   UNL     1      -1.031   0.542  -4.167  0.00  0.00    +0.165 A 
ATOM      5  N   UNL     1      -0.752   0.356  -2.895  0.00  0.00    -0.225 NA
ATOM      6  N   UNL     1      -2.127   1.174  -4.734  0.00  0.00    -0.261 N 
ATOM      7  C   UNL     1      -2.236   1.259  -6.075  0.00  0.00    +0.250 C 
ATOM      8  O   UNL     1      -1.374   0.783  -6.787  0.00  0.00    -0.270 OA
ATOM      9  H   UNL     1      -2.814   1.554  -4.166  0.00  0.00    +0.157 HD
ENDROOT
BRANCH   1  12
ATOM     10  C   UNL     1       1.783  -2.768  -1.165  0.00  0.00    +0.035 C 
ATOM     11  C   UNL     1       1.898  -1.314  -0.705  0.00  0.00    +0.109 C 
ATOM     12  C   UNL     1       0.728  -0.508  -1.226  0.00  0.00    +0.009 C 
ATOM     13  C   UNL     1       0.068  -0.033  -0.096  0.00  0.00    +0.005 A 
ATOM     14  C   UNL     1      -1.083   0.770   0.069  0.00  0.00    +0.010 A 
ATOM     15  C   UNL     1      -1.509   1.086   1.318  0.00  0.00    +0.001 A 
ATOM     16  C   UNL     1      -0.837   0.636   2.457  0.00  0.00    +0.002 A 
ATOM     17  C   UNL     1       0.273  -0.137   2.373  0.00  0.00    +0.026 A 
ATOM     18  C   UNL     1       0.780  -0.509   1.101  0.00  0.00    +0.043 A 
ATOM     19  N   UNL     1       1.825  -1.239   0.757  0.00  0.00    -0.377 N 
ATOM     20  H   UNL     1       2.445  -1.660   1.373  0.00  0.00    +0.160 HD
ENDBRANCH   1  12
BRANCH   7  21
ATOM     21  C   UNL     1      -3.404   1.933  -6.679  0.00  0.00    +0.039 A 
ATOM     22  C   UNL     1      -4.394   2.487  -5.864  0.00  0.00    +0.013 A 
ATOM     23  C   UNL     1      -5.481   3.114  -6.435  0.00  0.00    +0.003 A 
ATOM     24  C   UNL     1      -5.593   3.196  -7.812  0.00  0.00    +0.028 A 
ATOM     25  C   UNL     1      -4.617   2.649  -8.625  0.00  0.00    +0.106 A 
ATOM     26  C   UNL     1      -3.521   2.023  -8.067  0.00  0.00    +0.041 A 
BRANCH  25  27
ATOM     27  S   UNL     1      -4.769   2.757 -10.377  0.00  0.00    +0.061 S 
ATOM     28  O   UNL     1      -4.001   1.692 -10.919  0.00  0.00    -0.153 OA
ATOM     29  O   UNL     1      -6.154   2.917 -10.655  0.00  0.00    -0.153 OA
BRANCH  27  30
ATOM     30  N   UNL     1      -4.028   4.162 -10.847  0.00  0.00    -0.174 NA
ATOM     31  C   UNL     1      -4.779   5.424 -10.922  0.00  0.00    +0.125 C 
ATOM     32  C   UNL     1      -4.010   6.495 -10.142  0.00  0.00    +0.101 C 
ATOM     33  N   UNL     1      -2.630   6.564 -10.640  0.00  0.00    -0.303 NA
ATOM     34  C   UNL     1      -1.917   5.300 -10.410  0.00  0.00    +0.101 C 
ATOM     35  C   UNL     1      -2.599   4.181 -11.195  0.00  0.00    +0.125 C 
ATOM     36  C   UNL     1      -1.909   7.693 -10.039  0.00  0.00    +0.105 C 
ENDBRANCH  27  30
ENDBRANCH  25  27
ENDBRANCH   7  21
TORSDOF 4
