REMARK  Name = ZINC07734767
REMARK  7 active torsions:
REMARK  status: ('A' for Active; 'I' for Inactive)
REMARK    1  A    between atoms: C_1  and  N_2
REMARK    2  A    between atoms: N_2  and  C_3
REMARK    3  A    between atoms: C_4  and  N_19
REMARK    4  A    between atoms: N_5  and  C_12
REMARK    5  A    between atoms: C_12  and  C_13
REMARK    6  A    between atoms: C_20  and  C_22
REMARK    7  A    between atoms: N_27  and  C_29
REMARK                            x       y       z     vdW  Elec       q    Type
REMARK                         _______ _______ _______ _____ _____    ______ ____
ROOT
ATOM      1  C   UNL     1       0.358  -0.689   4.003  0.00  0.00    +0.139 A 
ATOM      2  C   UNL     1       0.685  -0.329   5.294  0.00  0.00    +0.128 A 
ATOM      3  N   UNL     1       0.661  -1.283   6.284  0.00  0.00    -0.276 N 
ATOM      4  C   UNL     1       0.336  -2.556   5.995  0.00  0.00    +0.331 A 
ATOM      5  O   UNL     1       0.326  -3.386   6.883  0.00  0.00    -0.246 OA
ATOM      6  N   UNL     1       0.020  -2.927   4.742  0.00  0.00    -0.273 N 
ATOM      7  H   UNL     1      -0.218  -3.880   4.553  0.00  0.00    +0.173 HD
ATOM      8  C   UNL     1       0.022  -2.030   3.736  0.00  0.00    +0.277 A 
ATOM      9  O   UNL     1      -0.266  -2.377   2.603  0.00  0.00    -0.266 OA
ENDROOT
BRANCH   1  11
ATOM     10  C   UNL     1       1.626   0.894   2.558  0.00  0.00    +0.138 C 
ATOM     11  N   UNL     1       0.366   0.268   2.967  0.00  0.00    -0.267 N 
ATOM     12  C   UNL     1      -0.786   0.607   2.352  0.00  0.00    +0.225 C 
ATOM     13  O   UNL     1      -0.766   1.350   1.393  0.00  0.00    -0.275 OA
BRANCH  12  14
ATOM     14  C   UNL     1      -2.098   0.064   2.857  0.00  0.00    +0.101 C 
ATOM     15  C   UNL     1      -2.316   0.436   4.342  0.00  0.00    +0.110 C 
ATOM     16  C   UNL     1      -3.800   0.711   4.444  0.00  0.00    +0.217 C 
ATOM     17  O   UNL     1      -4.428   0.760   5.481  0.00  0.00    -0.276 OA
ATOM     18  N   UNL     1      -4.322   0.891   3.219  0.00  0.00    -0.298 N 
ATOM     19  C   UNL     1      -3.294   0.775   2.179  0.00  0.00    +0.121 C 
BRANCH  18  20
ATOM     20  C   UNL     1      -5.737   1.168   2.956  0.00  0.00    +0.076 C 
ATOM     21  C   UNL     1      -6.177   2.437   3.714  0.00  0.00    +0.022 C 
ATOM     22  C   UNL     1      -7.624   2.124   4.171  0.00  0.00    +0.002 C 
ATOM     23  C   UNL     1      -7.546   0.623   4.548  0.00  0.00    +0.002 C 
ATOM     24  C   UNL     1      -6.607   0.015   3.486  0.00  0.00    +0.022 C 
ENDBRANCH  18  20
ENDBRANCH  12  14
ENDBRANCH   1  11
BRANCH   2  25
ATOM     25  N   UNL     1       1.024   0.970   5.589  0.00  0.00    -0.343 N 
ATOM     26  H   UNL     1       0.965   1.654   4.903  0.00  0.00    +0.144 HD
ATOM     27  H   UNL     1       1.323   1.203   6.482  0.00  0.00    +0.144 HD
ENDBRANCH   2  25
BRANCH   3  28
ATOM     28  C   UNL     1       1.000  -0.913   7.661  0.00  0.00    +0.163 C 
BRANCH  28  29
ATOM     29  C   UNL     1       2.482  -1.077   7.875  0.00  0.00    -0.028 A 
ATOM     30  C   UNL     1       2.986  -2.283   8.327  0.00  0.00    +0.005 A 
ATOM     31  C   UNL     1       4.346  -2.435   8.519  0.00  0.00    +0.000 A 
ATOM     32  C   UNL     1       5.202  -1.378   8.270  0.00  0.00    +0.000 A 
ATOM     33  C   UNL     1       4.698  -0.171   7.824  0.00  0.00    +0.000 A 
ATOM     34  C   UNL     1       3.338  -0.020   7.626  0.00  0.00    +0.005 A 
ENDBRANCH  28  29
ENDBRANCH   3  28
TORSDOF 6
