REMARK  Name = ZINC11807340
REMARK  7 active torsions:
REMARK  status: ('A' for Active; 'I' for Inactive)
REMARK    1  A    between atoms: C_6  and  C_7
REMARK    2  A    between atoms: C_7  and  C_9
REMARK    3  A    between atoms: C_7  and  S_15
REMARK    4  A    between atoms: N_11  and  C_12
REMARK    5  A    between atoms: S_15  and  C_16
REMARK    6  A    between atoms: C_19  and  C_22
REMARK    7  A    between atoms: N_20  and  N_21
REMARK                            x       y       z     vdW  Elec       q    Type
REMARK                         _______ _______ _______ _____ _____    ______ ____
ROOT
ATOM      1  S   UNL     1      -3.695   1.780  -1.109  0.00  0.00    -0.067 S 
ENDROOT
BRANCH   1   2
ATOM      2  C   UNL     1      -4.968   0.562  -1.130  0.00  0.00    +0.210 A 
ATOM      3  N   UNL     1      -4.987  -0.558  -0.444  0.00  0.00    -0.121 NA
ATOM      4  N   UNL     1      -6.064  -1.212  -0.695  0.00  0.00    -0.127 NA
ATOM      5  C   UNL     1      -6.800  -0.550  -1.557  0.00  0.00    +0.183 A 
ATOM      6  N   UNL     1      -6.123   0.610  -1.859  0.00  0.00    -0.224 N 
BRANCH   5   7
ATOM      7  C   UNL     1      -8.110  -0.968  -2.098  0.00  0.00    +0.040 A 
ATOM      8  C   UNL     1      -8.318  -1.010  -3.478  0.00  0.00    +0.033 A 
ATOM      9  C   UNL     1      -9.544  -1.401  -3.976  0.00  0.00    +0.042 A 
ATOM     10  C   UNL     1     -10.567  -1.752  -3.111  0.00  0.00    +0.021 A 
ATOM     11  C   UNL     1     -10.368  -1.712  -1.743  0.00  0.00    +0.022 A 
ATOM     12  C   UNL     1      -9.144  -1.328  -1.231  0.00  0.00    +0.052 A 
ATOM     13 CL   UNL     1      -8.894  -1.286   0.486  0.00  0.00    -0.083 Cl
ATOM     14 CL   UNL     1      -9.805  -1.454  -5.692  0.00  0.00    -0.084 Cl
ENDBRANCH   5   7
BRANCH   6  15
ATOM     15  N   UNL     1      -6.521   1.600  -2.711  0.00  0.00    -0.295 N 
ATOM     16  H   UNL     1      -6.270   1.381  -3.663  0.00  0.00    +0.163 HD
ATOM     17  H   UNL     1      -7.512   1.771  -2.629  0.00  0.00    +0.163 HD
ENDBRANCH   6  15
ENDBRANCH   1   2
BRANCH   1  18
ATOM     18  C   UNL     1      -2.550   1.018   0.066  0.00  0.00    +0.170 C 
BRANCH  18  24
ATOM     19  C   UNL     1      -0.057   1.233   0.104  0.00  0.00    +0.008 A 
ATOM     20  C   UNL     1       1.095   1.992   0.179  0.00  0.00    +0.038 A 
ATOM     21  C   UNL     1       1.010   3.368   0.311  0.00  0.00    +0.123 A 
ATOM     22  C   UNL     1      -0.231   3.981   0.366  0.00  0.00    +0.038 A 
ATOM     23  C   UNL     1      -1.381   3.219   0.291  0.00  0.00    +0.008 A 
ATOM     24  C   UNL     1      -1.294   1.846   0.154  0.00  0.00    -0.025 A 
ATOM     25  F   UNL     1       2.135   4.111   0.384  0.00  0.00    -0.205 F 
ENDBRANCH  18  24
BRANCH  18  26
ATOM     26  C   UNL     1      -3.199   0.944   1.424  0.00  0.00    +0.231 C 
ATOM     27  O   UNL     1      -3.415  -0.135   1.935  0.00  0.00    -0.274 OA
ATOM     28  N   UNL     1      -3.540   2.076   2.071  0.00  0.00    -0.311 N 
ATOM     29  H   UNL     1      -3.432   2.935   1.634  0.00  0.00    +0.149 HD
BRANCH  28  30
ATOM     30  C   UNL     1      -4.074   2.009   3.434  0.00  0.00    +0.073 C 
ATOM     31  C   UNL     1      -5.280   2.890   3.764  0.00  0.00    +0.024 C 
ATOM     32  C   UNL     1      -3.900   3.242   4.322  0.00  0.00    +0.024 C 
ENDBRANCH  28  30
ENDBRANCH  18  26
ENDBRANCH   1  18
TORSDOF 7
