REMARK  Name = ZINC05253785
REMARK  5 active torsions:
REMARK  status: ('A' for Active; 'I' for Inactive)
REMARK    1  A    between atoms: C_6  and  N_7
REMARK    2  A    between atoms: C_14  and  S_16
REMARK    3  A    between atoms: S_16  and  C_17
REMARK    4  A    between atoms: C_17  and  C_18
REMARK    5  A    between atoms: C_18  and  C_19
REMARK                            x       y       z     vdW  Elec       q    Type
REMARK                         _______ _______ _______ _____ _____    ______ ____
ROOT
ATOM      1  N   UNL     1       1.161   3.486   0.009  0.00  0.00    -0.269 N 
ATOM      2  C   UNL     1       2.317   4.173   0.104  0.00  0.00    +0.310 C 
ATOM      3  O   UNL     1       3.378   3.581   0.091  0.00  0.00    -0.252 OA
ATOM      4  N   UNL     1       2.295   5.516   0.212  0.00  0.00    -0.247 N 
ATOM      5  C   UNL     1       3.490   6.226   0.310  0.00  0.00    +0.190 A 
ATOM      6  N   UNL     1       4.730   5.778   0.314  0.00  0.00    -0.125 NA
ATOM      7  N   UNL     1       5.777   6.663   0.421  0.00  0.00    -0.133 NA
ATOM      8  C   UNL     1       5.536   7.957   0.519  0.00  0.00    +0.160 A 
ATOM      9  S   UNL     1       3.751   7.987   0.454  0.00  0.00    -0.024 S 
ATOM     10  H   UNL     1       0.318   3.962  -0.058  0.00  0.00    +0.156 HD
ATOM     11  H   UNL     1       1.448   5.989   0.222  0.00  0.00    +0.158 HD
ENDROOT
BRANCH   1  17
ATOM     12  C   UNL     1       2.133   1.401   0.746  0.00  0.00    +0.025 A 
ATOM     13  C   UNL     1       2.146   0.020   0.744  0.00  0.00    +0.022 A 
ATOM     14  C   UNL     1       1.207  -0.681   0.008  0.00  0.00    +0.041 A 
ATOM     15  C   UNL     1       0.253  -0.001  -0.728  0.00  0.00    +0.022 A 
ATOM     16  C   UNL     1       0.235   1.381  -0.729  0.00  0.00    +0.025 A 
ATOM     17  C   UNL     1       1.177   2.086   0.009  0.00  0.00    +0.035 A 
ATOM     18 CL   UNL     1       1.227  -2.417   0.007  0.00  0.00    -0.084 Cl
ENDBRANCH   1  17
BRANCH   8  19
ATOM     19  S   UNL     1       6.671   9.297   0.665  0.00  0.00    -0.097 S 
BRANCH  19  20
ATOM     20  C   UNL     1       8.299   8.496   0.653  0.00  0.00    +0.081 C 
BRANCH  20  21
ATOM     21  C   UNL     1       9.391   9.560   0.776  0.00  0.00    +0.072 C 
BRANCH  21  22
ATOM     22  C   UNL     1      10.764   8.885   0.766  0.00  0.00    +0.251 C 
ATOM     23  O   UNL     1      10.912   8.073   1.943  0.00  0.00    -0.349 OA
ATOM     24  C   UNL     1      12.307   8.200   2.308  0.00  0.00    +0.191 C 
ATOM     25  C   UNL     1      12.594   9.678   1.944  0.00  0.00    +0.191 C 
ATOM     26  O   UNL     1      11.793   9.884   0.763  0.00  0.00    -0.349 OA
ENDBRANCH  21  22
ENDBRANCH  20  21
ENDBRANCH  19  20
ENDBRANCH   8  19
TORSDOF 5
