REMARK  Name = ZINC41514712
REMARK  7 active torsions:
REMARK  status: ('A' for Active; 'I' for Inactive)
REMARK    1  A    between atoms: C_1  and  N_2
REMARK    2  A    between atoms: N_2  and  C_3
REMARK    3  A    between atoms: N_2  and  C_10
REMARK    4  A    between atoms: C_3  and  C_4
REMARK    5  A    between atoms: C_10  and  C_11
REMARK    6  A    between atoms: C_12  and  O_33
REMARK    7  A    between atoms: C_19  and  C_20
REMARK                            x       y       z     vdW  Elec       q    Type
REMARK                         _______ _______ _______ _____ _____    ______ ____
ROOT
ATOM      1  C   UNL     1      -1.269   0.309  -1.709  0.00  0.00    +0.020 A 
ATOM      2  C   UNL     1      -1.820   1.571  -1.869  0.00  0.00    +0.122 A 
ATOM      3  C   UNL     1      -2.557   1.882  -3.009  0.00  0.00    +0.046 A 
ATOM      4  C   UNL     1      -2.744   0.943  -3.983  0.00  0.00    +0.019 A 
ATOM      5  C   UNL     1      -2.196  -0.331  -3.835  0.00  0.00    +0.068 A 
ATOM      6  C   UNL     1      -1.446  -0.656  -2.693  0.00  0.00    +0.144 A 
ATOM      7  O   UNL     1      -1.017  -1.934  -2.778  0.00  0.00    -0.451 OA
ATOM      8  C   UNL     1      -1.422  -2.526  -3.926  0.00  0.00    +0.176 C 
ATOM      9  C   UNL     1      -1.156  -3.801  -4.309  0.00  0.00    +0.061 C 
ATOM     10  C   UNL     1      -2.213  -1.541  -4.678  0.00  0.00    +0.231 C 
ATOM     11  O   UNL     1      -2.752  -1.687  -5.762  0.00  0.00    -0.283 OA
ENDROOT
BRANCH   9  12
ATOM     12  C   UNL     1      -0.263  -4.638  -3.500  0.00  0.00    +0.022 A 
ATOM     13  C   UNL     1       0.030  -4.283  -2.178  0.00  0.00    +0.027 A 
ATOM     14  C   UNL     1       0.871  -5.074  -1.426  0.00  0.00    +0.019 A 
ATOM     15  C   UNL     1       1.430  -6.219  -1.973  0.00  0.00    +0.024 A 
ATOM     16  C   UNL     1       1.149  -6.582  -3.277  0.00  0.00    +0.022 A 
ATOM     17  C   UNL     1       0.299  -5.805  -4.046  0.00  0.00    +0.136 A 
ATOM     18  O   UNL     1       0.004  -6.158  -5.323  0.00  0.00    -0.465 OA
ATOM     19  C   UNL     1       0.860  -7.122  -5.942  0.00  0.00    +0.395 C 
ATOM     20  O   UNL     1       1.053  -8.213  -5.033  0.00  0.00    -0.339 OA
ATOM     21  C   UNL     1       1.772  -7.829  -3.853  0.00  0.00    +0.202 C 
ATOM     22 BR   UNL     1       1.266  -4.596   0.360  0.00  0.00    -0.050 Br
ENDBRANCH   9  12
BRANCH   2  23
ATOM     23  O   UNL     1      -1.639   2.510  -0.907  0.00  0.00    -0.506 OA
ATOM     24  H   UNL     1      -0.849   3.054  -1.031  0.00  0.00    +0.292 HD
ENDBRANCH   2  23
BRANCH   1  25
ATOM     25  C   UNL     1      -0.473  -0.014  -0.471  0.00  0.00    -0.035 C 
BRANCH  25  27
ATOM     26  C   UNL     1       1.085   1.762  -0.887  0.00  0.00    -0.095 C 
ATOM     27  N   UNL     1       0.941   0.312  -0.699  0.00  0.00    +0.383 N 
ATOM     28  H   UNL     1       1.268  -0.168  -1.524  0.00  0.00    -0.081 HD
BRANCH  27  29
ATOM     29  C   UNL     1       1.735  -0.113   0.461  0.00  0.00    -0.043 C 
BRANCH  29  30
ATOM     30  C   UNL     1       3.198   0.108   0.177  0.00  0.00    -0.064 A 
ATOM     31  C   UNL     1       3.946  -0.892  -0.415  0.00  0.00    +0.002 A 
ATOM     32  C   UNL     1       5.288  -0.689  -0.676  0.00  0.00    +0.000 A 
ATOM     33  C   UNL     1       5.883   0.514  -0.344  0.00  0.00    +0.000 A 
ATOM     34  C   UNL     1       5.134   1.515   0.248  0.00  0.00    +0.000 A 
ATOM     35  C   UNL     1       3.791   1.313   0.505  0.00  0.00    +0.002 A 
ENDBRANCH  29  30
ENDBRANCH  27  29
ENDBRANCH  25  27
ENDBRANCH   1  25
TORSDOF 6
