REMARK  Name = ZINC09836035
REMARK  7 active torsions:
REMARK  status: ('A' for Active; 'I' for Inactive)
REMARK    1  A    between atoms: C_4  and  N_7
REMARK    2  A    between atoms: C_11  and  S_12
REMARK    3  A    between atoms: S_12  and  C_13
REMARK    4  A    between atoms: C_13  and  C_14
REMARK    5  A    between atoms: N_16  and  C_17
REMARK    6  A    between atoms: C_20  and  C_23
REMARK    7  A    between atoms: C_23  and  N_67
REMARK                            x       y       z     vdW  Elec       q    Type
REMARK                         _______ _______ _______ _____ _____    ______ ____
ROOT
ATOM      1  C   UNL     1       7.262   5.123   0.876  0.00  0.00    +0.173 C 
ENDROOT
BRANCH   1   2
ATOM      2  C   UNL     1       7.917   6.465   0.667  0.00  0.00    +0.227 C 
ATOM      3  O   UNL     1       7.252   7.414   0.309  0.00  0.00    -0.275 OA
ATOM      4  N   UNL     1       9.240   6.609   0.878  0.00  0.00    -0.285 N 
ATOM      5  H   UNL     1       9.784   5.836   1.095  0.00  0.00    +0.155 HD
BRANCH   4   6
ATOM      6  C   UNL     1       9.829   7.875   0.784  0.00  0.00    +0.033 A 
ATOM      7  C   UNL     1      11.133   8.003   0.321  0.00  0.00    +0.023 A 
ATOM      8  C   UNL     1      11.709   9.254   0.223  0.00  0.00    +0.003 A 
ATOM      9  C   UNL     1      10.995  10.377   0.597  0.00  0.00    -0.064 A 
ATOM     10  C   UNL     1       9.699  10.252   1.064  0.00  0.00    +0.003 A 
ATOM     11  C   UNL     1       9.114   9.005   1.158  0.00  0.00    +0.023 A 
BRANCH   9  12
ATOM     12  C   UNL     1      11.629  11.740   0.495  0.00  0.00    -0.043 C 
BRANCH  12  18
ATOM     13  C   UNL     1      11.349  12.209   2.855  0.00  0.00    -0.050 C 
ATOM     14  C   UNL     1      12.107  12.479   4.158  0.00  0.00    +0.141 C 
ATOM     15  O   UNL     1      12.929  13.638   3.994  0.00  0.00    -0.383 OA
ATOM     16  C   UNL     1      13.880  13.525   2.932  0.00  0.00    +0.141 C 
ATOM     17  C   UNL     1      13.140  13.265   1.617  0.00  0.00    -0.050 C 
ATOM     18  N   UNL     1      12.331  12.037   1.763  0.00  0.00    +0.385 N 
ATOM     19  H   UNL     1      12.952  11.253   1.992  0.00  0.00    -0.081 HD
ENDBRANCH  12  18
ENDBRANCH   9  12
ENDBRANCH   4   6
ENDBRANCH   1   2
BRANCH   1  20
ATOM     20  S   UNL     1       5.490   5.252   0.514  0.00  0.00    -0.076 S 
BRANCH  20  25
ATOM     21  N   UNL     1       3.577   3.218   0.660  0.00  0.00    -0.259 N 
ATOM     22  C   UNL     1       3.516   1.888   0.977  0.00  0.00    +0.225 A 
ATOM     23  N   UNL     1       4.722   1.494   1.305  0.00  0.00    -0.112 NA
ATOM     24  N   UNL     1       5.584   2.592   1.188  0.00  0.00    -0.120 NA
ATOM     25  C   UNL     1       4.877   3.625   0.801  0.00  0.00    +0.198 A 
ATOM     26  N   UNL     1       2.375   1.096   0.960  0.00  0.00    -0.299 N 
ATOM     27  C   UNL     1       2.441   0.100  -0.117  0.00  0.00    +0.108 C 
ATOM     28  C   UNL     1       1.113  -0.654  -0.199  0.00  0.00    +0.019 C 
ATOM     29  C   UNL     1       0.838  -1.342   1.141  0.00  0.00    +0.003 C 
ATOM     30  C   UNL     1       0.822  -0.288   2.252  0.00  0.00    +0.019 C 
ATOM     31  C   UNL     1       2.159   0.455   2.263  0.00  0.00    +0.108 C 
BRANCH  21  35
ATOM     32  C   UNL     1       0.373   5.608  -0.526  0.00  0.00    +0.000 A 
ATOM     33  C   UNL     1       0.999   5.844   0.684  0.00  0.00    +0.002 A 
ATOM     34  C   UNL     1       2.061   5.054   1.079  0.00  0.00    +0.026 A 
ATOM     35  C   UNL     1       2.499   4.022   0.261  0.00  0.00    +0.052 A 
ATOM     36  C   UNL     1       1.872   3.790  -0.955  0.00  0.00    +0.026 A 
ATOM     37  C   UNL     1       0.807   4.580  -1.343  0.00  0.00    +0.002 A 
ENDBRANCH  21  35
ENDBRANCH  20  25
ENDBRANCH   1  20
TORSDOF 7
