REMARK  Name = ZINC65133066
REMARK  8 active torsions:
REMARK  status: ('A' for Active; 'I' for Inactive)
REMARK    1  A    between atoms: C_1  and  C_2
REMARK    2  A    between atoms: C_2  and  C_3
REMARK    3  A    between atoms: C_2  and  C_4
REMARK    4  A    between atoms: C_4  and  C_5
REMARK    5  A    between atoms: C_5  and  N_6
REMARK    6  A    between atoms: N_9  and  N_10
REMARK    7  A    between atoms: C_11  and  C_13
REMARK    8  A    between atoms: N_16  and  C_19
REMARK                            x       y       z     vdW  Elec       q    Type
REMARK                         _______ _______ _______ _____ _____    ______ ____
ROOT
ATOM      1  N   UNL     1      -5.364  -3.494  -0.108  0.00  0.00    -0.233 N 
ATOM      2  C   UNL     1      -6.633  -3.948  -0.088  0.00  0.00    +0.241 C 
ATOM      3  O   UNL     1      -6.852  -5.138  -0.179  0.00  0.00    -0.273 OA
ATOM      4  H   UNL     1      -5.189  -2.543  -0.035  0.00  0.00    +0.173 HD
ENDROOT
BRANCH   1   8
ATOM      5  N   UNL     1      -2.787  -2.619  -0.153  0.00  0.00    -0.298 N 
ATOM      6  C   UNL     1      -3.030  -3.941  -0.254  0.00  0.00    +0.316 C 
ATOM      7  O   UNL     1      -2.106  -4.723  -0.362  0.00  0.00    -0.251 OA
ATOM      8  N   UNL     1      -4.299  -4.395  -0.234  0.00  0.00    -0.218 N 
ATOM      9  H   UNL     1      -3.524  -1.995  -0.066  0.00  0.00    +0.150 HD
ATOM     10  H   UNL     1      -4.474  -5.346  -0.306  0.00  0.00    +0.174 HD
BRANCH   5  11
ATOM     11  C   UNL     1      -1.407  -2.125  -0.174  0.00  0.00    +0.106 C 
BRANCH  11  12
ATOM     12  C   UNL     1      -1.410  -0.600  -0.045  0.00  0.00    +0.022 C 
BRANCH  12  14
ATOM     13  C   UNL     1       0.024   1.446  -0.064  0.00  0.00    +0.007 C 
ATOM     14  C   UNL     1       0.030  -0.084  -0.067  0.00  0.00    -0.016 C 
ATOM     15  C   UNL     1       0.774  -0.594   1.169  0.00  0.00    +0.007 C 
ENDBRANCH  12  14
ENDBRANCH  11  12
ENDBRANCH   5  11
ENDBRANCH   1   8
BRANCH   2  16
ATOM     16  C   UNL     1      -7.779  -2.979   0.047  0.00  0.00    +0.164 C 
ATOM     17  C   UNL     1      -9.131  -3.723  -0.050  0.00  0.00    +0.041 C 
ATOM     18  C   UNL     1      -9.998  -2.700  -0.817  0.00  0.00    +0.115 C 
ATOM     19  N   UNL     1      -9.053  -1.885  -1.588  0.00  0.00    -0.271 N 
ATOM     20  C   UNL     1      -7.800  -2.018  -1.121  0.00  0.00    +0.232 C 
ATOM     21  O   UNL     1      -6.827  -1.450  -1.571  0.00  0.00    -0.274 OA
BRANCH  19  22
ATOM     22  C   UNL     1      -9.411  -1.073  -2.671  0.00  0.00    +0.039 A 
ATOM     23  C   UNL     1      -8.462  -0.252  -3.267  0.00  0.00    +0.026 A 
ATOM     24  C   UNL     1      -8.816   0.549  -4.336  0.00  0.00    +0.043 A 
ATOM     25  C   UNL     1     -10.115   0.534  -4.813  0.00  0.00    +0.159 A 
ATOM     26  C   UNL     1     -11.064  -0.284  -4.220  0.00  0.00    +0.160 A 
ATOM     27  C   UNL     1     -10.712  -1.092  -3.154  0.00  0.00    +0.064 A 
ATOM     28  F   UNL     1     -12.332  -0.297  -4.688  0.00  0.00    -0.202 F 
ATOM     29  F   UNL     1     -10.459   1.319  -5.858  0.00  0.00    -0.202 F 
ENDBRANCH  19  22
ENDBRANCH   2  16
TORSDOF 6
