REMARK  Name = ZINC13500553
REMARK  16 active torsions:
REMARK  status: ('A' for Active; 'I' for Inactive)
REMARK    1  A    between atoms: C_1  and  C_2
REMARK    2  A    between atoms: C_9  and  C_14
REMARK    3  A    between atoms: C_14  and  N_70
REMARK    4  A    between atoms: C_15  and  C_16
REMARK    5  A    between atoms: C_15  and  N_70
REMARK    6  A    between atoms: C_16  and  C_17
REMARK    7  A    between atoms: C_17  and  O_18
REMARK    8  A    between atoms: C_19  and  C_21
REMARK    9  A    between atoms: C_19  and  C_35
REMARK   10  A    between atoms: C_19  and  N_70
REMARK   11  A    between atoms: N_25  and  C_26
REMARK   12  A    between atoms: C_26  and  C_27
REMARK   13  A    between atoms: C_30  and  O_33
REMARK   14  A    between atoms: O_33  and  C_34
REMARK   15  A    between atoms: C_35  and  C_36
REMARK   16  A    between atoms: C_35  and  C_37
REMARK                            x       y       z     vdW  Elec       q    Type
REMARK                         _______ _______ _______ _____ _____    ______ ____
ROOT
ATOM      1  N   UNL     1      -2.800   5.106   2.036  0.00  0.00    +0.389 N 
ATOM      2  H   UNL     1      -2.798   4.333   1.361  0.00  0.00    -0.080 HD
ENDROOT
BRANCH   1   3
ATOM      3  C   UNL     1      -2.875   4.550   3.404  0.00  0.00    -0.037 C 
BRANCH   3  12
ATOM      4  C   UNL     1       3.743   1.928   5.629  0.00  0.00    +0.044 C 
ATOM      5  C   UNL     1       2.407   1.728   4.961  0.00  0.00    -0.050 A 
ATOM      6  C   UNL     1       2.079   0.484   4.439  0.00  0.00    +0.005 A 
ATOM      7  C   UNL     1       0.863   0.278   3.824  0.00  0.00    +0.026 A 
ATOM      8  C   UNL     1      -0.047   1.326   3.724  0.00  0.00    +0.049 A 
ATOM      9  C   UNL     1       0.290   2.586   4.254  0.00  0.00    -0.001 A 
ATOM     10  C   UNL     1       1.530   2.772   4.874  0.00  0.00    +0.013 A 
ATOM     11  C   UNL     1      -0.671   3.684   4.139  0.00  0.00    +0.017 A 
ATOM     12  C   UNL     1      -1.860   3.443   3.533  0.00  0.00    +0.001 A 
ATOM     13  C   UNL     1      -2.149   2.161   3.018  0.00  0.00    +0.251 A 
ATOM     14  O   UNL     1      -3.221   1.968   2.472  0.00  0.00    -0.268 OA
ATOM     15  N   UNL     1      -1.270   1.148   3.114  0.00  0.00    -0.322 N 
ATOM     16  H   UNL     1      -1.500   0.280   2.749  0.00  0.00    +0.169 HD
ENDBRANCH   3  12
ENDBRANCH   1   3
BRANCH   1  17
ATOM     17  C   UNL     1      -1.555   5.887   1.876  0.00  0.00    -0.075 C 
BRANCH  17  18
ATOM     18  C   UNL     1      -1.323   6.143   0.386  0.00  0.00    +0.009 C 
BRANCH  18  19
ATOM     19  C   UNL     1       0.035   6.819   0.189  0.00  0.00    +0.154 C 
BRANCH  19  20
ATOM     20  O   UNL     1       0.251   7.058  -1.203  0.00  0.00    -0.395 OA
ATOM     21  H   UNL     1       1.095   7.486  -1.403  0.00  0.00    +0.209 HD
ENDBRANCH  19  20
ENDBRANCH  18  19
ENDBRANCH  17  18
ENDBRANCH   1  17
BRANCH   1  22
ATOM     22  C   UNL     1      -3.973   5.967   1.776  0.00  0.00    +0.006 C 
BRANCH  22  23
ATOM     23  C   UNL     1      -4.412   6.653   3.044  0.00  0.00    +0.139 A 
ATOM     24  N   UNL     1      -4.541   6.104   4.227  0.00  0.00    -0.115 NA
ATOM     25  N   UNL     1      -4.934   7.015   5.048  0.00  0.00    -0.023 NA
ATOM     26  N   UNL     1      -5.068   8.130   4.418  0.00  0.00    -0.044 NA
ATOM     27  N   UNL     1      -4.755   7.948   3.180  0.00  0.00    -0.226 N 
BRANCH  27  28
ATOM     28  C   UNL     1      -4.771   8.960   2.120  0.00  0.00    +0.182 C 
BRANCH  28  29
ATOM     29  C   UNL     1      -6.128   8.979   1.465  0.00  0.00    -0.026 A 
ATOM     30  C   UNL     1      -6.378   8.171   0.371  0.00  0.00    +0.009 A 
ATOM     31  C   UNL     1      -7.623   8.183  -0.228  0.00  0.00    +0.046 A 
ATOM     32  C   UNL     1      -8.619   9.015   0.262  0.00  0.00    +0.120 A 
ATOM     33  C   UNL     1      -8.364   9.829   1.356  0.00  0.00    +0.046 A 
ATOM     34  C   UNL     1      -7.120   9.809   1.955  0.00  0.00    +0.009 A 
BRANCH  32  35
ATOM     35  O   UNL     1      -9.843   9.032  -0.329  0.00  0.00    -0.495 OA
ATOM     36  C   UNL     1     -10.034   8.168  -1.450  0.00  0.00    +0.277 C 
ENDBRANCH  32  35
ENDBRANCH  28  29
ENDBRANCH  27  28
ENDBRANCH  22  23
BRANCH  22  37
ATOM     37  C   UNL     1      -5.112   5.093   1.248  0.00  0.00    -0.024 C 
ATOM     38  C   UNL     1      -4.650   4.363  -0.015  0.00  0.00    +0.006 C 
ATOM     39  C   UNL     1      -5.504   4.068   2.314  0.00  0.00    +0.006 C 
ENDBRANCH  22  37
ENDBRANCH   1  22
TORSDOF 12
