REMARK  Name = ZINC16843179
REMARK  7 active torsions:
REMARK  status: ('A' for Active; 'I' for Inactive)
REMARK    1  A    between atoms: C_1  and  C_2
REMARK    2  A    between atoms: C_5  and  N_8
REMARK    3  A    between atoms: C_9  and  C_11
REMARK    4  A    between atoms: C_17  and  S_20
REMARK    5  A    between atoms: S_20  and  C_21
REMARK    6  A    between atoms: C_21  and  C_22
REMARK    7  A    between atoms: N_24  and  C_25
REMARK                            x       y       z     vdW  Elec       q    Type
REMARK                         _______ _______ _______ _____ _____    ______ ____
ROOT
ATOM      1  C   UNL     1      -2.062   4.276  -0.368  0.00  0.00    +0.054 A 
ATOM      2  C   UNL     1      -0.620   4.385  -0.600  0.00  0.00    +0.018 A 
ATOM      3  C   UNL     1      -0.035   5.607  -0.550  0.00  0.00    +0.049 A 
ATOM      4  C   UNL     1      -0.824   6.745  -0.277  0.00  0.00    +0.162 A 
ATOM      5  N   UNL     1      -0.538   8.030  -0.169  0.00  0.00    -0.129 NA
ATOM      6  N   UNL     1      -1.608   8.693   0.094  0.00  0.00    -0.122 NA
ATOM      7  C   UNL     1      -2.639   7.885   0.171  0.00  0.00    +0.196 A 
ATOM      8  N   UNL     1      -2.180   6.618  -0.062  0.00  0.00    -0.277 N 
ATOM      9  C   UNL     1      -2.789   5.402  -0.112  0.00  0.00    +0.108 A 
ENDROOT
BRANCH   1  11
ATOM     10  N   UNL     1      -2.003   1.851  -0.675  0.00  0.00    -0.281 N 
ATOM     11  C   UNL     1      -2.725   2.959  -0.417  0.00  0.00    +0.250 C 
ATOM     12  O   UNL     1      -3.922   2.874  -0.224  0.00  0.00    -0.270 OA
ATOM     13  H   UNL     1      -1.038   1.909  -0.760  0.00  0.00    +0.155 HD
BRANCH  10  18
ATOM     14  C   UNL     1      -4.608  -3.150  -1.296  0.00  0.00    +0.044 C 
ATOM     15  C   UNL     1      -3.916  -1.821  -1.131  0.00  0.00    -0.050 A 
ATOM     16  C   UNL     1      -4.546  -0.660  -1.539  0.00  0.00    +0.005 A 
ATOM     17  C   UNL     1      -3.915   0.559  -1.389  0.00  0.00    +0.023 A 
ATOM     18  C   UNL     1      -2.646   0.618  -0.828  0.00  0.00    +0.034 A 
ATOM     19  C   UNL     1      -2.013  -0.551  -0.424  0.00  0.00    +0.023 A 
ATOM     20  C   UNL     1      -2.653  -1.766  -0.572  0.00  0.00    +0.005 A 
ENDBRANCH  10  18
ENDBRANCH   1  11
BRANCH   7  21
ATOM     21  S   UNL     1      -4.306   8.346   0.511  0.00  0.00    -0.076 S 
BRANCH  21  22
ATOM     22  C   UNL     1      -4.229  10.146   0.718  0.00  0.00    +0.173 C 
BRANCH  22  23
ATOM     23  C   UNL     1      -5.608  10.677   1.017  0.00  0.00    +0.227 C 
ATOM     24  O   UNL     1      -6.549   9.915   1.084  0.00  0.00    -0.275 OA
ATOM     25  N   UNL     1      -5.795  11.997   1.210  0.00  0.00    -0.285 N 
ATOM     26  H   UNL     1      -5.057  12.615   1.083  0.00  0.00    +0.155 HD
BRANCH  25  27
ATOM     27  C   UNL     1      -7.052  12.477   1.593  0.00  0.00    +0.033 A 
ATOM     28  C   UNL     1      -7.479  13.728   1.166  0.00  0.00    +0.024 A 
ATOM     29  C   UNL     1      -8.723  14.197   1.541  0.00  0.00    +0.017 A 
ATOM     30  C   UNL     1      -9.538  13.427   2.351  0.00  0.00    +0.018 A 
ATOM     31  C   UNL     1      -9.113  12.184   2.784  0.00  0.00    +0.017 A 
ATOM     32  C   UNL     1      -7.873  11.707   2.406  0.00  0.00    +0.024 A 
ATOM     33 BR   UNL     1     -11.237  14.076   2.869  0.00  0.00    -0.050 Br
ENDBRANCH  25  27
ENDBRANCH  22  23
ENDBRANCH  21  22
ENDBRANCH   7  21
TORSDOF 6
