REMARK  Name = ZINC63879460
REMARK  4 active torsions:
REMARK  status: ('A' for Active; 'I' for Inactive)
REMARK    1  A    between atoms: C_7  and  C_10
REMARK    2  A    between atoms: C_10  and  C_11
REMARK    3  A    between atoms: N_15  and  C_19
REMARK    4  A    between atoms: C_19  and  C_20
REMARK                            x       y       z     vdW  Elec       q    Type
REMARK                         _______ _______ _______ _____ _____    ______ ____
ROOT
ATOM      1  C   UNL     1       0.457  -3.653  -1.462  0.00  0.00    +0.165 C 
ATOM      2  C   UNL     1      -0.432  -4.881  -1.485  0.00  0.00    +0.244 C 
ATOM      3  O   UNL     1      -0.201  -5.962  -0.985  0.00  0.00    -0.273 OA
ATOM      4  N   UNL     1      -1.531  -4.523  -2.176  0.00  0.00    -0.216 N 
ATOM      5  C   UNL     1      -1.462  -3.252  -2.589  0.00  0.00    +0.310 C 
ATOM      6  O   UNL     1      -2.335  -2.702  -3.231  0.00  0.00    -0.252 OA
ATOM      7  N   UNL     1      -0.315  -2.649  -2.214  0.00  0.00    -0.287 N 
ATOM      8  H   UNL     1      -0.050  -1.735  -2.401  0.00  0.00    +0.151 HD
ENDROOT
BRANCH   1   9
ATOM      9  C   UNL     1       0.691  -3.186  -0.024  0.00  0.00    +0.065 C 
BRANCH   9  16
ATOM     10  C   UNL     1      -0.016   1.348   0.009  0.00  0.00    +0.001 A 
ATOM     11  C   UNL     1       1.166   2.101   0.002  0.00  0.00    +0.002 A 
ATOM     12  C   UNL     1       2.391   1.535  -0.013  0.00  0.00    +0.026 A 
ATOM     13  C   UNL     1       2.529   0.120  -0.022  0.00  0.00    +0.043 A 
ATOM     14  N   UNL     1       3.587  -0.654  -0.037  0.00  0.00    -0.380 N 
ATOM     15  C   UNL     1       3.143  -2.053  -0.041  0.00  0.00    +0.144 C 
ATOM     16  C   UNL     1       1.631  -2.008  -0.025  0.00  0.00    -0.039 C 
ATOM     17  C   UNL     1       1.295  -0.698  -0.014  0.00  0.00    -0.001 A 
ATOM     18  C   UNL     1       0.002  -0.004   0.002  0.00  0.00    +0.010 A 
ATOM     19  H   UNL     1       4.509  -0.353  -0.045  0.00  0.00    +0.160 HD
ENDBRANCH   9  16
ENDBRANCH   1   9
BRANCH   4  20
ATOM     20  C   UNL     1      -2.663  -5.415  -2.444  0.00  0.00    +0.214 C 
BRANCH  20  21
ATOM     21  C   UNL     1      -3.670  -5.296  -1.330  0.00  0.00    +0.238 C 
ATOM     22  O   UNL     1      -3.464  -4.541  -0.403  0.00  0.00    -0.273 OA
ATOM     23  N   UNL     1      -4.801  -6.029  -1.363  0.00  0.00    -0.260 N 
ATOM     24  C   UNL     1      -5.072  -6.956  -2.471  0.00  0.00    +0.209 C 
ATOM     25  C   UNL     1      -6.521  -6.838  -2.867  0.00  0.00    +0.235 C 
ATOM     26  O   UNL     1      -6.850  -7.066  -4.012  0.00  0.00    -0.274 OA
ATOM     27  N   UNL     1      -7.456  -6.484  -1.965  0.00  0.00    -0.283 N 
ATOM     28  C   UNL     1      -7.098  -6.168  -0.650  0.00  0.00    +0.055 A 
ATOM     29  C   UNL     1      -5.754  -5.936  -0.337  0.00  0.00    +0.058 A 
ATOM     30  C   UNL     1      -5.383  -5.621   0.957  0.00  0.00    +0.025 A 
ATOM     31  C   UNL     1      -6.346  -5.542   1.948  0.00  0.00    +0.002 A 
ATOM     32  C   UNL     1      -7.675  -5.776   1.646  0.00  0.00    +0.002 A 
ATOM     33  C   UNL     1      -8.057  -6.084   0.345  0.00  0.00    +0.025 A 
ATOM     34  H   UNL     1      -8.389  -6.447  -2.230  0.00  0.00    +0.155 HD
ENDBRANCH  20  21
ENDBRANCH   4  20
TORSDOF 4
