REMARK  Name = ZINC20007670
REMARK  11 active torsions:
REMARK  status: ('A' for Active; 'I' for Inactive)
REMARK    1  A    between atoms: C_1  and  C_2
REMARK    2  A    between atoms: C_4  and  C_19
REMARK    3  A    between atoms: C_6  and  S_9
REMARK    4  A    between atoms: C_7  and  C_8
REMARK    5  A    between atoms: S_9  and  N_12
REMARK    6  A    between atoms: C_15  and  C_18
REMARK    7  A    between atoms: N_21  and  C_22
REMARK    8  A    between atoms: C_25  and  N_28
REMARK    9  A    between atoms: C_29  and  C_31
REMARK   10  A    between atoms: C_31  and  C_32
REMARK   11  A    between atoms: C_31  and  C_33
REMARK                            x       y       z     vdW  Elec       q    Type
REMARK                         _______ _______ _______ _____ _____    ______ ____
ROOT
ATOM      1  C   UNL     1       5.046   1.910  -3.637  0.00  0.00    +0.044 C 
ATOM      2  C   UNL     1       3.826   2.713  -4.009  0.00  0.00    -0.045 A 
ATOM      3  C   UNL     1       3.442   2.809  -5.330  0.00  0.00    +0.016 A 
ATOM      4  C   UNL     1       2.312   3.554  -5.673  0.00  0.00    +0.039 A 
ATOM      5  C   UNL     1       1.578   4.197  -4.675  0.00  0.00    +0.042 A 
ATOM      6  C   UNL     1       1.973   4.093  -3.357  0.00  0.00    +0.109 A 
ATOM      7  C   UNL     1       3.097   3.357  -3.025  0.00  0.00    -0.021 A 
ATOM      8  C   UNL     1       3.527   3.253  -1.584  0.00  0.00    +0.046 C 
ENDROOT
BRANCH   4   9
ATOM      9  C   UNL     1       1.894   3.661  -7.087  0.00  0.00    +0.248 C 
ATOM     10  O   UNL     1       0.910   4.309  -7.382  0.00  0.00    -0.270 OA
ATOM     11  N   UNL     1       2.605   3.039  -8.048  0.00  0.00    -0.282 N 
ATOM     12  H   UNL     1       3.534   2.510  -7.790  0.00  0.00    +0.155 HD
BRANCH  11  13
ATOM     13  C   UNL     1       2.161   3.066  -9.376  0.00  0.00    +0.034 A 
ATOM     14  C   UNL     1       2.359   1.964 -10.197  0.00  0.00    +0.025 A 
ATOM     15  C   UNL     1       1.915   1.988 -11.504  0.00  0.00    +0.025 A 
ATOM     16  C   UNL     1       1.281   3.119 -12.001  0.00  0.00    +0.034 A 
ATOM     17  C   UNL     1       1.088   4.223 -11.181  0.00  0.00    +0.025 A 
ATOM     18  C   UNL     1       1.526   4.197  -9.873  0.00  0.00    +0.025 A 
BRANCH  16  19
ATOM     19  N   UNL     1       0.836   3.146 -13.329  0.00  0.00    -0.285 N 
ATOM     20  C   UNL     1       0.378   2.019 -13.909  0.00  0.00    +0.220 C 
ATOM     21  O   UNL     1       0.261   1.004 -13.255  0.00  0.00    -0.275 OA
ATOM     22  H   UNL     1       0.860   4.087 -13.898  0.00  0.00    +0.155 HD
BRANCH  20  23
ATOM     23  C   UNL     1       0.010   2.020 -15.370  0.00  0.00    +0.069 C 
ATOM     24  C   UNL     1       1.237   2.393 -16.205  0.00  0.00    +0.017 C 
ATOM     25  C   UNL     1      -0.477   0.627 -15.774  0.00  0.00    +0.017 C 
ENDBRANCH  20  23
ENDBRANCH  16  19
ENDBRANCH  11  13
ENDBRANCH   4   9
BRANCH   6  26
ATOM     26  S   UNL     1       1.049   4.904  -2.095  0.00  0.00    +0.061 S 
ATOM     27  O   UNL     1      -0.009   5.594  -2.747  0.00  0.00    -0.153 OA
ATOM     28  O   UNL     1       1.991   5.566  -1.263  0.00  0.00    -0.153 OA
BRANCH  26  29
ATOM     29  N   UNL     1       0.345   3.725  -1.169  0.00  0.00    -0.177 NA
ATOM     30  C   UNL     1       1.017   3.220   0.036  0.00  0.00    +0.110 C 
ATOM     31  C   UNL     1       1.117   1.694  -0.058  0.00  0.00    +0.020 C 
ATOM     32  C   UNL     1      -0.278   1.109  -0.292  0.00  0.00    -0.012 C 
ATOM     33  C   UNL     1      -0.840   1.639  -1.613  0.00  0.00    +0.020 C 
ATOM     34  C   UNL     1      -0.962   3.164  -1.537  0.00  0.00    +0.110 C 
ATOM     35  C   UNL     1      -0.188  -0.417  -0.352  0.00  0.00    +0.007 C 
ENDBRANCH  26  29
ENDBRANCH   6  26
TORSDOF 6
