REMARK  Name = ZINC40325374
REMARK  4 active torsions:
REMARK  status: ('A' for Active; 'I' for Inactive)
REMARK    1  A    between atoms: C_1  and  N_2
REMARK    2  A    between atoms: C_3  and  C_5
REMARK    3  A    between atoms: C_12  and  C_14
REMARK    4  A    between atoms: C_16  and  N_20
REMARK                            x       y       z     vdW  Elec       q    Type
REMARK                         _______ _______ _______ _____ _____    ______ ____
ROOT
ATOM      1  C   UNL     1       0.928  -2.221  -0.746  0.00  0.00    +0.162 C 
ATOM      2  C   UNL     1      -0.219  -3.237  -0.772  0.00  0.00    +0.032 C 
ATOM      3  C   UNL     1       0.343  -4.641  -0.537  0.00  0.00    +0.004 C 
ATOM      4  C   UNL     1       1.326  -4.993  -1.656  0.00  0.00    +0.019 C 
ATOM      5  C   UNL     1       2.490  -3.997  -1.640  0.00  0.00    +0.109 C 
ATOM      6  N   UNL     1       1.950  -2.632  -1.718  0.00  0.00    -0.285 N 
ATOM      7  C   UNL     1       2.381  -1.776  -2.665  0.00  0.00    +0.264 C 
ATOM      8  O   UNL     1       2.034  -0.609  -2.634  0.00  0.00    -0.268 OA
ENDROOT
BRANCH   7   9
ATOM      9  C   UNL     1       3.267  -2.249  -3.733  0.00  0.00    +0.104 A 
ATOM     10  C   UNL     1       4.210  -1.496  -4.402  0.00  0.00    +0.055 A 
ATOM     11  C   UNL     1       4.826  -2.341  -5.336  0.00  0.00    +0.043 A 
ATOM     12  C   UNL     1       4.258  -3.570  -5.221  0.00  0.00    +0.106 A 
ATOM     13  N   UNL     1       3.312  -3.525  -4.245  0.00  0.00    -0.355 N 
ATOM     14  H   UNL     1       2.760  -4.269  -3.959  0.00  0.00    +0.166 HD
BRANCH  11  15
ATOM     15  N   UNL     1       5.849  -1.980  -6.232  0.00  0.00    -0.357 N 
ATOM     16  H   UNL     1       6.191  -1.072  -6.238  0.00  0.00    +0.142 HD
ATOM     17  H   UNL     1       6.214  -2.640  -6.843  0.00  0.00    +0.142 HD
ENDBRANCH  11  15
ENDBRANCH   7   9
BRANCH   1  20
ATOM     18  C   UNL     1       0.071   1.508  -0.626  0.00  0.00    +0.128 C 
ATOM     19  N   UNL     1       0.582   0.182  -0.271  0.00  0.00    -0.317 N 
ATOM     20  C   UNL     1       0.403  -0.857  -1.111  0.00  0.00    +0.233 C 
ATOM     21  O   UNL     1      -0.181  -0.693  -2.162  0.00  0.00    -0.274 OA
ATOM     22  H   UNL     1       1.049   0.051   0.569  0.00  0.00    +0.148 HD
ENDBRANCH   1  20
TORSDOF 3
