REMARK  Name = ZINC08920427
REMARK  10 active torsions:
REMARK  status: ('A' for Active; 'I' for Inactive)
REMARK    1  A    between atoms: C_1  and  C_2
REMARK    2  A    between atoms: C_5  and  C_35
REMARK    3  A    between atoms: C_6  and  N_8
REMARK    4  A    between atoms: C_9  and  C_11
REMARK    5  A    between atoms: C_11  and  C_13
REMARK    6  A    between atoms: C_11  and  N_14
REMARK    7  A    between atoms: C_21  and  C_34
REMARK    8  A    between atoms: C_22  and  C_24
REMARK    9  A    between atoms: N_26  and  C_27
REMARK   10  A    between atoms: C_32  and  C_33
REMARK                            x       y       z     vdW  Elec       q    Type
REMARK                         _______ _______ _______ _____ _____    ______ ____
ROOT
ATOM      1  N   UNL     1       0.948   4.192   0.049  0.00  0.00    -0.287 N 
ATOM      2  C   UNL     1      -0.337   3.760   0.083  0.00  0.00    +0.204 A 
ATOM      3  N   UNL     1      -0.637   2.490   0.112  0.00  0.00    -0.230 NA
ATOM      4  C   UNL     1       0.302   1.552   0.101  0.00  0.00    +0.116 A 
ATOM      5  C   UNL     1       1.678   1.876   0.067  0.00  0.00    +0.076 A 
ATOM      6  C   UNL     1       1.979   3.325   0.040  0.00  0.00    +0.263 A 
ATOM      7  O   UNL     1       3.130   3.724   0.010  0.00  0.00    -0.267 OA
ATOM      8  C   UNL     1       2.558   0.791   0.064  0.00  0.00    -0.017 A 
ATOM      9  C   UNL     1       2.067  -0.482   0.092  0.00  0.00    +0.080 A 
ATOM     10  S   UNL     1       0.301  -0.223   0.126  0.00  0.00    -0.064 S 
ATOM     11  C   UNL     1       4.046   1.026   0.028  0.00  0.00    +0.046 C 
ENDROOT
BRANCH   9  12
ATOM     12  C   UNL     1       2.806  -1.748   0.094  0.00  0.00    +0.255 C 
ATOM     13  O   UNL     1       4.023  -1.742   0.068  0.00  0.00    -0.269 OA
ATOM     14  N   UNL     1       2.138  -2.918   0.124  0.00  0.00    -0.281 N 
ATOM     15  H   UNL     1       1.173  -2.923   0.227  0.00  0.00    +0.155 HD
BRANCH  14  16
ATOM     16  C   UNL     1       2.835  -4.124   0.009  0.00  0.00    +0.037 A 
ATOM     17  C   UNL     1       4.068  -4.157  -0.631  0.00  0.00    +0.023 A 
ATOM     18  C   UNL     1       4.756  -5.349  -0.740  0.00  0.00    +0.002 A 
ATOM     19  C   UNL     1       4.215  -6.511  -0.220  0.00  0.00    +0.000 A 
ATOM     20  C   UNL     1       2.987  -6.483   0.413  0.00  0.00    +0.005 A 
ATOM     21  C   UNL     1       2.295  -5.293   0.529  0.00  0.00    -0.029 A 
ATOM     22  C   UNL     1       0.955  -5.263   1.218  0.00  0.00    +0.045 C 
ENDBRANCH  14  16
ENDBRANCH   9  12
BRANCH   1  23
ATOM     23  C   UNL     1       1.220   5.631   0.022  0.00  0.00    +0.174 C 
ATOM     24  C   UNL     1       0.633   6.285   1.275  0.00  0.00    +0.041 C 
BRANCH  23  26
ATOM     25  N   UNL     1       0.709   7.560  -1.439  0.00  0.00    -0.284 N 
ATOM     26  C   UNL     1       0.589   6.239  -1.204  0.00  0.00    +0.240 C 
ATOM     27  O   UNL     1      -0.028   5.539  -1.979  0.00  0.00    -0.273 OA
ATOM     28  H   UNL     1       1.259   8.108  -0.858  0.00  0.00    +0.155 HD
BRANCH  25  34
ATOM     29  C   UNL     1      -0.957   7.235  -6.053  0.00  0.00    +0.044 C 
ATOM     30  C   UNL     1      -0.781   8.007  -4.771  0.00  0.00    -0.049 A 
ATOM     31  C   UNL     1      -1.281   9.292  -4.664  0.00  0.00    +0.004 A 
ATOM     32  C   UNL     1      -1.121  10.003  -3.489  0.00  0.00    +0.005 A 
ATOM     33  C   UNL     1      -0.467   9.430  -2.416  0.00  0.00    -0.029 A 
ATOM     34  C   UNL     1       0.041   8.142  -2.522  0.00  0.00    +0.037 A 
ATOM     35  C   UNL     1      -0.121   7.430  -3.704  0.00  0.00    +0.027 A 
ATOM     36  C   UNL     1      -0.299  10.204  -1.134  0.00  0.00    +0.045 C 
ENDBRANCH  25  34
ENDBRANCH  23  26
ENDBRANCH   1  23
TORSDOF 5
