REMARK  Name = ZINC39561620
REMARK  6 active torsions:
REMARK  status: ('A' for Active; 'I' for Inactive)
REMARK    1  A    between atoms: C_6  and  C_7
REMARK    2  A    between atoms: C_12  and  O_16
REMARK    3  A    between atoms: O_16  and  C_17
REMARK    4  A    between atoms: C_17  and  C_18
REMARK    5  A    between atoms: N_20  and  C_21
REMARK    6  A    between atoms: C_23  and  N_28
REMARK                            x       y       z     vdW  Elec       q    Type
REMARK                         _______ _______ _______ _____ _____    ______ ____
ROOT
ATOM      1  C   UNL     1      -1.278  -0.753  -0.003  0.00  0.00    +0.003 A 
ATOM      2  C   UNL     1      -2.249  -0.463   0.894  0.00  0.00    +0.056 A 
ATOM      3  S   UNL     1      -3.547  -1.617   0.492  0.00  0.00    -0.076 S 
ATOM      4  C   UNL     1      -2.767  -2.457  -0.861  0.00  0.00    +0.116 A 
ATOM      5  C   UNL     1      -1.514  -1.817  -0.974  0.00  0.00    +0.077 A 
ATOM      6  C   UNL     1      -0.672  -2.303  -2.006  0.00  0.00    +0.227 A 
ATOM      7  N   UNL     1      -1.099  -3.288  -2.777  0.00  0.00    -0.201 NA
ATOM      8  C   UNL     1      -2.288  -3.840  -2.619  0.00  0.00    +0.226 A 
ATOM      9  N   UNL     1      -3.111  -3.439  -1.670  0.00  0.00    -0.228 NA
ENDROOT
BRANCH   1  15
ATOM     10  C   UNL     1      -0.012   1.395   0.010  0.00  0.00    +0.010 A 
ATOM     11  C   UNL     1       1.179   2.091   0.010  0.00  0.00    +0.020 A 
ATOM     12  C   UNL     1       2.383   1.408  -0.004  0.00  0.00    +0.041 A 
ATOM     13  C   UNL     1       2.399   0.023  -0.017  0.00  0.00    +0.020 A 
ATOM     14  C   UNL     1       1.213  -0.683  -0.017  0.00  0.00    +0.010 A 
ATOM     15  C   UNL     1      -0.002   0.001  -0.004  0.00  0.00    -0.016 A 
ATOM     16 CL   UNL     1       3.878   2.290  -0.004  0.00  0.00    -0.084 Cl
ENDBRANCH   1  15
BRANCH   6  17
ATOM     17  O   UNL     1       0.554  -1.762  -2.201  0.00  0.00    -0.466 OA
BRANCH  17  18
ATOM     18  C   UNL     1       1.342  -2.307  -3.261  0.00  0.00    +0.326 C 
BRANCH  18  19
ATOM     19  C   UNL     1       2.664  -1.587  -3.326  0.00  0.00    +0.255 C 
ATOM     20  O   UNL     1       2.908  -0.695  -2.541  0.00  0.00    -0.272 OA
ATOM     21  N   UNL     1       3.576  -1.934  -4.256  0.00  0.00    -0.280 N 
ATOM     22  H   UNL     1       3.416  -2.698  -4.831  0.00  0.00    +0.155 HD
BRANCH  21  23
ATOM     23  C   UNL     1       4.755  -1.190  -4.392  0.00  0.00    +0.071 A 
ATOM     24  C   UNL     1       4.792   0.137  -3.988  0.00  0.00    +0.059 A 
ATOM     25  C   UNL     1       5.956   0.868  -4.123  0.00  0.00    +0.128 A 
ATOM     26  C   UNL     1       7.086   0.279  -4.660  0.00  0.00    +0.035 A 
ATOM     27  C   UNL     1       7.055  -1.043  -5.064  0.00  0.00    +0.042 A 
ATOM     28  C   UNL     1       5.894  -1.782  -4.927  0.00  0.00    +0.145 A 
ATOM     29  F   UNL     1       5.865  -3.075  -5.316  0.00  0.00    -0.204 F 
BRANCH  25  30
ATOM     30  N   UNL     1       5.994   2.283  -3.692  0.00  0.00    +0.056 N 
ATOM     31  O   UNL     1       5.007   2.799  -3.223  0.00  0.00    -0.126 OA
ATOM     32  O   UNL     1       7.013   2.924  -3.810  0.00  0.00    -0.126 OA
ENDBRANCH  25  30
ENDBRANCH  21  23
ENDBRANCH  18  19
ENDBRANCH  17  18
ENDBRANCH   6  17
TORSDOF 6
