REMARK  Name = ZINC42432264
REMARK  5 active torsions:
REMARK  status: ('A' for Active; 'I' for Inactive)
REMARK    1  A    between atoms: C_3  and  N_11
REMARK    2  A    between atoms: C_6  and  C_7
REMARK    3  A    between atoms: N_8  and  O_9
REMARK    4  A    between atoms: C_16  and  C_18
REMARK    5  A    between atoms: C_18  and  O_19
REMARK                            x       y       z     vdW  Elec       q    Type
REMARK                         _______ _______ _______ _____ _____    ______ ____
ROOT
ATOM      1  C   UNL     1       0.456   0.399   0.900  0.00  0.00    +0.016 A 
ATOM      2  C   UNL     1       1.663   1.060   1.015  0.00  0.00    +0.044 A 
ATOM      3  C   UNL     1       2.441   1.256  -0.123  0.00  0.00    +0.122 A 
ATOM      4  N   UNL     1       2.038   0.818  -1.307  0.00  0.00    -0.240 NA
ATOM      5  C   UNL     1       0.894   0.183  -1.459  0.00  0.00    +0.124 A 
ATOM      6  C   UNL     1       0.061  -0.051  -0.367  0.00  0.00    +0.036 A 
ENDROOT
BRANCH   3   7
ATOM      7  N   UNL     1       3.655   1.919  -0.015  0.00  0.00    -0.310 N 
ATOM      8  C   UNL     1       4.909   1.167   0.134  0.00  0.00    +0.107 C 
ATOM      9  C   UNL     1       5.889   1.623  -0.951  0.00  0.00    +0.019 C 
ATOM     10  C   UNL     1       6.055   3.143  -0.877  0.00  0.00    +0.003 C 
ATOM     11  C   UNL     1       4.706   3.818  -1.131  0.00  0.00    +0.025 C 
ATOM     12  C   UNL     1       3.712   3.387  -0.055  0.00  0.00    +0.100 C 
BRANCH  12  13
ATOM     13  C   UNL     1       2.327   3.945  -0.385  0.00  0.00    +0.178 C 
BRANCH  13  14
ATOM     14  O   UNL     1       1.960   3.557  -1.710  0.00  0.00    -0.393 OA
ATOM     15  H   UNL     1       1.091   3.877  -1.987  0.00  0.00    +0.209 HD
ENDBRANCH  13  14
ENDBRANCH  12  13
ENDBRANCH   3   7
BRANCH   6  16
ATOM     16  C   UNL     1      -1.223  -0.765  -0.542  0.00  0.00    +0.164 C 
ATOM     17  N   UNL     1      -2.206  -0.547   0.282  0.00  0.00    -0.071 NA
ATOM     18  N   UNL     1      -1.378  -1.665  -1.583  0.00  0.00    -0.340 N 
ATOM     19  H   UNL     1      -0.645  -1.827  -2.197  0.00  0.00    +0.144 HD
ATOM     20  H   UNL     1      -2.220  -2.133  -1.698  0.00  0.00    +0.144 HD
BRANCH  17  21
ATOM     21  O   UNL     1      -2.096   0.467   1.264  0.00  0.00    -0.408 OA
ATOM     22  H   UNL     1      -2.876   0.554   1.829  0.00  0.00    +0.328 HD
ENDBRANCH  17  21
ENDBRANCH   6  16
TORSDOF 5
