REMARK  Name = ZINC39781064
REMARK  9 active torsions:
REMARK  status: ('A' for Active; 'I' for Inactive)
REMARK    1  A    between atoms: C_1  and  O_2
REMARK    2  A    between atoms: O_2  and  C_3
REMARK    3  A    between atoms: C_3  and  C_4
REMARK    4  A    between atoms: C_4  and  N_5
REMARK    5  A    between atoms: C_6  and  C_8
REMARK    6  A    between atoms: C_10  and  N_19
REMARK    7  A    between atoms: C_20  and  C_22
REMARK    8  A    between atoms: C_22  and  O_23
REMARK    9  A    between atoms: O_23  and  C_24
REMARK                            x       y       z     vdW  Elec       q    Type
REMARK                         _______ _______ _______ _____ _____    ______ ____
ROOT
ATOM      1  N   UNL     1      -1.314  -2.941   3.693  0.00  0.00    -0.299 N 
ATOM      2  C   UNL     1      -2.555  -2.990   4.217  0.00  0.00    +0.252 C 
ATOM      3  O   UNL     1      -2.891  -3.939   4.893  0.00  0.00    -0.272 OA
ATOM      4  H   UNL     1      -1.045  -2.182   3.152  0.00  0.00    +0.150 HD
ENDROOT
BRANCH   1   6
ATOM      5  C   UNL     1       0.636  -4.191   2.776  0.00  0.00    +0.132 C 
ATOM      6  C   UNL     1      -0.371  -4.035   3.940  0.00  0.00    +0.151 C 
ATOM      7  S   UNL     1      -1.194  -5.679   3.822  0.00  0.00    -0.106 S 
ATOM      8  C   UNL     1       0.093  -6.550   2.959  0.00  0.00    -0.013 C 
ATOM      9  C   UNL     1       0.941  -5.642   2.499  0.00  0.00    -0.046 C 
ATOM     10  C   UNL     1       2.184  -6.057   1.713  0.00  0.00    +0.032 C 
ATOM     11  C   UNL     1       2.471  -7.535   1.973  0.00  0.00    +0.005 C 
ATOM     12  C   UNL     1       1.206  -8.356   1.703  0.00  0.00    +0.005 C 
ATOM     13  C   UNL     1       0.186  -8.041   2.795  0.00  0.00    +0.042 C 
BRANCH   5  15
ATOM     14  N   UNL     1       0.342  -2.286   1.225  0.00  0.00    -0.313 N 
ATOM     15  C   UNL     1       0.053  -3.566   1.534  0.00  0.00    +0.223 C 
ATOM     16  O   UNL     1      -0.676  -4.214   0.814  0.00  0.00    -0.275 OA
ATOM     17  H   UNL     1       0.866  -1.746   1.837  0.00  0.00    +0.149 HD
BRANCH  14  18
ATOM     18  C   UNL     1      -0.133  -1.712  -0.036  0.00  0.00    +0.132 C 
BRANCH  18  19
ATOM     19  C   UNL     1       0.329  -0.257  -0.140  0.00  0.00    +0.178 C 
BRANCH  19  21
ATOM     20  C   UNL     1       2.293   1.105  -0.321  0.00  0.00    +0.194 C 
ATOM     21  O   UNL     1       1.755  -0.215  -0.220  0.00  0.00    -0.381 OA
ENDBRANCH  19  21
ENDBRANCH  18  19
ENDBRANCH  14  18
ENDBRANCH   5  15
ENDBRANCH   1   6
BRANCH   2  22
ATOM     22  C   UNL     1      -3.525  -1.864   3.963  0.00  0.00    +0.324 C 
BRANCH  22  23
ATOM     23  O   UNL     1      -4.763  -2.145   4.618  0.00  0.00    -0.483 OA
BRANCH  23  24
ATOM     24  C   UNL     1      -5.753  -1.223   4.488  0.00  0.00    +0.120 C 
ATOM     25  C   UNL     1      -5.513  -0.119   3.755  0.00  0.00    +0.047 C 
ATOM     26  C   UNL     1      -6.556   0.941   3.678  0.00  0.00    +0.137 C 
ATOM     27  C   UNL     1      -7.918   0.332   3.932  0.00  0.00    -0.012 C 
ATOM     28  C   UNL     1      -8.755   0.948   3.032  0.00  0.00    +0.003 A 
ATOM     29  C   UNL     1     -10.158   0.905   2.869  0.00  0.00    +0.010 A 
ATOM     30  C   UNL     1     -10.681   1.633   1.839  0.00  0.00    +0.001 A 
ATOM     31  C   UNL     1      -9.904   2.396   0.970  0.00  0.00    +0.002 A 
ATOM     32  C   UNL     1      -8.549   2.496   1.064  0.00  0.00    +0.026 A 
ATOM     33  C   UNL     1      -7.923   1.774   2.116  0.00  0.00    +0.044 A 
ATOM     34  N   UNL     1      -6.665   1.700   2.449  0.00  0.00    -0.374 N 
ATOM     35  C   UNL     1      -8.110  -0.750   4.787  0.00  0.00    +0.010 C 
ATOM     36  C   UNL     1      -6.993  -1.468   5.124  0.00  0.00    +0.046 C 
ATOM     37  H   UNL     1      -5.928   2.093   1.955  0.00  0.00    +0.161 HD
ENDBRANCH  23  24
ENDBRANCH  22  23
ENDBRANCH   2  22
TORSDOF 8
