REMARK  Name = ZINC11088239
REMARK  12 active torsions:
REMARK  status: ('A' for Active; 'I' for Inactive)
REMARK    1  A    between atoms: C_1  and  C_2
REMARK    2  A    between atoms: C_2  and  C_4
REMARK    3  A    between atoms: C_2  and  O_16
REMARK    4  A    between atoms: N_9  and  C_10
REMARK    5  A    between atoms: O_16  and  C_17
REMARK    6  A    between atoms: C_17  and  C_19
REMARK    7  A    between atoms: C_22  and  N_25
REMARK    8  A    between atoms: C_26  and  O_28
REMARK    9  A    between atoms: O_28  and  C_29
REMARK   10  A    between atoms: C_29  and  C_30
REMARK   11  A    between atoms: C_29  and  C_31
REMARK   12  A    between atoms: C_29  and  C_32
REMARK                            x       y       z     vdW  Elec       q    Type
REMARK                         _______ _______ _______ _____ _____    ______ ____
ROOT
ATOM      1  O   UNL     1      -4.969   4.475   0.387  0.00  0.00    -0.449 OA
ENDROOT
BRANCH   1   3
ATOM      2  C   UNL     1      -6.513   5.282  -1.315  0.00  0.00    +0.062 C 
ATOM      3  C   UNL     1      -6.239   5.148   0.185  0.00  0.00    +0.259 C 
BRANCH   3   4
ATOM      4  C   UNL     1      -6.187   6.518   0.810  0.00  0.00    +0.261 C 
ATOM      5  O   UNL     1      -5.151   6.926   1.290  0.00  0.00    -0.271 OA
ATOM      6  N   UNL     1      -7.291   7.290   0.835  0.00  0.00    -0.237 N 
ATOM      7  C   UNL     1      -7.244   8.515   1.394  0.00  0.00    +0.310 C 
ATOM      8  O   UNL     1      -6.206   8.924   1.876  0.00  0.00    -0.252 OA
ATOM      9  N   UNL     1      -8.349   9.287   1.419  0.00  0.00    -0.269 N 
ATOM     10  H   UNL     1      -8.120   6.964   0.451  0.00  0.00    +0.159 HD
ATOM     11  H   UNL     1      -9.195   8.934   1.103  0.00  0.00    +0.156 HD
BRANCH   9  12
ATOM     12  C   UNL     1      -8.275  10.599   1.902  0.00  0.00    +0.035 A 
ATOM     13  C   UNL     1      -9.358  11.157   2.568  0.00  0.00    +0.023 A 
ATOM     14  C   UNL     1      -9.280  12.450   3.047  0.00  0.00    +0.002 A 
ATOM     15  C   UNL     1      -8.129  13.192   2.855  0.00  0.00    +0.000 A 
ATOM     16  C   UNL     1      -7.051  12.641   2.187  0.00  0.00    +0.002 A 
ATOM     17  C   UNL     1      -7.121  11.347   1.710  0.00  0.00    +0.023 A 
ENDBRANCH   9  12
ENDBRANCH   3   4
ENDBRANCH   1   3
BRANCH   1  18
ATOM     18  C   UNL     1      -4.996   3.131   0.480  0.00  0.00    +0.340 C 
ATOM     19  O   UNL     1      -6.053   2.537   0.395  0.00  0.00    -0.245 OA
BRANCH  18  20
ATOM     20  C   UNL     1      -3.744   2.380   0.685  0.00  0.00    +0.059 A 
ATOM     21  C   UNL     1      -3.771   0.985   0.782  0.00  0.00    +0.017 A 
ATOM     22  C   UNL     1      -2.600   0.288   0.974  0.00  0.00    +0.024 A 
ATOM     23  C   UNL     1      -1.391   0.969   1.072  0.00  0.00    +0.036 A 
ATOM     24  C   UNL     1      -1.361   2.357   0.982  0.00  0.00    +0.024 A 
ATOM     25  C   UNL     1      -2.527   3.061   0.784  0.00  0.00    +0.017 A 
BRANCH  23  26
ATOM     26  N   UNL     1      -0.206   0.259   1.266  0.00  0.00    -0.251 N 
ATOM     27  C   UNL     1       0.768   0.773   2.043  0.00  0.00    +0.405 C 
ATOM     28  O   UNL     1       0.648   1.889   2.509  0.00  0.00    -0.226 OA
ATOM     29  H   UNL     1      -0.082  -0.603   0.840  0.00  0.00    +0.158 HD
BRANCH  27  30
ATOM     30  O   UNL     1       1.874   0.051   2.302  0.00  0.00    -0.444 OA
BRANCH  30  31
ATOM     31  C   UNL     1       2.882   0.668   3.146  0.00  0.00    +0.107 C 
ATOM     32  C   UNL     1       2.274   0.993   4.512  0.00  0.00    +0.055 C 
ATOM     33  C   UNL     1       4.056  -0.296   3.326  0.00  0.00    +0.055 C 
ATOM     34  C   UNL     1       3.377   1.958   2.488  0.00  0.00    +0.055 C 
ENDBRANCH  30  31
ENDBRANCH  27  30
ENDBRANCH  23  26
ENDBRANCH  18  20
ENDBRANCH   1  18
TORSDOF 8
