REMARK  Name = ZINC39970785
REMARK  11 active torsions:
REMARK  status: ('A' for Active; 'I' for Inactive)
REMARK    1  A    between atoms: C_1  and  C_2
REMARK    2  A    between atoms: C_6  and  C_8
REMARK    3  A    between atoms: C_10  and  C_13
REMARK    4  A    between atoms: C_13  and  N_14
REMARK    5  A    between atoms: N_14  and  C_15
REMARK    6  A    between atoms: C_15  and  N_17
REMARK    7  A    between atoms: N_17  and  C_18
REMARK    8  A    between atoms: C_21  and  S_24
REMARK    9  A    between atoms: S_24  and  N_27
REMARK   10  A    between atoms: C_28  and  C_36
REMARK   11  A    between atoms: C_33  and  C_35
REMARK                            x       y       z     vdW  Elec       q    Type
REMARK                         _______ _______ _______ _____ _____    ______ ____
ROOT
ATOM      1  N   UNL     1      -3.041  -8.152   4.525  0.00  0.00    -0.297 N 
ATOM      2  H   UNL     1      -3.717  -7.539   4.853  0.00  0.00    +0.154 HD
ENDROOT
BRANCH   1   3
ATOM      3  C   UNL     1      -3.279  -9.530   4.544  0.00  0.00    +0.033 A 
ATOM      4  C   UNL     1      -2.305 -10.398   5.022  0.00  0.00    +0.025 A 
ATOM      5  C   UNL     1      -2.544 -11.758   5.039  0.00  0.00    +0.030 A 
ATOM      6  C   UNL     1      -3.750 -12.257   4.582  0.00  0.00    +0.106 A 
ATOM      7  C   UNL     1      -4.721 -11.395   4.106  0.00  0.00    +0.030 A 
ATOM      8  C   UNL     1      -4.492 -10.034   4.091  0.00  0.00    +0.025 A 
BRANCH   6   9
ATOM      9  S   UNL     1      -4.049 -13.993   4.606  0.00  0.00    +0.061 S 
ATOM     10  O   UNL     1      -5.171 -14.223   3.764  0.00  0.00    -0.153 OA
ATOM     11  O   UNL     1      -2.794 -14.624   4.392  0.00  0.00    -0.153 OA
BRANCH   9  12
ATOM     12  N   UNL     1      -4.522 -14.388   6.143  0.00  0.00    -0.171 NA
ATOM     13  C   UNL     1      -5.933 -14.283   6.542  0.00  0.00    +0.077 C 
ATOM     14  C   UNL     1      -6.380 -15.625   7.128  0.00  0.00    +0.020 C 
ATOM     15  C   UNL     1      -5.434 -16.023   8.262  0.00  0.00    +0.003 C 
ATOM     16  C   UNL     1      -4.015 -16.186   7.712  0.00  0.00    +0.020 C 
ATOM     17  C   UNL     1      -3.541 -14.855   7.131  0.00  0.00    +0.077 C 
ATOM     18  C   UNL     1      -3.416 -13.825   8.256  0.00  0.00    +0.026 C 
ATOM     19  C   UNL     1      -6.788 -13.942   5.320  0.00  0.00    +0.026 C 
ENDBRANCH   9  12
ENDBRANCH   6   9
ENDBRANCH   1   3
BRANCH   1  20
ATOM     20  C   UNL     1      -1.873  -7.676   4.051  0.00  0.00    +0.135 C 
ATOM     21  S   UNL     1      -0.643  -8.761   3.559  0.00  0.00    -0.019 S 
BRANCH  20  22
ATOM     22  N   UNL     1      -1.672  -6.346   3.965  0.00  0.00    -0.321 N 
ATOM     23  H   UNL     1      -2.368  -5.732   4.244  0.00  0.00    +0.148 HD
BRANCH  22  24
ATOM     24  C   UNL     1      -0.401  -5.829   3.450  0.00  0.00    +0.159 C 
BRANCH  24  27
ATOM     25  C   UNL     1      -1.003  -2.347   2.429  0.00  0.00    +0.109 A 
ATOM     26  N   UNL     1      -0.962  -3.672   2.448  0.00  0.00    -0.242 NA
ATOM     27  C   UNL     1      -0.433  -4.323   3.457  0.00  0.00    +0.066 A 
ATOM     28  C   UNL     1       0.087  -3.635   4.508  0.00  0.00    +0.072 A 
ATOM     29  S   UNL     1      -0.212  -1.952   3.982  0.00  0.00    -0.075 S 
BRANCH  25  35
ATOM     30  C   UNL     1      -1.930   2.277   0.798  0.00  0.00    +0.044 C 
ATOM     31  C   UNL     1      -1.998   0.784   0.609  0.00  0.00    -0.050 A 
ATOM     32  C   UNL     1      -2.575   0.259  -0.535  0.00  0.00    +0.003 A 
ATOM     33  C   UNL     1      -2.642  -1.111  -0.717  0.00  0.00    +0.001 A 
ATOM     34  C   UNL     1      -2.133  -1.962   0.242  0.00  0.00    +0.010 A 
ATOM     35  C   UNL     1      -1.550  -1.440   1.397  0.00  0.00    +0.007 A 
ATOM     36  C   UNL     1      -1.481  -0.057   1.572  0.00  0.00    +0.014 A 
ENDBRANCH  25  35
ENDBRANCH  24  27
ENDBRANCH  22  24
ENDBRANCH  20  22
ENDBRANCH   1  20
TORSDOF 8
