REMARK  Name = ZINC22341690
REMARK  9 active torsions:
REMARK  status: ('A' for Active; 'I' for Inactive)
REMARK    1  A    between atoms: C_1  and  C_2
REMARK    2  A    between atoms: C_2  and  C_3
REMARK    3  A    between atoms: C_6  and  N_8
REMARK    4  A    between atoms: N_8  and  S_9
REMARK    5  A    between atoms: S_9  and  C_12
REMARK    6  A    between atoms: C_15  and  N_18
REMARK    7  A    between atoms: C_19  and  C_21
REMARK    8  A    between atoms: C_23  and  C_28
REMARK    9  A    between atoms: C_25  and  C_27
REMARK                            x       y       z     vdW  Elec       q    Type
REMARK                         _______ _______ _______ _____ _____    ______ ____
ROOT
ATOM      1  C   UNL     1      -6.740  -1.030   3.268  0.00  0.00    +0.111 A 
ATOM      2  C   UNL     1      -5.765  -1.773   3.908  0.00  0.00    +0.031 A 
ATOM      3  C   UNL     1      -5.658  -1.735   5.284  0.00  0.00    +0.025 A 
ATOM      4  C   UNL     1      -6.538  -0.958   6.026  0.00  0.00    +0.034 A 
ATOM      5  C   UNL     1      -7.520  -0.217   5.381  0.00  0.00    +0.025 A 
ATOM      6  C   UNL     1      -7.618  -0.255   4.004  0.00  0.00    +0.031 A 
ENDROOT
BRANCH   4   7
ATOM      7  N   UNL     1      -6.437  -0.922   7.421  0.00  0.00    -0.282 N 
ATOM      8  C   UNL     1      -5.230  -1.024   8.011  0.00  0.00    +0.248 C 
ATOM      9  O   UNL     1      -4.221  -1.050   7.333  0.00  0.00    -0.270 OA
ATOM     10  H   UNL     1      -7.342  -0.811   8.035  0.00  0.00    +0.155 HD
BRANCH   8  11
ATOM     11  C   UNL     1      -5.132  -1.103   9.484  0.00  0.00    +0.038 A 
ATOM     12  C   UNL     1      -6.287  -1.068  10.266  0.00  0.00    +0.016 A 
ATOM     13  C   UNL     1      -6.189  -1.148  11.640  0.00  0.00    -0.049 A 
ATOM     14  C   UNL     1      -4.948  -1.252  12.243  0.00  0.00    +0.006 A 
ATOM     15  C   UNL     1      -3.799  -1.282  11.474  0.00  0.00    -0.049 A 
ATOM     16  C   UNL     1      -3.883  -1.208  10.099  0.00  0.00    +0.016 A 
ATOM     17  C   UNL     1      -2.451  -1.396  12.140  0.00  0.00    +0.044 C 
ATOM     18  C   UNL     1      -7.436  -1.117  12.486  0.00  0.00    +0.044 C 
ENDBRANCH   8  11
ENDBRANCH   4   7
BRANCH   1  19
ATOM     19  S   UNL     1      -6.867  -1.075   1.511  0.00  0.00    +0.094 S 
ATOM     20  O   UNL     1      -8.208  -0.726   1.192  0.00  0.00    -0.148 OA
ATOM     21  O   UNL     1      -6.278  -2.298   1.092  0.00  0.00    -0.148 OA
BRANCH  19  22
ATOM     22  N   UNL     1      -5.909   0.139   0.919  0.00  0.00    -0.068 NA
BRANCH  22  26
ATOM     23  C   UNL     1      -1.887   0.315   1.267  0.00  0.00    +0.104 A 
ATOM     24  N   UNL     1      -2.533  -0.710   1.785  0.00  0.00    -0.145 NA
ATOM     25  N   UNL     1      -3.787  -0.822   1.709  0.00  0.00    -0.123 NA
ATOM     26  C   UNL     1      -4.535   0.089   1.101  0.00  0.00    +0.224 A 
ATOM     27  S   UNL     1      -3.262   1.240   0.589  0.00  0.00    -0.032 S 
BRANCH  23  29
ATOM     28  C   UNL     1       0.226   0.012   0.006  0.00  0.00    +0.011 C 
ATOM     29  C   UNL     1      -0.412   0.624   1.254  0.00  0.00    +0.061 C 
ENDBRANCH  23  29
ENDBRANCH  22  26
ENDBRANCH  19  22
ENDBRANCH   1  19
TORSDOF 6
