REMARK  Name = ZINC41547685
REMARK  11 active torsions:
REMARK  status: ('A' for Active; 'I' for Inactive)
REMARK    1  A    between atoms: C_1  and  C_2
REMARK    2  A    between atoms: C_2  and  N_3
REMARK    3  A    between atoms: C_5  and  N_15
REMARK    4  A    between atoms: C_6  and  C_8
REMARK    5  A    between atoms: N_10  and  C_11
REMARK    6  A    between atoms: C_11  and  C_12
REMARK    7  A    between atoms: C_12  and  O_13
REMARK    8  A    between atoms: O_13  and  C_14
REMARK    9  A    between atoms: C_16  and  C_18
REMARK   10  A    between atoms: C_18  and  C_30
REMARK   11  A    between atoms: C_24  and  C_29
REMARK                            x       y       z     vdW  Elec       q    Type
REMARK                         _______ _______ _______ _____ _____    ______ ____
ROOT
ATOM      1  N   UNL     1       3.131  -2.324  -3.005  0.00  0.00    -0.279 N 
ATOM      2  C   UNL     1       3.915  -3.012  -2.151  0.00  0.00    +0.270 C 
ATOM      3  O   UNL     1       3.721  -2.936  -0.956  0.00  0.00    -0.271 OA
ATOM      4  H   UNL     1       3.286  -2.385  -3.961  0.00  0.00    +0.155 HD
ENDROOT
BRANCH   2   5
ATOM      5  C   UNL     1       5.031  -3.875  -2.680  0.00  0.00    +0.258 C 
ATOM      6  C   UNL     1       5.343  -4.960  -1.681  0.00  0.00    +0.270 C 
ATOM      7  O   UNL     1       6.209  -4.790  -0.849  0.00  0.00    -0.271 OA
ATOM      8  N   UNL     1       4.655  -6.120  -1.715  0.00  0.00    -0.279 N 
ATOM      9  C   UNL     1       3.748  -6.347  -2.760  0.00  0.00    +0.076 A 
ATOM     10  C   UNL     1       2.865  -7.413  -2.707  0.00  0.00    +0.030 A 
ATOM     11  C   UNL     1       1.967  -7.615  -3.740  0.00  0.00    -0.048 A 
ATOM     12  C   UNL     1       1.949  -6.756  -4.823  0.00  0.00    +0.007 A 
ATOM     13  C   UNL     1       2.831  -5.693  -4.883  0.00  0.00    +0.048 A 
ATOM     14  C   UNL     1       3.736  -5.488  -3.856  0.00  0.00    +0.144 A 
ATOM     15  O   UNL     1       4.630  -4.464  -3.920  0.00  0.00    -0.465 OA
ATOM     16  C   UNL     1       1.007  -8.775  -3.684  0.00  0.00    +0.044 C 
ATOM     17  C   UNL     1       6.277  -3.016  -2.905  0.00  0.00    +0.076 C 
ATOM     18  H   UNL     1       4.786  -6.790  -1.026  0.00  0.00    +0.155 HD
ENDBRANCH   2   5
BRANCH   1  21
ATOM     19  N   UNL     1       0.688  -0.476  -1.203  0.00  0.00    -0.269 N 
ATOM     20  C   UNL     1       1.746  -1.327  -1.212  0.00  0.00    +0.132 A 
ATOM     21  C   UNL     1       2.092  -1.520  -2.512  0.00  0.00    +0.084 A 
ATOM     22  C   UNL     1       1.180  -0.737  -3.266  0.00  0.00    +0.168 A 
ATOM     23  N   UNL     1       0.371  -0.150  -2.405  0.00  0.00    -0.165 NA
BRANCH  22  24
ATOM     24  C   UNL     1       1.140  -0.608  -4.734  0.00  0.00    +0.266 C 
ATOM     25  O   UNL     1       1.944  -1.210  -5.420  0.00  0.00    -0.268 OA
ATOM     26  N   UNL     1       0.212   0.178  -5.317  0.00  0.00    -0.308 N 
ATOM     27  H   UNL     1      -0.429   0.658  -4.770  0.00  0.00    +0.149 HD
BRANCH  26  28
ATOM     28  C   UNL     1       0.172   0.306  -6.776  0.00  0.00    +0.132 C 
BRANCH  28  29
ATOM     29  C   UNL     1      -0.966   1.248  -7.174  0.00  0.00    +0.178 C 
BRANCH  29  30
ATOM     30  O   UNL     1      -0.689   2.562  -6.686  0.00  0.00    -0.381 OA
ATOM     31  C   UNL     1      -1.695   3.525  -7.006  0.00  0.00    +0.194 C 
ENDBRANCH  29  30
ENDBRANCH  28  29
ENDBRANCH  26  28
ENDBRANCH  22  24
BRANCH  19  33
ATOM     32  C   UNL     1      -0.019   1.526   0.010  0.00  0.00    +0.029 C 
ATOM     33  C   UNL     1       0.002  -0.004   0.002  0.00  0.00    +0.140 C 
ENDBRANCH  19  33
ENDBRANCH   1  21
TORSDOF 7
