REMARK  Name = ZINC44170008
REMARK  8 active torsions:
REMARK  status: ('A' for Active; 'I' for Inactive)
REMARK    1  A    between atoms: C_1  and  C_2
REMARK    2  A    between atoms: C_5  and  O_8
REMARK    3  A    between atoms: O_8  and  C_9
REMARK    4  A    between atoms: C_11  and  O_24
REMARK    5  A    between atoms: C_13  and  O_23
REMARK    6  A    between atoms: C_15  and  O_22
REMARK    7  A    between atoms: C_17  and  C_20
REMARK    8  A    between atoms: C_20  and  O_21
REMARK                            x       y       z     vdW  Elec       q    Type
REMARK                         _______ _______ _______ _____ _____    ______ ____
ROOT
ATOM      1  C   UNL     1       0.072  -4.785   1.249  0.00  0.00    +0.339 C 
ATOM      2  C   UNL     1      -0.035  -6.298   1.043  0.00  0.00    +0.214 C 
ATOM      3  C   UNL     1       1.184  -6.785   0.254  0.00  0.00    +0.180 C 
ATOM      4  C   UNL     1       2.458  -6.389   1.007  0.00  0.00    +0.177 C 
ATOM      5  C   UNL     1       2.468  -4.873   1.214  0.00  0.00    +0.179 C 
ATOM      6  O   UNL     1       1.292  -4.482   1.927  0.00  0.00    -0.331 OA
ENDROOT
BRANCH   4   7
ATOM      7  O   UNL     1       3.603  -6.777   0.245  0.00  0.00    -0.386 OA
ATOM      8  H   UNL     1       3.658  -7.726   0.072  0.00  0.00    +0.210 HD
ENDBRANCH   4   7
BRANCH   3   9
ATOM      9  O   UNL     1       1.186  -6.184  -1.042  0.00  0.00    -0.386 OA
ATOM     10  H   UNL     1       0.404  -6.388  -1.572  0.00  0.00    +0.210 HD
ENDBRANCH   3   9
BRANCH   2  11
ATOM     11  O   UNL     1      -0.075  -6.951   2.314  0.00  0.00    -0.383 OA
ATOM     12  H   UNL     1      -0.821  -6.685   2.869  0.00  0.00    +0.210 HD
ENDBRANCH   2  11
BRANCH   1  13
ATOM     13  O   UNL     1       0.057  -4.129  -0.021  0.00  0.00    -0.461 OA
BRANCH  13  18
ATOM     14  C   UNL     1      -0.018   1.503   0.010  0.00  0.00    +0.044 C 
ATOM     15  C   UNL     1       0.002  -0.004   0.002  0.00  0.00    -0.050 A 
ATOM     16  C   UNL     1       0.006  -0.688  -1.200  0.00  0.00    +0.007 A 
ATOM     17  C   UNL     1       0.024  -2.069  -1.210  0.00  0.00    +0.046 A 
ATOM     18  C   UNL     1       0.039  -2.770  -0.013  0.00  0.00    +0.124 A 
ATOM     19  C   UNL     1       0.036  -2.082   1.191  0.00  0.00    +0.046 A 
ATOM     20  C   UNL     1       0.023  -0.701   1.196  0.00  0.00    +0.007 A 
ENDBRANCH  13  18
ENDBRANCH   1  13
BRANCH   5  21
ATOM     21  C   UNL     1       3.708  -4.476   2.018  0.00  0.00    +0.190 C 
BRANCH  21  22
ATOM     22  O   UNL     1       3.779  -3.052   2.111  0.00  0.00    -0.392 OA
ATOM     23  H   UNL     1       4.543  -2.728   2.609  0.00  0.00    +0.210 HD
ENDBRANCH  21  22
ENDBRANCH   5  21
TORSDOF 7
