REMARK  Name = ZINC35696788
REMARK  9 active torsions:
REMARK  status: ('A' for Active; 'I' for Inactive)
REMARK    1  A    between atoms: C_1  and  C_2
REMARK    2  A    between atoms: C_2  and  C_3
REMARK    3  A    between atoms: C_4  and  C_32
REMARK    4  A    between atoms: C_5  and  C_25
REMARK    5  A    between atoms: C_8  and  C_13
REMARK    6  A    between atoms: C_14  and  N_16
REMARK    7  A    between atoms: C_22  and  C_24
REMARK    8  A    between atoms: C_32  and  O_34
REMARK    9  A    between atoms: O_34  and  C_35
REMARK                            x       y       z     vdW  Elec       q    Type
REMARK                         _______ _______ _______ _____ _____    ______ ____
ROOT
ATOM      1  C   UNL     1       0.389   0.130   0.633  0.00  0.00    +0.056 C 
ATOM      2  C   UNL     1      -0.221  -0.109   1.849  0.00  0.00    +0.083 C 
ATOM      3  C   UNL     1       0.661  -0.495   3.016  0.00  0.00    +0.150 C 
ATOM      4  N   UNL     1       2.123  -0.587   2.759  0.00  0.00    -0.267 N 
ATOM      5  C   UNL     1       3.107  -0.920   3.667  0.00  0.00    +0.048 C 
ATOM      6  C   UNL     1       4.384  -0.947   3.226  0.00  0.00    +0.072 C 
ATOM      7  S   UNL     1       4.192  -0.498   1.513  0.00  0.00    -0.060 S 
ATOM      8  C   UNL     1       2.524  -0.311   1.482  0.00  0.00    +0.166 C 
ATOM      9  N   UNL     1       1.701   0.015   0.506  0.00  0.00    -0.229 NA
ENDROOT
BRANCH   3  10
ATOM     10  C   UNL     1       0.447   0.516   4.113  0.00  0.00    -0.022 A 
ATOM     11  C   UNL     1       0.977   1.787   3.995  0.00  0.00    +0.007 A 
ATOM     12  C   UNL     1       0.781   2.714   5.002  0.00  0.00    +0.020 A 
ATOM     13  C   UNL     1       0.053   2.370   6.127  0.00  0.00    +0.041 A 
ATOM     14  C   UNL     1      -0.478   1.097   6.244  0.00  0.00    +0.020 A 
ATOM     15  C   UNL     1      -0.285   0.173   5.235  0.00  0.00    +0.007 A 
ATOM     16 CL   UNL     1      -0.193   3.534   7.391  0.00  0.00    -0.084 Cl
ENDBRANCH   3  10
BRANCH   5  17
ATOM     17  C   UNL     1       2.778  -1.233   5.065  0.00  0.00    +0.091 C 
ATOM     18  C   UNL     1       3.738  -1.677   5.900  0.00  0.00    +0.241 C 
ATOM     19  O   UNL     1       5.027  -1.725   5.485  0.00  0.00    -0.271 OA
BRANCH  18  20
ATOM     20  N   UNL     1       3.407  -2.084   7.181  0.00  0.00    -0.295 N 
ATOM     21  C   UNL     1       2.114  -2.729   7.451  0.00  0.00    +0.127 C 
ATOM     22  C   UNL     1       2.372  -4.081   8.128  0.00  0.00    +0.126 C 
ATOM     23  N   UNL     1       3.308  -3.876   9.243  0.00  0.00    -0.299 N 
ATOM     24  C   UNL     1       4.601  -3.231   8.973  0.00  0.00    +0.126 C 
ATOM     25  C   UNL     1       4.345  -1.885   8.295  0.00  0.00    +0.127 C 
ATOM     26  C   UNL     1       2.986  -4.272  10.490  0.00  0.00    +0.213 C 
ATOM     27  O   UNL     1       1.960  -4.890  10.684  0.00  0.00    -0.276 OA
ATOM     28  C   UNL     1       3.900  -3.947  11.644  0.00  0.00    +0.109 C 
ENDBRANCH  18  20
ENDBRANCH   5  17
BRANCH   1  30
ATOM     29  C   UNL     1      -0.717   2.022  -0.527  0.00  0.00    +0.010 C 
ATOM     30  C   UNL     1      -0.447   0.516  -0.560  0.00  0.00    +0.053 C 
ENDBRANCH   1  30
BRANCH   2  31
ATOM     31  C   UNL     1      -1.609   0.003   1.997  0.00  0.00    +0.339 C 
ATOM     32  O   UNL     1      -2.303   0.286   1.036  0.00  0.00    -0.245 OA
BRANCH  31  33
ATOM     33  O   UNL     1      -2.178  -0.203   3.205  0.00  0.00    -0.465 OA
ATOM     34  C   UNL     1      -3.599  -0.072   3.283  0.00  0.00    +0.280 C 
ENDBRANCH  31  33
ENDBRANCH   2  31
TORSDOF 6
