REMARK  Name = ZINC23741659
REMARK  6 active torsions:
REMARK  status: ('A' for Active; 'I' for Inactive)
REMARK    1  A    between atoms: C_4  and  C_7
REMARK    2  A    between atoms: C_7  and  C_9
REMARK    3  A    between atoms: C_7  and  N_26
REMARK    4  A    between atoms: C_9  and  N_10
REMARK    5  A    between atoms: C_11  and  C_13
REMARK    6  A    between atoms: C_13  and  C_14
REMARK                            x       y       z     vdW  Elec       q    Type
REMARK                         _______ _______ _______ _____ _____    ______ ____
ROOT
ATOM      1  N   UNL     1       5.320  -1.941   1.316  0.00  0.00    -0.316 N 
ATOM      2  C   UNL     1       5.837  -2.443   2.455  0.00  0.00    +0.215 C 
ATOM      3  O   UNL     1       5.353  -2.140   3.525  0.00  0.00    -0.276 OA
ATOM      4  H   UNL     1       5.707  -2.183   0.460  0.00  0.00    +0.149 HD
ENDROOT
BRANCH   1   5
ATOM      5  C   UNL     1       4.174  -1.030   1.370  0.00  0.00    +0.093 C 
BRANCH   5   6
ATOM      6  C   UNL     1       3.870  -0.508  -0.035  0.00  0.00    -0.020 C 
BRANCH   6  10
ATOM      7  C   UNL     1       7.127   1.896  -1.399  0.00  0.00    +0.000 A 
ATOM      8  C   UNL     1       7.011   0.585  -1.822  0.00  0.00    +0.000 A 
ATOM      9  C   UNL     1       5.957  -0.193  -1.381  0.00  0.00    +0.002 A 
ATOM     10  C   UNL     1       5.019   0.340  -0.516  0.00  0.00    -0.059 A 
ATOM     11  C   UNL     1       5.136   1.651  -0.092  0.00  0.00    +0.002 A 
ATOM     12  C   UNL     1       6.189   2.429  -0.535  0.00  0.00    +0.000 A 
ENDBRANCH   6  10
BRANCH   6  13
ATOM     13  N   UNL     1       2.645   0.302  -0.003  0.00  0.00    +0.385 N 
ATOM     14  C   UNL     1       2.327   0.805  -1.363  0.00  0.00    -0.078 C 
ATOM     15  C   UNL     1       0.811   1.116  -1.282  0.00  0.00    -0.020 C 
ATOM     16  C   UNL     1       0.271  -0.028  -0.394  0.00  0.00    -0.020 C 
ATOM     17  C   UNL     1       1.492  -0.534   0.397  0.00  0.00    -0.078 C 
ATOM     18  H   UNL     1       2.754   1.073   0.638  0.00  0.00    -0.081 HD
ENDBRANCH   6  13
ENDBRANCH   5   6
ENDBRANCH   1   5
BRANCH   2  19
ATOM     19  C   UNL     1       7.016  -3.380   2.398  0.00  0.00    +0.119 C 
BRANCH  19  20
ATOM     20  C   UNL     1       7.402  -3.800   3.818  0.00  0.00    +0.146 C 
ATOM     21  C   UNL     1       8.648  -4.646   3.775  0.00  0.00    +0.231 C 
ATOM     22  O   UNL     1       9.713  -4.116   4.009  0.00  0.00    -0.274 OA
ATOM     23  N   UNL     1       8.636  -5.945   3.493  0.00  0.00    -0.284 N 
ATOM     24  C   UNL     1       7.512  -6.745   3.314  0.00  0.00    +0.047 A 
ATOM     25  C   UNL     1       7.652  -7.983   2.693  0.00  0.00    +0.024 A 
ATOM     26  C   UNL     1       6.550  -8.791   2.496  0.00  0.00    +0.002 A 
ATOM     27  C   UNL     1       5.296  -8.382   2.911  0.00  0.00    +0.001 A 
ATOM     28  C   UNL     1       5.143  -7.156   3.533  0.00  0.00    +0.016 A 
ATOM     29  C   UNL     1       6.245  -6.343   3.737  0.00  0.00    +0.030 A 
ATOM     30  S   UNL     1       6.058  -4.781   4.553  0.00  0.00    -0.110 S 
ATOM     31  H   UNL     1       9.498  -6.379   3.403  0.00  0.00    +0.155 HD
ENDBRANCH  19  20
ENDBRANCH   2  19
TORSDOF 6
