REMARK  Name = ZINC13617025
REMARK  10 active torsions:
REMARK  status: ('A' for Active; 'I' for Inactive)
REMARK    1  A    between atoms: C_1  and  C_2
REMARK    2  A    between atoms: C_2  and  O_3
REMARK    3  A    between atoms: O_3  and  C_4
REMARK    4  A    between atoms: C_9  and  C_10
REMARK    5  A    between atoms: N_12  and  C_13
REMARK    6  A    between atoms: C_13  and  N_15
REMARK    7  A    between atoms: N_15  and  C_16
REMARK    8  A    between atoms: C_19  and  C_22
REMARK    9  A    between atoms: N_24  and  C_25
REMARK   10  A    between atoms: C_25  and  C_26
REMARK                            x       y       z     vdW  Elec       q    Type
REMARK                         _______ _______ _______ _____ _____    ______ ____
ROOT
ATOM      1  N   UNL     1       3.512   7.343   0.009  0.00  0.00    -0.297 N 
ATOM      2  H   UNL     1       2.791   7.637   0.587  0.00  0.00    +0.154 HD
ENDROOT
BRANCH   1   3
ATOM      3  C   UNL     1       4.748   7.986   0.056  0.00  0.00    +0.033 A 
ATOM      4  C   UNL     1       5.921   7.238   0.020  0.00  0.00    +0.024 A 
ATOM      5  C   UNL     1       7.143   7.871   0.060  0.00  0.00    +0.015 A 
ATOM      6  C   UNL     1       7.205   9.264   0.148  0.00  0.00    +0.037 A 
ATOM      7  C   UNL     1       6.024  10.011   0.190  0.00  0.00    +0.015 A 
ATOM      8  C   UNL     1       4.806   9.373   0.144  0.00  0.00    +0.024 A 
BRANCH   6   9
ATOM      9  C   UNL     1       8.513   9.945   0.198  0.00  0.00    +0.244 C 
ATOM     10  O   UNL     1       8.565  11.157   0.274  0.00  0.00    -0.270 OA
ATOM     11  N   UNL     1       9.650   9.223   0.157  0.00  0.00    -0.309 N 
ATOM     12  H   UNL     1       9.609   8.255   0.096  0.00  0.00    +0.149 HD
BRANCH  11  13
ATOM     13  C   UNL     1      10.949   9.898   0.206  0.00  0.00    +0.136 C 
BRANCH  13  14
ATOM     14  C   UNL     1      12.069   8.857   0.145  0.00  0.00    +0.135 C 
ATOM     15  C   UNL     1      13.445   9.536   0.321  0.00  0.00    +0.035 C 
ATOM     16  C   UNL     1      14.374   8.753  -0.634  0.00  0.00    +0.031 C 
ATOM     17  C   UNL     1      13.449   7.694  -1.273  0.00  0.00    +0.160 C 
ATOM     18  O   UNL     1      12.121   8.250  -1.164  0.00  0.00    -0.375 OA
ENDBRANCH  13  14
ENDBRANCH  11  13
ENDBRANCH   6   9
ENDBRANCH   1   3
BRANCH   1  19
ATOM     19  C   UNL     1       3.320   6.313  -0.839  0.00  0.00    +0.141 C 
ATOM     20  S   UNL     1       4.543   5.886  -1.958  0.00  0.00    -0.018 S 
BRANCH  19  23
ATOM     21  C   UNL     1       1.972   4.591  -1.654  0.00  0.00    +0.253 C 
ATOM     22  O   UNL     1       2.841   4.287  -2.449  0.00  0.00    -0.270 OA
ATOM     23  N   UNL     1       2.164   5.620  -0.806  0.00  0.00    -0.263 N 
ATOM     24  H   UNL     1       1.471   5.863  -0.173  0.00  0.00    +0.157 HD
BRANCH  21  30
ATOM     25  C   UNL     1       0.504   2.761  -2.499  0.00  0.00    +0.133 A 
ATOM     26  C   UNL     1      -0.689   2.054  -2.456  0.00  0.00    +0.047 A 
ATOM     27  C   UNL     1      -1.672   2.409  -1.555  0.00  0.00    +0.019 A 
ATOM     28  C   UNL     1      -1.473   3.465  -0.679  0.00  0.00    +0.019 A 
ATOM     29  C   UNL     1      -0.293   4.178  -0.707  0.00  0.00    +0.032 A 
ATOM     30  C   UNL     1       0.708   3.832  -1.619  0.00  0.00    +0.080 A 
ATOM     31 BR   UNL     1      -2.827   3.933   0.555  0.00  0.00    -0.050 Br
BRANCH  25  32
ATOM     32  O   UNL     1       1.468   2.416  -3.389  0.00  0.00    -0.491 OA
BRANCH  32  34
ATOM     33  C   UNL     1       2.384   1.077  -5.179  0.00  0.00    +0.048 C 
ATOM     34  C   UNL     1       1.189   1.314  -4.254  0.00  0.00    +0.226 C 
ENDBRANCH  32  34
ENDBRANCH  25  32
ENDBRANCH  21  30
ENDBRANCH  19  23
ENDBRANCH   1  19
TORSDOF 9
