REMARK  Name = ZINC16425997
REMARK  10 active torsions:
REMARK  status: ('A' for Active; 'I' for Inactive)
REMARK    1  A    between atoms: C_1  and  C_2
REMARK    2  A    between atoms: C_6  and  C_38
REMARK    3  A    between atoms: C_7  and  N_8
REMARK    4  A    between atoms: N_8  and  S_9
REMARK    5  A    between atoms: S_9  and  C_12
REMARK    6  A    between atoms: C_25  and  C_28
REMARK    7  A    between atoms: C_32  and  O_36
REMARK    8  A    between atoms: C_33  and  O_34
REMARK    9  A    between atoms: O_34  and  C_35
REMARK   10  A    between atoms: O_36  and  C_37
REMARK                            x       y       z     vdW  Elec       q    Type
REMARK                         _______ _______ _______ _____ _____    ______ ____
ROOT
ATOM      1  C   UNL     1      -0.487  -3.464   0.748  0.00  0.00    +0.109 A 
ATOM      2  C   UNL     1      -1.766  -2.951   0.628  0.00  0.00    +0.030 A 
ATOM      3  C   UNL     1      -1.960  -1.584   0.652  0.00  0.00    +0.025 A 
ATOM      4  C   UNL     1      -0.874  -0.730   0.799  0.00  0.00    +0.031 A 
ATOM      5  C   UNL     1       0.409  -1.240   0.922  0.00  0.00    -0.018 A 
ATOM      6  C   UNL     1       0.592  -2.616   0.894  0.00  0.00    +0.034 A 
ATOM      7  C   UNL     1       1.607  -0.360   1.087  0.00  0.00    +0.049 C 
ATOM      8  C   UNL     1       2.411  -0.275  -0.189  0.00  0.00    -0.023 C 
ATOM      9  C   UNL     1       2.906   0.930  -0.334  0.00  0.00    -0.030 C 
ATOM     10  C   UNL     1       2.503   1.813   0.832  0.00  0.00    +0.033 C 
ATOM     11  C   UNL     1       1.240   1.104   1.401  0.00  0.00    +0.029 C 
ATOM     12  C   UNL     1       0.049   1.537   0.541  0.00  0.00    +0.109 C 
ATOM     13  N   UNL     1      -1.087   0.652   0.820  0.00  0.00    -0.336 N 
ATOM     14  H   UNL     1      -1.965   1.017   1.012  0.00  0.00    +0.147 HD
ENDROOT
BRANCH  12  15
ATOM     15  C   UNL     1      -0.324   2.958   0.875  0.00  0.00    +0.018 A 
ATOM     16  C   UNL     1       0.069   3.512   2.080  0.00  0.00    +0.009 A 
ATOM     17  C   UNL     1      -0.272   4.815   2.389  0.00  0.00    +0.004 A 
ATOM     18  C   UNL     1      -1.007   5.571   1.495  0.00  0.00    +0.049 A 
ATOM     19  C   UNL     1      -1.403   5.023   0.286  0.00  0.00    +0.162 A 
ATOM     20  C   UNL     1      -1.056   3.712  -0.028  0.00  0.00    +0.166 A 
BRANCH  20  21
ATOM     21  O   UNL     1      -1.439   3.171  -1.215  0.00  0.00    -0.491 OA
ATOM     22  C   UNL     1      -2.717   2.534  -1.256  0.00  0.00    +0.277 C 
ENDBRANCH  20  21
BRANCH  19  23
ATOM     23  O   UNL     1      -2.126   5.766  -0.595  0.00  0.00    -0.491 OA
ATOM     24  C   UNL     1      -2.441   7.105  -0.208  0.00  0.00    +0.277 C 
ENDBRANCH  19  23
ENDBRANCH  12  15
BRANCH   1  25
ATOM     25  S   UNL     1      -0.234  -5.207   0.715  0.00  0.00    +0.072 S 
ATOM     26  O   UNL     1      -1.395  -5.775   0.124  0.00  0.00    -0.150 OA
ATOM     27  O   UNL     1       1.069  -5.419   0.188  0.00  0.00    -0.150 OA
BRANCH  25  28
ATOM     28  N   UNL     1      -0.200  -5.727   2.287  0.00  0.00    -0.216 N 
ATOM     29  H   UNL     1       0.625  -6.067   2.667  0.00  0.00    +0.174 HD
BRANCH  28  36
ATOM     30  C   UNL     1      -0.407  -3.679   4.251  0.00  0.00    +0.046 C 
ATOM     31  C   UNL     1      -1.502  -4.692   4.035  0.00  0.00    -0.028 A 
ATOM     32  C   UNL     1      -2.651  -4.641   4.800  0.00  0.00    +0.005 A 
ATOM     33  C   UNL     1      -3.654  -5.574   4.606  0.00  0.00    +0.001 A 
ATOM     34  C   UNL     1      -3.512  -6.557   3.644  0.00  0.00    +0.005 A 
ATOM     35  C   UNL     1      -2.368  -6.611   2.873  0.00  0.00    -0.028 A 
ATOM     36  C   UNL     1      -1.359  -5.675   3.064  0.00  0.00    +0.054 A 
ATOM     37  C   UNL     1      -2.214  -7.682   1.825  0.00  0.00    +0.046 C 
ENDBRANCH  28  36
ENDBRANCH  25  28
ENDBRANCH   1  25
TORSDOF 6
