REMARK  Name = ZINC09692179
REMARK  12 active torsions:
REMARK  status: ('A' for Active; 'I' for Inactive)
REMARK    1  A    between atoms: C_1  and  C_2
REMARK    2  A    between atoms: C_2  and  C_3
REMARK    3  A    between atoms: C_12  and  S_14
REMARK    4  A    between atoms: S_14  and  N_17
REMARK    5  A    between atoms: N_17  and  C_18
REMARK    6  A    between atoms: C_18  and  C_20
REMARK    7  A    between atoms: C_18  and  C_24
REMARK    8  A    between atoms: C_20  and  C_21
REMARK    9  A    between atoms: C_21  and  C_22
REMARK   10  A    between atoms: C_21  and  C_23
REMARK   11  A    between atoms: N_26  and  C_27
REMARK   12  A    between atoms: C_27  and  C_28
REMARK                            x       y       z     vdW  Elec       q    Type
REMARK                         _______ _______ _______ _____ _____    ______ ____
ROOT
ATOM      1  N   UNL     1      -2.020   2.484   1.635  0.00  0.00    -0.178 NA
ATOM      2  H   UNL     1      -2.258   1.562   1.822  0.00  0.00    +0.149 HD
ENDROOT
BRANCH   1   3
ATOM      3  S   UNL     1      -2.612   3.234   0.283  0.00  0.00    +0.059 S 
ATOM      4  O   UNL     1      -3.139   4.483   0.709  0.00  0.00    -0.153 OA
ATOM      5  O   UNL     1      -3.399   2.270  -0.404  0.00  0.00    -0.153 OA
BRANCH   3  15
ATOM      6  C   UNL     1       2.764   5.339  -3.490  0.00  0.00    +0.220 C 
ATOM      7  O   UNL     1       2.559   6.343  -2.843  0.00  0.00    -0.275 OA
ATOM      8  N   UNL     1       1.990   4.250  -3.309  0.00  0.00    -0.271 N 
ATOM      9  C   UNL     1       2.140   2.983  -4.030  0.00  0.00    +0.118 C 
ATOM     10  C   UNL     1       1.035   2.070  -3.474  0.00  0.00    +0.056 C 
ATOM     11  C   UNL     1       0.320   2.919  -2.448  0.00  0.00    -0.023 A 
ATOM     12  C   UNL     1       0.925   4.165  -2.407  0.00  0.00    +0.040 A 
ATOM     13  C   UNL     1       0.433   5.129  -1.525  0.00  0.00    +0.026 A 
ATOM     14  C   UNL     1      -0.640   4.841  -0.709  0.00  0.00    +0.030 A 
ATOM     15  C   UNL     1      -1.237   3.595  -0.757  0.00  0.00    +0.106 A 
ATOM     16  C   UNL     1      -0.755   2.635  -1.628  0.00  0.00    +0.034 A 
BRANCH   6  18
ATOM     17  C   UNL     1       4.602   6.659  -4.505  0.00  0.00    +0.013 C 
ATOM     18  C   UNL     1       3.885   5.307  -4.497  0.00  0.00    +0.093 C 
ENDBRANCH   6  18
ENDBRANCH   3  15
ENDBRANCH   1   3
BRANCH   1  19
ATOM     19  C   UNL     1      -1.137   3.212   2.549  0.00  0.00    +0.162 C 
BRANCH  19  20
ATOM     20  C   UNL     1      -1.954   3.816   3.663  0.00  0.00    +0.232 C 
ATOM     21  O   UNL     1      -3.155   3.654   3.690  0.00  0.00    -0.274 OA
ATOM     22  N   UNL     1      -1.349   4.536   4.628  0.00  0.00    -0.310 N 
ATOM     23  H   UNL     1      -0.388   4.665   4.606  0.00  0.00    +0.149 HD
BRANCH  22  24
ATOM     24  C   UNL     1      -2.143   5.123   5.710  0.00  0.00    +0.141 C 
BRANCH  24  25
ATOM     25  C   UNL     1      -1.235   5.872   6.651  0.00  0.00    -0.012 A 
ATOM     26  C   UNL     1      -0.840   5.290   7.841  0.00  0.00    +0.006 A 
ATOM     27  C   UNL     1      -0.003   5.975   8.701  0.00  0.00    +0.000 A 
ATOM     28  C   UNL     1       0.432   7.247   8.377  0.00  0.00    +0.001 A 
ATOM     29  C   UNL     1       0.033   7.832   7.190  0.00  0.00    +0.020 A 
ATOM     30  C   UNL     1      -0.800   7.145   6.326  0.00  0.00    +0.046 A 
ATOM     31 CL   UNL     1      -1.302   7.879   4.835  0.00  0.00    -0.083 Cl
ENDBRANCH  24  25
ENDBRANCH  22  24
ENDBRANCH  19  20
BRANCH  19  32
ATOM     32  C   UNL     1      -0.106   2.248   3.139  0.00  0.00    +0.032 C 
BRANCH  32  33
ATOM     33  C   UNL     1       0.805   1.730   2.023  0.00  0.00    -0.015 C 
ATOM     34  C   UNL     1       1.639   2.887   1.468  0.00  0.00    +0.007 C 
ATOM     35  C   UNL     1       1.736   0.653   2.583  0.00  0.00    +0.007 C 
ENDBRANCH  32  33
ENDBRANCH  19  32
ENDBRANCH   1  19
TORSDOF 9
