REMARK  Name = ZINC02568468
REMARK  4 active torsions:
REMARK  status: ('A' for Active; 'I' for Inactive)
REMARK    1  A    between atoms: C_3  and  N_9
REMARK    2  A    between atoms: C_10  and  C_12
REMARK    3  A    between atoms: N_14  and  N_15
REMARK    4  A    between atoms: C_16  and  C_17
REMARK                            x       y       z     vdW  Elec       q    Type
REMARK                         _______ _______ _______ _____ _____    ______ ____
ROOT
ATOM      1  C   UNL     1      -1.184  -2.068  -0.015  0.00  0.00    +0.318 C 
ATOM      2  O   UNL     1      -0.124  -2.661  -0.032  0.00  0.00    -0.263 OA
ATOM      3  N   UNL     1      -1.203  -0.721  -0.013  0.00  0.00    -0.199 N 
ATOM      4  H   UNL     1      -2.050  -0.247   0.001  0.00  0.00    +0.178 HD
ENDROOT
BRANCH   1   6
ATOM      5  N   UNL     1      -2.446  -4.179   0.003  0.00  0.00    -0.276 N 
ATOM      6  C   UNL     1      -2.465  -2.832   0.005  0.00  0.00    +0.305 C 
ATOM      7  O   UNL     1      -3.524  -2.239   0.022  0.00  0.00    -0.265 OA
ATOM      8  H   UNL     1      -1.603  -4.652  -0.077  0.00  0.00    +0.155 HD
BRANCH   5  11
ATOM      9  C   UNL     1      -5.984  -5.112  -0.349  0.00  0.00    +0.003 A 
ATOM     10  C   UNL     1      -4.804  -4.403  -0.462  0.00  0.00    +0.025 A 
ATOM     11  C   UNL     1      -3.641  -4.895   0.116  0.00  0.00    +0.054 A 
ATOM     12  C   UNL     1      -3.667  -6.104   0.802  0.00  0.00    +0.080 A 
ATOM     13  C   UNL     1      -4.853  -6.806   0.916  0.00  0.00    +0.061 A 
ATOM     14  C   UNL     1      -6.009  -6.312   0.339  0.00  0.00    +0.021 A 
ATOM     15 CL   UNL     1      -4.889  -8.313   1.778  0.00  0.00    -0.082 Cl
ATOM     16 CL   UNL     1      -2.215  -6.727   1.520  0.00  0.00    -0.080 Cl
ENDBRANCH   5  11
ENDBRANCH   1   6
BRANCH   3  17
ATOM     17  N   UNL     1       0.000  -0.003  -0.032  0.00  0.00    -0.187 NA
ATOM     18  C   UNL     1      -0.018   1.296  -0.030  0.00  0.00    +0.138 C 
BRANCH  18  19
ATOM     19  C   UNL     1       1.247   2.050  -0.049  0.00  0.00    -0.002 A 
ATOM     20  C   UNL     1       2.469   1.371  -0.063  0.00  0.00    +0.013 A 
ATOM     21  C   UNL     1       3.651   2.079  -0.086  0.00  0.00    +0.050 A 
ATOM     22  C   UNL     1       3.635   3.467  -0.086  0.00  0.00    +0.166 A 
ATOM     23  C   UNL     1       2.420   4.152  -0.066  0.00  0.00    +0.167 A 
ATOM     24  C   UNL     1       1.230   3.448  -0.048  0.00  0.00    +0.059 A 
ATOM     25  O   UNL     1       2.675   5.493  -0.069  0.00  0.00    -0.453 OA
ATOM     26  C   UNL     1       4.042   5.622  -0.504  0.00  0.00    +0.466 C 
ATOM     27  O   UNL     1       4.649   4.380  -0.101  0.00  0.00    -0.453 OA
ENDBRANCH  18  19
ENDBRANCH   3  17
TORSDOF 4
