REMARK  Name = ZINC64697717
REMARK  8 active torsions:
REMARK  status: ('A' for Active; 'I' for Inactive)
REMARK    1  A    between atoms: C_1  and  C_2
REMARK    2  A    between atoms: C_5  and  S_8
REMARK    3  A    between atoms: S_8  and  N_11
REMARK    4  A    between atoms: N_15  and  C_18
REMARK    5  A    between atoms: C_18  and  C_19
REMARK    6  A    between atoms: N_21  and  C_22
REMARK    7  A    between atoms: C_22  and  C_23
REMARK    8  A    between atoms: C_23  and  C_24
REMARK                            x       y       z     vdW  Elec       q    Type
REMARK                         _______ _______ _______ _____ _____    ______ ____
ROOT
ATOM      1  N   UNL     1       1.651  -4.999  -0.034  0.00  0.00    -0.178 NA
ATOM      2  C   UNL     1       2.328  -5.188  -1.333  0.00  0.00    +0.107 C 
ATOM      3  C   UNL     1       3.758  -4.619  -1.300  0.00  0.00    -0.001 C 
ATOM      4  C   UNL     1       3.764  -3.317  -0.529  0.00  0.00    -0.077 C 
ATOM      5  N   UNL     1       4.096  -3.586   0.868  0.00  0.00    +0.386 N 
ATOM      6  C   UNL     1       2.991  -3.893   1.694  0.00  0.00    -0.061 C 
ATOM      7  C   UNL     1       2.328  -5.204   1.230  0.00  0.00    +0.091 C 
ATOM      8  H   UNL     1       4.741  -4.360   0.899  0.00  0.00    -0.081 HD
ENDROOT
BRANCH   1   9
ATOM      9  S   UNL     1       0.063  -4.530  -0.023  0.00  0.00    +0.061 S 
ATOM     10  O   UNL     1      -0.476  -4.950   1.223  0.00  0.00    -0.153 OA
ATOM     11  O   UNL     1      -0.490  -4.937  -1.267  0.00  0.00    -0.153 OA
BRANCH   9  16
ATOM     12  C   UNL     1      -0.018   1.503   0.010  0.00  0.00    +0.044 C 
ATOM     13  C   UNL     1       0.002  -0.004   0.002  0.00  0.00    -0.050 A 
ATOM     14  C   UNL     1       0.006  -0.689  -1.199  0.00  0.00    +0.005 A 
ATOM     15  C   UNL     1       0.025  -2.071  -1.206  0.00  0.00    +0.029 A 
ATOM     16  C   UNL     1       0.040  -2.768  -0.013  0.00  0.00    +0.105 A 
ATOM     17  C   UNL     1       0.037  -2.084   1.188  0.00  0.00    +0.029 A 
ATOM     18  C   UNL     1       0.023  -0.702   1.195  0.00  0.00    +0.005 A 
ENDBRANCH   9  16
ENDBRANCH   1   9
BRANCH   5  19
ATOM     19  C   UNL     1       4.772  -2.404   1.419  0.00  0.00    +0.019 C 
BRANCH  19  20
ATOM     20  C   UNL     1       6.089  -2.204   0.715  0.00  0.00    +0.196 C 
ATOM     21  O   UNL     1       6.431  -2.972  -0.160  0.00  0.00    -0.278 OA
ATOM     22  N   UNL     1       6.887  -1.174   1.058  0.00  0.00    -0.317 N 
ATOM     23  H   UNL     1       6.614  -0.560   1.757  0.00  0.00    +0.149 HD
BRANCH  22  24
ATOM     24  C   UNL     1       8.168  -0.980   0.373  0.00  0.00    +0.108 C 
BRANCH  24  25
ATOM     25  C   UNL     1       8.872   0.251   0.947  0.00  0.00    +0.052 C 
BRANCH  25  26
ATOM     26  C   UNL     1      10.190   0.450   0.242  0.00  0.00    -0.040 C 
ATOM     27  C   UNL     1      10.432   1.257  -0.815  0.00  0.00    -0.001 A 
ATOM     28  C   UNL     1       9.575   2.157  -1.597  0.00  0.00    +0.010 A 
ATOM     29  C   UNL     1      10.117   2.851  -2.623  0.00  0.00    +0.001 A 
ATOM     30  C   UNL     1      11.473   2.732  -2.959  0.00  0.00    +0.002 A 
ATOM     31  C   UNL     1      12.323   1.927  -2.288  0.00  0.00    +0.026 A 
ATOM     32  C   UNL     1      11.861   1.151  -1.189  0.00  0.00    +0.043 A 
ATOM     33  N   UNL     1      12.477   0.309  -0.395  0.00  0.00    -0.380 N 
ATOM     34  C   UNL     1      11.509  -0.208   0.579  0.00  0.00    +0.144 C 
ATOM     35  H   UNL     1      13.416   0.072  -0.440  0.00  0.00    +0.160 HD
ENDBRANCH  25  26
ENDBRANCH  24  25
ENDBRANCH  22  24
ENDBRANCH  19  20
ENDBRANCH   5  19
TORSDOF 7
