REMARK  Name = ZINC59152174
REMARK  6 active torsions:
REMARK  status: ('A' for Active; 'I' for Inactive)
REMARK    1  A    between atoms: C_6  and  C_7
REMARK    2  A    between atoms: C_7  and  C_8
REMARK    3  A    between atoms: C_8  and  C_9
REMARK    4  A    between atoms: N_11  and  N_12
REMARK    5  A    between atoms: C_13  and  C_14
REMARK    6  A    between atoms: C_19  and  O_20
REMARK                            x       y       z     vdW  Elec       q    Type
REMARK                         _______ _______ _______ _____ _____    ______ ____
ROOT
ATOM      1  C   UNL     1      -3.042  -1.796  -1.421  0.00  0.00    +0.232 C 
ATOM      2  O   UNL     1      -3.553  -2.111  -0.367  0.00  0.00    -0.274 OA
ATOM      3  N   UNL     1      -3.632  -2.134  -2.585  0.00  0.00    -0.207 N 
ATOM      4  H   UNL     1      -3.223  -1.881  -3.427  0.00  0.00    +0.177 HD
ENDROOT
BRANCH   3   5
ATOM      5  N   UNL     1      -4.837  -2.849  -2.577  0.00  0.00    -0.188 NA
ATOM      6  C   UNL     1      -5.405  -3.175  -3.697  0.00  0.00    +0.142 C 
BRANCH   6   7
ATOM      7  C   UNL     1      -6.672  -3.927  -3.689  0.00  0.00    +0.038 A 
ATOM      8  C   UNL     1      -7.285  -4.284  -4.893  0.00  0.00    +0.028 A 
ATOM      9  C   UNL     1      -8.470  -4.989  -4.879  0.00  0.00    +0.020 A 
ATOM     10  C   UNL     1      -9.057  -5.345  -3.675  0.00  0.00    +0.034 A 
ATOM     11  C   UNL     1      -8.461  -4.997  -2.478  0.00  0.00    +0.061 A 
ATOM     12  C   UNL     1      -7.266  -4.293  -2.474  0.00  0.00    +0.139 A 
ATOM     13 BR   UNL     1      -9.271  -5.488  -0.841  0.00  0.00    -0.046 Br
ATOM     14 BR   UNL     1      -9.299  -5.472  -6.509  0.00  0.00    -0.050 Br
BRANCH  12  15
ATOM     15  O   UNL     1      -6.677  -3.956  -1.298  0.00  0.00    -0.505 OA
ATOM     16  H   UNL     1      -6.957  -3.099  -0.949  0.00  0.00    +0.292 HD
ENDBRANCH  12  15
ENDBRANCH   6   7
ENDBRANCH   3   5
BRANCH   1  17
ATOM     17  C   UNL     1      -1.746  -1.026  -1.429  0.00  0.00    +0.102 C 
BRANCH  17  18
ATOM     18  C   UNL     1      -1.294  -0.774   0.010  0.00  0.00    +0.044 C 
BRANCH  18  24
ATOM     19  C   UNL     1      -0.017   1.378   0.010  0.00  0.00    +0.007 A 
ATOM     20  C   UNL     1       1.170   2.088   0.002  0.00  0.00    +0.050 A 
ATOM     21  C   UNL     1       2.380   1.416  -0.013  0.00  0.00    +0.166 A 
ATOM     22  C   UNL     1       2.399   0.023  -0.021  0.00  0.00    +0.166 A 
ATOM     23  C   UNL     1       1.207  -0.682  -0.014  0.00  0.00    +0.053 A 
ATOM     24  C   UNL     1       0.002  -0.004   0.002  0.00  0.00    -0.043 A 
ATOM     25  O   UNL     1       3.698  -0.395  -0.036  0.00  0.00    -0.453 OA
ATOM     26  C   UNL     1       4.466   0.750  -0.450  0.00  0.00    +0.466 C 
ATOM     27  O   UNL     1       3.668   1.870  -0.024  0.00  0.00    -0.453 OA
ENDBRANCH  18  24
ENDBRANCH  17  18
ENDBRANCH   1  17
TORSDOF 6
