REMARK  Name = ZINC33785184
REMARK  5 active torsions:
REMARK  status: ('A' for Active; 'I' for Inactive)
REMARK    1  A    between atoms: C_4  and  S_7
REMARK    2  A    between atoms: S_7  and  N_10
REMARK    3  A    between atoms: N_10  and  C_11
REMARK    4  A    between atoms: C_23  and  N_25
REMARK    5  A    between atoms: N_25  and  C_26
REMARK                            x       y       z     vdW  Elec       q    Type
REMARK                         _______ _______ _______ _____ _____    ______ ____
ROOT
ATOM      1  C   UNL     1      -1.604   5.574   0.024  0.00  0.00    +0.131 C 
ATOM      2  C   UNL     1      -0.103   5.423  -0.011  0.00  0.00    -0.019 A 
ATOM      3  C   UNL     1       0.946   6.290  -0.055  0.00  0.00    +0.006 A 
ATOM      4  C   UNL     1       2.257   5.812  -0.080  0.00  0.00    +0.001 A 
ATOM      5  C   UNL     1       2.548   4.478  -0.061  0.00  0.00    +0.008 A 
ATOM      6  C   UNL     1       1.491   3.555  -0.015  0.00  0.00    -0.017 A 
ATOM      7  C   UNL     1       0.178   4.061   0.008  0.00  0.00    -0.008 A 
ATOM      8  C   UNL     1      -0.943   3.238   0.052  0.00  0.00    -0.017 A 
ATOM      9  C   UNL     1      -0.747   1.891   0.068  0.00  0.00    +0.006 A 
ATOM     10  C   UNL     1       0.548   1.367   0.051  0.00  0.00    +0.001 A 
ATOM     11  C   UNL     1       1.657   2.160   0.008  0.00  0.00    +0.008 A 
ATOM     12  C   UNL     1      -2.158   4.133   0.065  0.00  0.00    +0.124 C 
ENDROOT
BRANCH   1  13
ATOM     13  N   UNL     1      -2.073   6.266  -1.179  0.00  0.00    -0.180 NA
ATOM     14  H   UNL     1      -1.485   6.215  -2.107  0.00  0.00    +0.149 HD
BRANCH  13  15
ATOM     15  S   UNL     1      -3.346   7.321  -1.084  0.00  0.00    +0.059 S 
ATOM     16  O   UNL     1      -3.547   7.834  -2.394  0.00  0.00    -0.153 OA
ATOM     17  O   UNL     1      -4.372   6.656  -0.360  0.00  0.00    -0.153 OA
BRANCH  15  21
ATOM     18  C   UNL     1      -2.007  10.806   1.476  0.00  0.00    +0.000 A 
ATOM     19  C   UNL     1      -1.883  10.871   0.101  0.00  0.00    +0.002 A 
ATOM     20  C   UNL     1      -2.292   9.807  -0.681  0.00  0.00    +0.028 A 
ATOM     21  C   UNL     1      -2.824   8.678  -0.088  0.00  0.00    +0.105 A 
ATOM     22  C   UNL     1      -2.953   8.615   1.287  0.00  0.00    +0.028 A 
ATOM     23  C   UNL     1      -2.540   9.678   2.069  0.00  0.00    +0.002 A 
ENDBRANCH  15  21
ENDBRANCH  13  15
ENDBRANCH   1  13
BRANCH  12  24
ATOM     24  N   UNL     1      -2.931   3.921   1.292  0.00  0.00    -0.334 N 
ATOM     25  H   UNL     1      -2.725   4.532   2.184  0.00  0.00    +0.147 HD
BRANCH  24  26
ATOM     26  C   UNL     1      -3.929   2.944   1.329  0.00  0.00    +0.042 A 
ATOM     27  C   UNL     1      -4.190   2.173   0.204  0.00  0.00    +0.024 A 
ATOM     28  C   UNL     1      -5.177   1.208   0.243  0.00  0.00    +0.002 A 
ATOM     29  C   UNL     1      -5.906   1.009   1.402  0.00  0.00    +0.001 A 
ATOM     30  C   UNL     1      -5.649   1.775   2.524  0.00  0.00    +0.017 A 
ATOM     31  C   UNL     1      -4.659   2.738   2.493  0.00  0.00    +0.039 A 
ATOM     32 BR   UNL     1      -4.303   3.780   4.031  0.00  0.00    -0.048 Br
ENDBRANCH  24  26
ENDBRANCH  12  24
TORSDOF 5
