REMARK  Name = ZINC05050493
REMARK  9 active torsions:
REMARK  status: ('A' for Active; 'I' for Inactive)
REMARK    1  A    between atoms: C_1  and  C_2
REMARK    2  A    between atoms: C_2  and  C_22
REMARK    3  A    between atoms: C_4  and  N_9
REMARK    4  A    between atoms: C_6  and  C_7
REMARK    5  A    between atoms: C_6  and  C_8
REMARK    6  A    between atoms: N_9  and  S_10
REMARK    7  A    between atoms: S_10  and  C_13
REMARK    8  A    between atoms: C_17  and  O_19
REMARK    9  A    between atoms: O_19  and  C_20
REMARK                            x       y       z     vdW  Elec       q    Type
REMARK                         _______ _______ _______ _____ _____    ______ ____
ROOT
ATOM      1  N   UNL     1       0.376   5.050  -1.216  0.00  0.00    -0.187 NA
ATOM      2  H   UNL     1       0.442   5.551  -0.388  0.00  0.00    +0.148 HD
ENDROOT
BRANCH   1   6
ATOM      3  C   UNL     1      -0.958   0.983  -2.263  0.00  0.00    -0.010 C 
ATOM      4  C   UNL     1      -1.049   1.551  -0.842  0.00  0.00    -0.072 C 
ATOM      5  C   UNL     1      -1.030   3.077  -0.900  0.00  0.00    +0.007 C 
ATOM      6  C   UNL     1       0.383   3.582  -1.188  0.00  0.00    +0.074 C 
ATOM      7  C   UNL     1       1.307   3.104  -0.068  0.00  0.00    +0.007 C 
ATOM      8  C   UNL     1       1.318   1.579  -0.002  0.00  0.00    -0.072 C 
ATOM      9  C   UNL     1       2.027   1.175   1.309  0.00  0.00    -0.010 C 
ATOM     10  C   UNL     1       2.153   1.022  -1.161  0.00  0.00    -0.010 C 
ATOM     11  C   UNL     1      -2.418   1.125  -0.266  0.00  0.00    -0.010 C 
ATOM     12  N   UNL     1      -0.027   0.945   0.053  0.00  0.00    +0.386 N 
ATOM     13  H   UNL     1       0.076  -0.043  -0.206  0.00  0.00    -0.084 HD
ATOM     14  H   UNL     1      -0.370   1.012   1.019  0.00  0.00    -0.084 HD
ENDBRANCH   1   6
BRANCH   1  15
ATOM     15  S   UNL     1       0.256   5.849  -2.661  0.00  0.00    +0.059 S 
ATOM     16  O   UNL     1       0.249   7.238  -2.358  0.00  0.00    -0.153 OA
ATOM     17  O   UNL     1       1.215   5.264  -3.530  0.00  0.00    -0.153 OA
BRANCH  15  18
ATOM     18  C   UNL     1      -1.329   5.473  -3.334  0.00  0.00    +0.109 A 
ATOM     19  C   UNL     1      -2.415   6.275  -3.034  0.00  0.00    +0.030 A 
ATOM     20  C   UNL     1      -3.659   5.983  -3.560  0.00  0.00    +0.021 A 
ATOM     21  C   UNL     1      -3.821   4.888  -4.388  0.00  0.00    +0.060 A 
ATOM     22  C   UNL     1      -2.732   4.082  -4.691  0.00  0.00    +0.136 A 
ATOM     23  C   UNL     1      -1.484   4.381  -4.166  0.00  0.00    +0.075 A 
ATOM     24 BR   UNL     1      -5.523   4.489  -5.108  0.00  0.00    -0.047 Br
BRANCH  22  25
ATOM     25  O   UNL     1      -2.888   3.005  -5.505  0.00  0.00    -0.494 OA
ATOM     26  C   UNL     1      -1.724   2.221  -5.774  0.00  0.00    +0.277 C 
ENDBRANCH  22  25
ENDBRANCH  15  18
ENDBRANCH   1  15
TORSDOF 4
