REMARK  Name = ZINC63823637
REMARK  6 active torsions:
REMARK  status: ('A' for Active; 'I' for Inactive)
REMARK    1  A    between atoms: C_1  and  C_2
REMARK    2  A    between atoms: C_4  and  C_21
REMARK    3  A    between atoms: N_12  and  C_14
REMARK    4  A    between atoms: C_25  and  O_27
REMARK    5  A    between atoms: O_27  and  C_28
REMARK    6  A    between atoms: C_28  and  C_29
REMARK                            x       y       z     vdW  Elec       q    Type
REMARK                         _______ _______ _______ _____ _____    ______ ____
ROOT
ATOM      1  C   UNL     1      -0.018   1.503   0.010  0.00  0.00    +0.062 C 
ATOM      2  C   UNL     1       0.002  -0.004   0.002  0.00  0.00    +0.022 C 
ATOM      3  C   UNL     1      -1.064  -0.752   0.003  0.00  0.00    -0.004 C 
ATOM      4  C   UNL     1      -2.522  -0.386  -0.141  0.00  0.00    +0.059 C 
ATOM      5  C   UNL     1      -3.018  -1.085  -1.415  0.00  0.00    +0.108 C 
ATOM      6  C   UNL     1      -2.419  -2.446  -1.570  0.00  0.00    +0.216 C 
ATOM      7  O   UNL     1      -3.009  -3.211  -2.304  0.00  0.00    -0.276 OA
ATOM      8  N   UNL     1      -1.312  -2.916  -0.995  0.00  0.00    -0.292 N 
ATOM      9  C   UNL     1      -0.615  -2.203   0.068  0.00  0.00    +0.210 C 
ATOM     10  N   UNL     1       0.833  -2.133  -0.134  0.00  0.00    -0.210 N 
ATOM     11  N   UNL     1       1.158  -0.770  -0.014  0.00  0.00    -0.265 N 
ATOM     12  H   UNL     1      -0.956  -3.766  -1.296  0.00  0.00    +0.151 HD
ATOM     13  H   UNL     1       2.060  -0.417   0.051  0.00  0.00    +0.170 HD
ENDROOT
BRANCH  10  14
ATOM     14  C   UNL     1       1.703  -3.189  -0.396  0.00  0.00    +0.162 A 
ATOM     15  C   UNL     1       3.066  -2.947  -0.565  0.00  0.00    +0.052 A 
ATOM     16  C   UNL     1       3.890  -4.030  -0.823  0.00  0.00    +0.077 A 
ATOM     17  C   UNL     1       3.306  -5.293  -0.899  0.00  0.00    +0.289 A 
ATOM     18  O   UNL     1       4.075  -6.383  -1.150  0.00  0.00    -0.264 OA
ATOM     19  N   UNL     1       2.003  -5.427  -0.726  0.00  0.00    -0.105 NA
ATOM     20  N   UNL     1       1.238  -4.425  -0.480  0.00  0.00    -0.129 NA
ENDBRANCH  10  14
BRANCH   4  21
ATOM     21  C   UNL     1      -3.299  -0.873   1.055  0.00  0.00    -0.036 A 
ATOM     22  C   UNL     1      -3.326  -2.222   1.358  0.00  0.00    +0.004 A 
ATOM     23  C   UNL     1      -4.038  -2.672   2.455  0.00  0.00    +0.004 A 
ATOM     24  C   UNL     1      -4.724  -1.775   3.250  0.00  0.00    +0.045 A 
ATOM     25  C   UNL     1      -4.698  -0.421   2.948  0.00  0.00    +0.121 A 
ATOM     26  C   UNL     1      -3.978   0.029   1.850  0.00  0.00    +0.050 A 
BRANCH  25  27
ATOM     27  O   UNL     1      -5.373   0.464   3.728  0.00  0.00    -0.488 OA
BRANCH  27  28
ATOM     28  C   UNL     1      -6.088  -0.070   4.845  0.00  0.00    +0.256 C 
BRANCH  28  29
ATOM     29  C   UNL     1      -6.768   1.051   5.588  0.00  0.00    +0.006 C 
ATOM     30  C   UNL     1      -8.012   0.919   5.976  0.00  0.00    +0.007 C 
ENDBRANCH  28  29
ENDBRANCH  27  28
ENDBRANCH  25  27
ENDBRANCH   4  21
TORSDOF 5
