REMARK  Name = ZINC11670630
REMARK  8 active torsions:
REMARK  status: ('A' for Active; 'I' for Inactive)
REMARK    1  A    between atoms: C_1  and  N_2
REMARK    2  A    between atoms: N_2  and  C_3
REMARK    3  A    between atoms: C_3  and  C_4
REMARK    4  A    between atoms: C_12  and  C_14
REMARK    5  A    between atoms: C_14  and  S_15
REMARK    6  A    between atoms: S_15  and  C_16
REMARK    7  A    between atoms: C_19  and  C_22
REMARK    8  A    between atoms: N_20  and  N_21
REMARK                            x       y       z     vdW  Elec       q    Type
REMARK                         _______ _______ _______ _____ _____    ______ ____
ROOT
ATOM      1  C   UNL     1      -5.171  -3.569  -0.033  0.00  0.00    +0.173 C 
ENDROOT
BRANCH   1   4
ATOM      2  C   UNL     1      -6.043  -6.232   0.391  0.00  0.00    +0.132 C 
ATOM      3  N   UNL     1      -7.025  -5.206   0.030  0.00  0.00    -0.299 N 
ATOM      4  C   UNL     1      -6.626  -3.935  -0.175  0.00  0.00    +0.226 C 
ATOM      5  O   UNL     1      -7.439  -3.086  -0.474  0.00  0.00    -0.275 OA
BRANCH   3   6
ATOM      6  C   UNL     1      -8.439  -5.562  -0.108  0.00  0.00    +0.147 C 
BRANCH   6   7
ATOM      7  C   UNL     1      -8.717  -5.971  -1.532  0.00  0.00    +0.023 A 
ATOM      8  C   UNL     1      -8.586  -7.296  -1.910  0.00  0.00    +0.129 A 
ATOM      9  C   UNL     1      -8.842  -7.670  -3.219  0.00  0.00    +0.039 A 
ATOM     10  C   UNL     1      -9.228  -6.721  -4.146  0.00  0.00    +0.004 A 
ATOM     11  C   UNL     1      -9.360  -5.398  -3.768  0.00  0.00    +0.020 A 
ATOM     12  C   UNL     1      -9.109  -5.023  -2.460  0.00  0.00    +0.048 A 
ATOM     13 CL   UNL     1      -9.281  -3.362  -1.985  0.00  0.00    -0.083 Cl
ATOM     14  F   UNL     1      -8.209  -8.223  -1.004  0.00  0.00    -0.205 F 
ENDBRANCH   6   7
ENDBRANCH   3   6
ENDBRANCH   1   4
BRANCH   1  15
ATOM     15  S   UNL     1      -4.957  -1.804  -0.368  0.00  0.00    -0.075 S 
BRANCH  15  16
ATOM     16  C   UNL     1      -3.217  -1.657  -0.137  0.00  0.00    +0.209 A 
ATOM     17  N   UNL     1      -2.390  -2.625   0.189  0.00  0.00    -0.120 NA
ATOM     18  N   UNL     1      -1.190  -2.172   0.275  0.00  0.00    -0.123 NA
ATOM     19  C   UNL     1      -1.177  -0.884   0.008  0.00  0.00    +0.217 A 
ATOM     20  N   UNL     1      -2.477  -0.514  -0.259  0.00  0.00    -0.221 N 
BRANCH  19  21
ATOM     21  C   UNL     1       0.002  -0.004   0.002  0.00  0.00    +0.173 A 
ATOM     22  C   UNL     1       1.303  -0.409  -0.013  0.00  0.00    +0.053 A 
ATOM     23  C   UNL     1       2.091   0.758  -0.014  0.00  0.00    +0.042 A 
ATOM     24  C   UNL     1       1.245   1.807  -0.000  0.00  0.00    +0.196 A 
ATOM     25  O   UNL     1      -0.016   1.343   0.009  0.00  0.00    -0.460 OA
ENDBRANCH  19  21
BRANCH  20  26
ATOM     26  N   UNL     1      -2.931   0.733  -0.582  0.00  0.00    -0.294 N 
ATOM     27  H   UNL     1      -2.916   0.876  -1.580  0.00  0.00    +0.163 HD
ATOM     28  H   UNL     1      -3.854   0.890  -0.207  0.00  0.00    +0.163 HD
ENDBRANCH  20  26
ENDBRANCH  15  16
ENDBRANCH   1  15
TORSDOF 7
