REMARK  Name = ZINC09551943
REMARK  8 active torsions:
REMARK  status: ('A' for Active; 'I' for Inactive)
REMARK    1  A    between atoms: C_1  and  C_2
REMARK    2  A    between atoms: C_3  and  C_25
REMARK    3  A    between atoms: C_9  and  C_12
REMARK    4  A    between atoms: C_12  and  O_14
REMARK    5  A    between atoms: O_14  and  C_15
REMARK    6  A    between atoms: C_15  and  C_17
REMARK    7  A    between atoms: C_15  and  C_18
REMARK    8  A    between atoms: N_23  and  C_24
REMARK                            x       y       z     vdW  Elec       q    Type
REMARK                         _______ _______ _______ _____ _____    ______ ____
ROOT
ATOM      1  C   UNL     1      -1.691   0.780  -1.663  0.00  0.00    +0.340 C 
ATOM      2  O   UNL     1      -1.948  -0.279  -1.126  0.00  0.00    -0.245 OA
ENDROOT
BRANCH   1  11
ATOM      3  C   UNL     1      -5.936  -1.098  -5.028  0.00  0.00    +0.046 C 
ATOM      4  C   UNL     1      -5.252   0.221  -5.280  0.00  0.00    -0.022 A 
ATOM      5  C   UNL     1      -5.526   1.086  -6.269  0.00  0.00    +0.017 A 
ATOM      6  N   UNL     1      -4.700   2.174  -6.179  0.00  0.00    -0.358 N 
ATOM      7  H   UNL     1      -4.710   2.932  -6.785  0.00  0.00    +0.166 HD
ATOM      8  C   UNL     1      -3.853   2.034  -5.106  0.00  0.00    +0.047 A 
ATOM      9  C   UNL     1      -4.161   0.803  -4.493  0.00  0.00    +0.004 A 
ATOM     10  C   UNL     1      -3.455   0.391  -3.367  0.00  0.00    +0.025 A 
ATOM     11  C   UNL     1      -2.447   1.204  -2.856  0.00  0.00    +0.060 A 
ATOM     12  C   UNL     1      -2.154   2.429  -3.472  0.00  0.00    +0.017 A 
ATOM     13  C   UNL     1      -2.841   2.833  -4.578  0.00  0.00    +0.027 A 
ATOM     14  C   UNL     1      -6.585   0.890  -7.322  0.00  0.00    +0.063 C 
ENDBRANCH   1  11
BRANCH   1  15
ATOM     15  O   UNL     1      -0.715   1.567  -1.168  0.00  0.00    -0.449 OA
BRANCH  15  16
ATOM     16  C   UNL     1      -0.013   1.086   0.008  0.00  0.00    +0.259 C 
ATOM     17  C   UNL     1      -0.729   1.579   1.267  0.00  0.00    +0.062 C 
BRANCH  16  18
ATOM     18  C   UNL     1       1.401   1.607  -0.003  0.00  0.00    +0.261 C 
ATOM     19  O   UNL     1       1.753   2.387  -0.862  0.00  0.00    -0.271 OA
ATOM     20  N   UNL     1       2.274   1.208   0.943  0.00  0.00    -0.237 N 
ATOM     21  C   UNL     1       3.538   1.674   0.933  0.00  0.00    +0.306 C 
ATOM     22  O   UNL     1       3.892   2.455   0.072  0.00  0.00    -0.252 OA
ATOM     23  N   UNL     1       4.412   1.274   1.879  0.00  0.00    -0.302 N 
ATOM     24  C   UNL     1       5.786   1.781   1.869  0.00  0.00    +0.129 C 
ATOM     25  H   UNL     1       1.992   0.584   1.631  0.00  0.00    +0.159 HD
ATOM     26  H   UNL     1       4.130   0.650   2.567  0.00  0.00    +0.150 HD
ENDBRANCH  16  18
ENDBRANCH  15  16
ENDBRANCH   1  15
TORSDOF 4
