REMARK  Name = ZINC36064893
REMARK  10 active torsions:
REMARK  status: ('A' for Active; 'I' for Inactive)
REMARK    1  A    between atoms: C_1  and  C_2
REMARK    2  A    between atoms: C_3  and  C_31
REMARK    3  A    between atoms: C_4  and  C_24
REMARK    4  A    between atoms: C_7  and  C_12
REMARK    5  A    between atoms: C_13  and  N_15
REMARK    6  A    between atoms: C_21  and  C_23
REMARK    7  A    between atoms: C_31  and  O_33
REMARK    8  A    between atoms: O_33  and  C_34
REMARK    9  A    between atoms: C_34  and  C_35
REMARK   10  A    between atoms: C_34  and  C_36
REMARK                            x       y       z     vdW  Elec       q    Type
REMARK                         _______ _______ _______ _____ _____    ______ ____
ROOT
ATOM      1  C   UNL     1      -0.597   2.044   0.559  0.00  0.00    +0.066 C 
ATOM      2  C   UNL     1      -0.542   0.543   0.442  0.00  0.00    +0.053 C 
ATOM      3  C   UNL     1      -1.715  -0.186   0.405  0.00  0.00    +0.082 C 
ATOM      4  C   UNL     1      -1.607  -1.690   0.286  0.00  0.00    +0.150 C 
ATOM      5  N   UNL     1      -0.238  -2.267   0.218  0.00  0.00    -0.267 N 
ATOM      6  C   UNL     1       0.097  -3.602   0.109  0.00  0.00    +0.048 C 
ATOM      7  C   UNL     1       1.410  -3.918   0.062  0.00  0.00    +0.072 C 
ATOM      8  S   UNL     1       2.178  -2.314   0.174  0.00  0.00    -0.060 S 
ATOM      9  C   UNL     1       0.793  -1.371   0.271  0.00  0.00    +0.166 C 
ATOM     10  N   UNL     1       0.630  -0.068   0.370  0.00  0.00    -0.230 NA
ENDROOT
BRANCH   4  11
ATOM     11  C   UNL     1      -2.350  -2.112  -0.956  0.00  0.00    -0.022 A 
ATOM     12  C   UNL     1      -1.799  -1.880  -2.202  0.00  0.00    +0.007 A 
ATOM     13  C   UNL     1      -2.479  -2.267  -3.341  0.00  0.00    +0.020 A 
ATOM     14  C   UNL     1      -3.712  -2.886  -3.234  0.00  0.00    +0.041 A 
ATOM     15  C   UNL     1      -4.263  -3.117  -1.986  0.00  0.00    +0.020 A 
ATOM     16  C   UNL     1      -3.579  -2.735  -0.847  0.00  0.00    +0.007 A 
ATOM     17 CL   UNL     1      -4.567  -3.371  -4.664  0.00  0.00    -0.084 Cl
ENDBRANCH   4  11
BRANCH   6  18
ATOM     18  C   UNL     1      -0.939  -4.644   0.045  0.00  0.00    +0.091 C 
ATOM     19  C   UNL     1      -0.591  -5.944   0.104  0.00  0.00    +0.241 C 
ATOM     20  O   UNL     1       0.691  -6.291   0.374  0.00  0.00    -0.271 OA
BRANCH  19  21
ATOM     21  N   UNL     1      -1.543  -6.925  -0.112  0.00  0.00    -0.295 N 
ATOM     22  C   UNL     1      -2.718  -6.656  -0.953  0.00  0.00    +0.127 C 
ATOM     23  C   UNL     1      -2.778  -7.710  -2.065  0.00  0.00    +0.126 C 
ATOM     24  N   UNL     1      -2.631  -9.041  -1.458  0.00  0.00    -0.299 N 
ATOM     25  C   UNL     1      -1.456  -9.311  -0.618  0.00  0.00    +0.126 C 
ATOM     26  C   UNL     1      -1.394  -8.258   0.490  0.00  0.00    +0.127 C 
ATOM     27  C   UNL     1      -3.558  -9.997  -1.669  0.00  0.00    +0.213 C 
ATOM     28  O   UNL     1      -4.476  -9.793  -2.436  0.00  0.00    -0.276 OA
ATOM     29  C   UNL     1      -3.454 -11.318  -0.952  0.00  0.00    +0.109 C 
ENDBRANCH  19  21
ENDBRANCH   6  18
BRANCH   3  30
ATOM     30  C   UNL     1      -2.962   0.446   0.476  0.00  0.00    +0.339 C 
ATOM     31  O   UNL     1      -3.025   1.659   0.571  0.00  0.00    -0.245 OA
BRANCH  30  32
ATOM     32  O   UNL     1      -4.096  -0.289   0.438  0.00  0.00    -0.459 OA
BRANCH  32  33
ATOM     33  C   UNL     1      -5.333   0.422   0.514  0.00  0.00    +0.171 C 
ATOM     34  C   UNL     1      -5.799   0.788  -0.897  0.00  0.00    +0.052 C 
ATOM     35  C   UNL     1      -6.387  -0.459   1.187  0.00  0.00    +0.052 C 
ENDBRANCH  32  33
ENDBRANCH  30  32
ENDBRANCH   3  30
TORSDOF 6
