REMARK  Name = ZINC55913294
REMARK  7 active torsions:
REMARK  status: ('A' for Active; 'I' for Inactive)
REMARK    1  A    between atoms: C_1  and  C_2
REMARK    2  A    between atoms: C_5  and  N_9
REMARK    3  A    between atoms: C_10  and  C_12
REMARK    4  A    between atoms: C_12  and  C_14
REMARK    5  A    between atoms: C_12  and  N_15
REMARK    6  A    between atoms: C_18  and  C_21
REMARK    7  A    between atoms: N_23  and  C_24
REMARK                            x       y       z     vdW  Elec       q    Type
REMARK                         _______ _______ _______ _____ _____    ______ ____
ROOT
ATOM      1  C   UNL     1      -0.136  -6.343  -1.191  0.00  0.00    +0.016 C 
ATOM      2  C   UNL     1      -1.410  -6.830  -0.497  0.00  0.00    -0.004 C 
ENDROOT
BRANCH   1   3
ATOM      3  N   UNL     1      -0.114  -6.834  -2.575  0.00  0.00    +0.387 N 
ATOM      4  C   UNL     1       1.077  -6.314  -3.258  0.00  0.00    -0.077 C 
ATOM      5  C   UNL     1       1.063  -6.756  -4.723  0.00  0.00    -0.006 C 
ATOM      6  C   UNL     1       1.063  -8.286  -4.789  0.00  0.00    +0.071 C 
ATOM      7  C   UNL     1      -0.143  -8.820  -4.010  0.00  0.00    -0.006 C 
ATOM      8  C   UNL     1      -0.085  -8.302  -2.572  0.00  0.00    -0.077 C 
ATOM      9  H   UNL     1      -0.941  -6.516  -3.057  0.00  0.00    -0.081 HD
BRANCH   6  10
ATOM     10  C   UNL     1       0.970  -8.728  -6.226  0.00  0.00    +0.216 C 
ATOM     11  O   UNL     1       0.911  -7.902  -7.112  0.00  0.00    -0.276 OA
ATOM     12  N   UNL     1       0.954 -10.042  -6.528  0.00  0.00    -0.312 N 
ATOM     13  H   UNL     1       1.002 -10.702  -5.819  0.00  0.00    +0.149 HD
BRANCH  12  14
ATOM     14  C   UNL     1       0.864 -10.472  -7.925  0.00  0.00    +0.073 C 
ATOM     15  C   UNL     1      -0.093 -11.620  -8.251  0.00  0.00    +0.024 C 
ATOM     16  C   UNL     1       1.419 -11.854  -8.276  0.00  0.00    +0.024 C 
ENDBRANCH  12  14
ENDBRANCH   6  10
ENDBRANCH   1   3
BRANCH   1  18
ATOM     17  N   UNL     1       0.402  -4.171  -0.137  0.00  0.00    -0.286 N 
ATOM     18  C   UNL     1      -0.109  -4.836  -1.192  0.00  0.00    +0.203 C 
ATOM     19  O   UNL     1      -0.548  -4.223  -2.141  0.00  0.00    -0.277 OA
ATOM     20  H   UNL     1       0.822  -4.660   0.588  0.00  0.00    +0.155 HD
BRANCH  17  25
ATOM     21  C   UNL     1       0.097   1.492   0.063  0.00  0.00    +0.044 C 
ATOM     22  C   UNL     1       0.179  -0.012   0.010  0.00  0.00    -0.049 A 
ATOM     23  C   UNL     1      -0.688  -0.722  -0.801  0.00  0.00    +0.005 A 
ATOM     24  C   UNL     1      -0.616  -2.100  -0.852  0.00  0.00    +0.025 A 
ATOM     25  C   UNL     1       0.328  -2.774  -0.088  0.00  0.00    +0.052 A 
ATOM     26  C   UNL     1       1.197  -2.058   0.726  0.00  0.00    +0.062 A 
ATOM     27  C   UNL     1       1.124  -0.679   0.768  0.00  0.00    +0.025 A 
ATOM     28 CL   UNL     1       2.379  -2.895   1.683  0.00  0.00    -0.082 Cl
ENDBRANCH  17  25
ENDBRANCH   1  18
TORSDOF 5
