REMARK  Name = ZINC60211476
REMARK  7 active torsions:
REMARK  status: ('A' for Active; 'I' for Inactive)
REMARK    1  A    between atoms: C_1  and  C_2
REMARK    2  A    between atoms: C_5  and  C_9
REMARK    3  A    between atoms: C_6  and  C_8
REMARK    4  A    between atoms: C_11  and  C_14
REMARK    5  A    between atoms: N_16  and  N_17
REMARK    6  A    between atoms: C_18  and  C_20
REMARK    7  A    between atoms: C_20  and  C_21
REMARK                            x       y       z     vdW  Elec       q    Type
REMARK                         _______ _______ _______ _____ _____    ______ ____
ROOT
ATOM      1  C   UNL     1      -0.692  -7.107  -2.452  0.00  0.00    +0.279 C 
ATOM      2  O   UNL     1      -0.841  -8.308  -2.332  0.00  0.00    -0.267 OA
ATOM      3  N   UNL     1      -0.625  -6.556  -3.680  0.00  0.00    -0.229 N 
ATOM      4  H   UNL     1      -0.506  -5.598  -3.776  0.00  0.00    +0.173 HD
ENDROOT
BRANCH   1   7
ATOM      5  C   UNL     1      -0.330  -4.218  -0.277  0.00  0.00    +0.109 A 
ATOM      6  N   UNL     1      -0.422  -4.944  -1.376  0.00  0.00    -0.234 NA
ATOM      7  C   UNL     1      -0.584  -6.255  -1.255  0.00  0.00    +0.135 A 
ATOM      8  C   UNL     1      -0.650  -6.805  -0.002  0.00  0.00    +0.080 A 
ATOM      9  S   UNL     1      -0.474  -5.460   0.995  0.00  0.00    -0.075 S 
BRANCH   5  14
ATOM     10  C   UNL     1       0.376   1.468   0.268  0.00  0.00    +0.044 C 
ATOM     11  C   UNL     1       0.191  -0.021   0.125  0.00  0.00    -0.050 A 
ATOM     12  C   UNL     1      -0.767  -0.671   0.882  0.00  0.00    +0.004 A 
ATOM     13  C   UNL     1      -0.941  -2.034   0.756  0.00  0.00    +0.011 A 
ATOM     14  C   UNL     1      -0.149  -2.756  -0.137  0.00  0.00    +0.010 A 
ATOM     15  C   UNL     1       0.815  -2.094  -0.897  0.00  0.00    -0.041 A 
ATOM     16  C   UNL     1       0.976  -0.730  -0.766  0.00  0.00    +0.007 A 
ATOM     17  C   UNL     1       1.676  -2.866  -1.864  0.00  0.00    +0.044 C 
ENDBRANCH   5  14
ENDBRANCH   1   7
BRANCH   3  18
ATOM     18  N   UNL     1      -0.728  -7.366  -4.818  0.00  0.00    -0.234 N 
ATOM     19  C   UNL     1      -0.661  -6.815  -6.046  0.00  0.00    +0.233 C 
ATOM     20  O   UNL     1      -0.513  -5.617  -6.166  0.00  0.00    -0.274 OA
ATOM     21  H   UNL     1      -0.847  -8.324  -4.722  0.00  0.00    +0.173 HD
BRANCH  19  22
ATOM     22  C   UNL     1      -0.772  -7.687  -7.270  0.00  0.00    +0.132 C 
BRANCH  22  23
ATOM     23  C   UNL     1      -0.667  -6.832  -8.507  0.00  0.00    -0.038 A 
ATOM     24  C   UNL     1      -1.807  -6.288  -9.069  0.00  0.00    +0.007 A 
ATOM     25  C   UNL     1      -1.713  -5.503 -10.202  0.00  0.00    +0.038 A 
ATOM     26  C   UNL     1      -0.476  -5.263 -10.776  0.00  0.00    +0.123 A 
ATOM     27  C   UNL     1       0.665  -5.808 -10.213  0.00  0.00    +0.038 A 
ATOM     28  C   UNL     1       0.569  -6.588  -9.076  0.00  0.00    +0.007 A 
ATOM     29  F   UNL     1      -0.382  -4.496 -11.884  0.00  0.00    -0.205 F 
ENDBRANCH  22  23
ENDBRANCH  19  22
ENDBRANCH   3  18
TORSDOF 5
