REMARK  Name = ZINC06198324
REMARK  11 active torsions:
REMARK  status: ('A' for Active; 'I' for Inactive)
REMARK    1  A    between atoms: C_1  and  C_2
REMARK    2  A    between atoms: C_2  and  C_3
REMARK    3  A    between atoms: C_10  and  C_15
REMARK    4  A    between atoms: C_15  and  C_17
REMARK    5  A    between atoms: C_15  and  N_66
REMARK    6  A    between atoms: N_21  and  C_22
REMARK    7  A    between atoms: C_22  and  C_23
REMARK    8  A    between atoms: C_30  and  C_31
REMARK    9  A    between atoms: C_30  and  N_66
REMARK   10  A    between atoms: C_32  and  C_33
REMARK   11  A    between atoms: C_32  and  N_66
REMARK                            x       y       z     vdW  Elec       q    Type
REMARK                         _______ _______ _______ _____ _____    ______ ____
ROOT
ATOM      1  C   UNL     1       2.883   1.693  -2.674  0.00  0.00    +0.039 C 
ENDROOT
BRANCH   1   9
ATOM      2  C   UNL     1       2.467   7.125  -5.608  0.00  0.00    -0.047 A 
ATOM      3  C   UNL     1       3.822   7.424  -5.575  0.00  0.00    +0.005 A 
ATOM      4  C   UNL     1       4.720   6.558  -4.989  0.00  0.00    +0.026 A 
ATOM      5  C   UNL     1       4.265   5.370  -4.426  0.00  0.00    +0.049 A 
ATOM      6  C   UNL     1       2.890   5.070  -4.461  0.00  0.00    -0.001 A 
ATOM      7  C   UNL     1       1.998   5.965  -5.061  0.00  0.00    +0.013 A 
ATOM      8  C   UNL     1       2.421   3.818  -3.865  0.00  0.00    +0.017 A 
ATOM      9  C   UNL     1       3.333   2.990  -3.297  0.00  0.00    +0.011 A 
ATOM     10  C   UNL     1       4.700   3.340  -3.283  0.00  0.00    +0.251 A 
ATOM     11  O   UNL     1       5.502   2.584  -2.763  0.00  0.00    -0.268 OA
ATOM     12  N   UNL     1       5.140   4.485  -3.833  0.00  0.00    -0.322 N 
ATOM     13  H   UNL     1       6.117   4.698  -3.812  0.00  0.00    +0.169 HD
BRANCH   2  15
ATOM     14  C   UNL     1       1.000   9.084  -5.208  0.00  0.00    +0.009 C 
ATOM     15  C   UNL     1       1.505   8.089  -6.255  0.00  0.00    +0.032 C 
ENDBRANCH   2  15
ENDBRANCH   1   9
BRANCH   1  16
ATOM     16  C   UNL     1       3.110   1.746  -1.185  0.00  0.00    +0.143 A 
ATOM     17  N   UNL     1       4.261   1.657  -0.565  0.00  0.00    -0.115 NA
ATOM     18  N   UNL     1       4.039   1.745   0.701  0.00  0.00    -0.023 NA
ATOM     19  N   UNL     1       2.777   1.893   0.904  0.00  0.00    -0.044 NA
ATOM     20  N   UNL     1       2.169   1.893  -0.234  0.00  0.00    -0.226 N 
BRANCH  20  21
ATOM     21  C   UNL     1       0.727   2.033  -0.451  0.00  0.00    +0.182 C 
BRANCH  21  22
ATOM     22  C   UNL     1       0.069   0.683  -0.337  0.00  0.00    -0.026 A 
ATOM     23  C   UNL     1      -0.079  -0.111  -1.459  0.00  0.00    +0.008 A 
ATOM     24  C   UNL     1      -0.679  -1.351  -1.355  0.00  0.00    +0.038 A 
ATOM     25  C   UNL     1      -1.141  -1.796  -0.128  0.00  0.00    +0.123 A 
ATOM     26  C   UNL     1      -0.997  -0.998   0.995  0.00  0.00    +0.038 A 
ATOM     27  C   UNL     1      -0.392   0.240   0.889  0.00  0.00    +0.008 A 
ATOM     28  F   UNL     1      -1.731  -3.007  -0.025  0.00  0.00    -0.205 F 
ENDBRANCH  21  22
ENDBRANCH  20  21
ENDBRANCH   1  16
BRANCH   1  29
ATOM     29  N   UNL     1       3.682   0.588  -3.245  0.00  0.00    +0.392 N 
ATOM     30  H   UNL     1       4.679   0.806  -3.136  0.00  0.00    -0.080 HD
BRANCH  29  31
ATOM     31  C   UNL     1       3.377   0.434  -4.683  0.00  0.00    -0.080 C 
ATOM     32  C   UNL     1       4.132   1.514  -5.461  0.00  0.00    -0.017 C 
ENDBRANCH  29  31
BRANCH  29  33
ATOM     33  C   UNL     1       3.385  -0.671  -2.529  0.00  0.00    -0.042 C 
BRANCH  33  34
ATOM     34  C   UNL     1       4.244  -0.733  -1.291  0.00  0.00    -0.064 A 
ATOM     35  C   UNL     1       5.621  -0.727  -1.405  0.00  0.00    +0.002 A 
ATOM     36  C   UNL     1       6.408  -0.779  -0.269  0.00  0.00    +0.000 A 
ATOM     37  C   UNL     1       5.818  -0.849   0.979  0.00  0.00    +0.000 A 
ATOM     38  C   UNL     1       4.440  -0.861   1.091  0.00  0.00    +0.000 A 
ATOM     39  C   UNL     1       3.653  -0.803  -0.043  0.00  0.00    +0.002 A 
ENDBRANCH  33  34
ENDBRANCH  29  33
ENDBRANCH   1  29
TORSDOF 9
