REMARK  Name = ZINC01795872
REMARK  8 active torsions:
REMARK  status: ('A' for Active; 'I' for Inactive)
REMARK    1  A    between atoms: C_3  and  S_6
REMARK    2  A    between atoms: S_6  and  N_9
REMARK    3  A    between atoms: N_9  and  C_10
REMARK    4  A    between atoms: C_13  and  O_16
REMARK    5  A    between atoms: O_16  and  C_17
REMARK    6  A    between atoms: C_20  and  N_23
REMARK    7  A    between atoms: N_23  and  S_24
REMARK    8  A    between atoms: S_24  and  C_27
REMARK                            x       y       z     vdW  Elec       q    Type
REMARK                         _______ _______ _______ _____ _____    ______ ____
ROOT
ATOM      1  O   UNL     1      -2.332   7.159  -2.840  0.00  0.00    -0.456 OA
ENDROOT
BRANCH   1   5
ATOM      2  C   UNL     1      -1.208   3.292  -1.932  0.00  0.00    +0.048 A 
ATOM      3  C   UNL     1      -1.301   3.695  -3.257  0.00  0.00    +0.028 A 
ATOM      4  C   UNL     1      -1.683   4.987  -3.560  0.00  0.00    +0.048 A 
ATOM      5  C   UNL     1      -1.962   5.886  -2.541  0.00  0.00    +0.129 A 
ATOM      6  C   UNL     1      -1.863   5.485  -1.216  0.00  0.00    +0.048 A 
ATOM      7  C   UNL     1      -1.487   4.192  -0.912  0.00  0.00    +0.028 A 
BRANCH   2   8
ATOM      8  N   UNL     1      -0.828   1.981  -1.624  0.00  0.00    -0.216 N 
ATOM      9  H   UNL     1      -0.069   1.578  -2.074  0.00  0.00    +0.174 HD
BRANCH   8  10
ATOM     10  S   UNL     1      -1.673   1.117  -0.492  0.00  0.00    +0.079 S 
ATOM     11  O   UNL     1      -1.116  -0.190  -0.479  0.00  0.00    -0.149 OA
ATOM     12  O   UNL     1      -1.738   1.929   0.673  0.00  0.00    -0.149 OA
BRANCH  10  15
ATOM     13  C   UNL     1      -5.214   0.028  -2.149  0.00  0.00    +0.010 A 
ATOM     14  C   UNL     1      -3.884  -0.061  -1.785  0.00  0.00    +0.036 A 
ATOM     15  C   UNL     1      -3.324   0.956  -1.085  0.00  0.00    +0.146 A 
ATOM     16  S   UNL     1      -4.696   2.086  -0.915  0.00  0.00    -0.077 S 
ATOM     17  C   UNL     1      -5.920   1.130  -1.796  0.00  0.00    +0.047 A 
ENDBRANCH  10  15
ENDBRANCH   8  10
ENDBRANCH   2   8
ENDBRANCH   1   5
BRANCH   1  18
ATOM     18  C   UNL     1      -2.683   7.980  -1.813  0.00  0.00    +0.129 A 
ATOM     19  C   UNL     1      -4.021   8.259  -1.576  0.00  0.00    +0.048 A 
ATOM     20  C   UNL     1      -4.379   9.087  -0.530  0.00  0.00    +0.028 A 
ATOM     21  C   UNL     1      -3.398   9.650   0.276  0.00  0.00    +0.048 A 
ATOM     22  C   UNL     1      -2.059   9.374   0.034  0.00  0.00    +0.028 A 
ATOM     23  C   UNL     1      -1.703   8.541  -1.008  0.00  0.00    +0.048 A 
BRANCH  21  24
ATOM     24  N   UNL     1      -3.760  10.494   1.332  0.00  0.00    -0.216 N 
ATOM     25  H   UNL     1      -4.160  10.123   2.134  0.00  0.00    +0.174 HD
BRANCH  24  26
ATOM     26  S   UNL     1      -3.504  12.125   1.213  0.00  0.00    +0.079 S 
ATOM     27  O   UNL     1      -4.005  12.703   2.411  0.00  0.00    -0.149 OA
ATOM     28  O   UNL     1      -2.159  12.296   0.789  0.00  0.00    -0.149 OA
BRANCH  26  29
ATOM     29  C   UNL     1      -4.524  12.718  -0.096  0.00  0.00    +0.146 A 
ATOM     30  C   UNL     1      -5.765  13.259  -0.033  0.00  0.00    +0.036 A 
ATOM     31  C   UNL     1      -6.382  13.659  -1.204  0.00  0.00    +0.010 A 
ATOM     32  C   UNL     1      -5.727  13.499  -2.380  0.00  0.00    +0.047 A 
ATOM     33  S   UNL     1      -4.187  12.768  -1.849  0.00  0.00    -0.077 S 
ENDBRANCH  26  29
ENDBRANCH  24  26
ENDBRANCH  21  24
ENDBRANCH   1  18
TORSDOF 8
