REMARK  Name = ZINC05363820
REMARK  9 active torsions:
REMARK  status: ('A' for Active; 'I' for Inactive)
REMARK    1  A    between atoms: C_1  and  C_2
REMARK    2  A    between atoms: C_5  and  N_26
REMARK    3  A    between atoms: C_7  and  N_8
REMARK    4  A    between atoms: C_9  and  C_11
REMARK    5  A    between atoms: C_11  and  C_12
REMARK    6  A    between atoms: C_12  and  C_25
REMARK    7  A    between atoms: N_13  and  N_14
REMARK    8  A    between atoms: C_15  and  C_17
REMARK    9  A    between atoms: C_22  and  O_23
REMARK                            x       y       z     vdW  Elec       q    Type
REMARK                         _______ _______ _______ _____ _____    ______ ____
ROOT
ATOM      1  C   UNL     1      -1.082  -0.659   0.015  0.00  0.00    +0.043 C 
ATOM      2  N   UNL     1       0.018  -0.005   0.017  0.00  0.00    -0.189 NA
ATOM      3  C   UNL     1      -2.397   0.078   0.021  0.00  0.00    +0.063 C 
ENDROOT
BRANCH   2   4
ATOM      4  N   UNL     1       0.000   1.395   0.025  0.00  0.00    -0.203 N 
ATOM      5  C   UNL     1       1.159   2.084   0.027  0.00  0.00    +0.267 C 
ATOM      6  O   UNL     1       2.220   1.489   0.022  0.00  0.00    -0.268 OA
ATOM      7  H   UNL     1      -0.846   1.870   0.025  0.00  0.00    +0.178 HD
BRANCH   5   8
ATOM      8  C   UNL     1       1.141   3.559   0.036  0.00  0.00    +0.081 A 
ATOM      9  C   UNL     1      -0.076   4.246   0.042  0.00  0.00    +0.036 A 
ATOM     10  C   UNL     1      -0.086   5.625   0.049  0.00  0.00    +0.042 A 
ATOM     11  C   UNL     1       1.106   6.333   0.052  0.00  0.00    +0.023 A 
ATOM     12  C   UNL     1       2.314   5.665   0.046  0.00  0.00    +0.047 A 
ATOM     13  C   UNL     1       2.343   4.279   0.044  0.00  0.00    +0.129 A 
ATOM     14 CL   UNL     1      -1.598   6.478   0.057  0.00  0.00    -0.084 Cl
BRANCH  13  15
ATOM     15  O   UNL     1       3.530   3.622   0.044  0.00  0.00    -0.506 OA
ATOM     16  H   UNL     1       3.877   3.437  -0.839  0.00  0.00    +0.292 HD
ENDBRANCH  13  15
ENDBRANCH   5   8
ENDBRANCH   2   4
BRANCH   1  17
ATOM     17  C   UNL     1      -1.063  -2.166   0.007  0.00  0.00    +0.148 C 
BRANCH  17  19
ATOM     18  N   UNL     1      -1.742  -4.011   1.508  0.00  0.00    -0.285 N 
ATOM     19  C   UNL     1      -1.655  -2.683   1.292  0.00  0.00    +0.223 C 
ATOM     20  O   UNL     1      -2.054  -1.905   2.133  0.00  0.00    -0.275 OA
ATOM     21  H   UNL     1      -1.499  -4.633   0.805  0.00  0.00    +0.155 HD
BRANCH  18  28
ATOM     22  C   UNL     1      -2.905  -6.606   1.606  0.00  0.00    +0.045 C 
ATOM     23  C   UNL     1      -2.757  -5.752   2.839  0.00  0.00    -0.029 A 
ATOM     24  C   UNL     1      -3.192  -6.224   4.062  0.00  0.00    +0.007 A 
ATOM     25  C   UNL     1      -3.056  -5.441   5.194  0.00  0.00    +0.033 A 
ATOM     26  C   UNL     1      -2.486  -4.184   5.105  0.00  0.00    +0.128 A 
ATOM     27  C   UNL     1      -2.045  -3.709   3.885  0.00  0.00    +0.056 A 
ATOM     28  C   UNL     1      -2.184  -4.491   2.746  0.00  0.00    +0.038 A 
BRANCH  26  29
ATOM     29  N   UNL     1      -2.343  -3.350   6.319  0.00  0.00    +0.056 N 
ATOM     30  O   UNL     1      -2.727  -3.770   7.396  0.00  0.00    -0.126 OA
ATOM     31  O   UNL     1      -1.841  -2.243   6.241  0.00  0.00    -0.126 OA
ENDBRANCH  26  29
ENDBRANCH  18  28
ENDBRANCH  17  19
ENDBRANCH   1  17
TORSDOF 7
