REMARK  Name = ZINC67448072
REMARK  5 active torsions:
REMARK  status: ('A' for Active; 'I' for Inactive)
REMARK    1  A    between atoms: C_1  and  C_2
REMARK    2  A    between atoms: C_5  and  S_8
REMARK    3  A    between atoms: S_8  and  N_11
REMARK    4  A    between atoms: N_11  and  C_12
REMARK    5  A    between atoms: C_12  and  C_13
REMARK                            x       y       z     vdW  Elec       q    Type
REMARK                         _______ _______ _______ _____ _____    ______ ____
ROOT
ATOM      1  C   UNL     1       2.512  -4.699   1.113  0.00  0.00    +0.111 C 
ENDROOT
BRANCH   1   2
ATOM      2  C   UNL     1       3.787  -5.540   1.028  0.00  0.00    +0.022 C 
ATOM      3  C   UNL     1       4.740  -5.139   2.156  0.00  0.00    +0.008 C 
ATOM      4  C   UNL     1       6.029  -5.957   2.052  0.00  0.00    +0.019 C 
ATOM      5  C   UNL     1       5.698  -7.445   2.205  0.00  0.00    +0.108 C 
ATOM      6  N   UNL     1       4.673  -7.806   1.216  0.00  0.00    -0.299 N 
ATOM      7  C   UNL     1       3.430  -7.024   1.168  0.00  0.00    +0.112 C 
ATOM      8  C   UNL     1       4.875  -8.863   0.345  0.00  0.00    +0.218 A 
ATOM      9  N   UNL     1       3.934  -9.160  -0.540  0.00  0.00    -0.223 NA
ATOM     10  C   UNL     1       4.096 -10.163  -1.387  0.00  0.00    +0.116 A 
ATOM     11  C   UNL     1       5.265 -10.906  -1.341  0.00  0.00    +0.039 A 
ATOM     12  C   UNL     1       6.228 -10.567  -0.403  0.00  0.00    +0.116 A 
ATOM     13  N   UNL     1       6.006  -9.549   0.411  0.00  0.00    -0.223 NA
ENDBRANCH   1   2
BRANCH   1  14
ATOM     14  N   UNL     1       1.651  -4.999  -0.034  0.00  0.00    -0.190 NA
ATOM     15  H   UNL     1       2.011  -5.473  -0.800  0.00  0.00    +0.148 HD
BRANCH  14  16
ATOM     16  S   UNL     1       0.063  -4.530  -0.023  0.00  0.00    +0.058 S 
ATOM     17  O   UNL     1      -0.476  -4.950   1.223  0.00  0.00    -0.153 OA
ATOM     18  O   UNL     1      -0.490  -4.937  -1.267  0.00  0.00    -0.153 OA
BRANCH  16  23
ATOM     19  C   UNL     1      -0.018   1.503   0.010  0.00  0.00    +0.044 C 
ATOM     20  C   UNL     1       0.002  -0.004   0.002  0.00  0.00    -0.050 A 
ATOM     21  C   UNL     1       0.006  -0.689  -1.199  0.00  0.00    +0.005 A 
ATOM     22  C   UNL     1       0.025  -2.071  -1.206  0.00  0.00    +0.029 A 
ATOM     23  C   UNL     1       0.040  -2.768  -0.013  0.00  0.00    +0.105 A 
ATOM     24  C   UNL     1       0.037  -2.084   1.188  0.00  0.00    +0.029 A 
ATOM     25  C   UNL     1       0.023  -0.702   1.195  0.00  0.00    +0.005 A 
ENDBRANCH  16  23
ENDBRANCH  14  16
ENDBRANCH   1  14
TORSDOF 4
