REMARK  Name = ZINC01181002
REMARK  6 active torsions:
REMARK  status: ('A' for Active; 'I' for Inactive)
REMARK    1  A    between atoms: C_4  and  C_7
REMARK    2  A    between atoms: C_10  and  C_13
REMARK    3  A    between atoms: N_15  and  C_16
REMARK    4  A    between atoms: C_16  and  N_18
REMARK    5  A    between atoms: N_18  and  C_19
REMARK    6  A    between atoms: C_23  and  N_25
REMARK                            x       y       z     vdW  Elec       q    Type
REMARK                         _______ _______ _______ _____ _____    ______ ____
ROOT
ATOM      1  C   UNL     1       6.221  -1.086   0.744  0.00  0.00    +0.250 C 
ATOM      2  O   UNL     1       7.254  -0.537   1.073  0.00  0.00    -0.270 OA
ATOM      3  N   UNL     1       6.238  -2.373   0.346  0.00  0.00    -0.264 N 
ATOM      4  H   UNL     1       5.413  -2.811   0.084  0.00  0.00    +0.157 HD
ENDROOT
BRANCH   1   8
ATOM      5  C   UNL     1       2.552   1.055   0.850  0.00  0.00    -0.018 A 
ATOM      6  C   UNL     1       2.569  -0.279   0.443  0.00  0.00    +0.009 A 
ATOM      7  C   UNL     1       3.757  -0.972   0.403  0.00  0.00    +0.013 A 
ATOM      8  C   UNL     1       4.946  -0.342   0.781  0.00  0.00    +0.037 A 
ATOM      9  C   UNL     1       4.927   0.993   1.194  0.00  0.00    +0.013 A 
ATOM     10  C   UNL     1       3.738   1.685   1.228  0.00  0.00    +0.009 A 
BRANCH   5  14
ATOM     11  C   UNL     1      -1.119   3.196   0.959  0.00  0.00    +0.000 A 
ATOM     12  C   UNL     1      -1.103   1.877   0.544  0.00  0.00    +0.001 A 
ATOM     13  C   UNL     1       0.085   1.175   0.512  0.00  0.00    +0.008 A 
ATOM     14  C   UNL     1       1.271   1.802   0.888  0.00  0.00    -0.018 A 
ATOM     15  C   UNL     1       1.250   3.133   1.300  0.00  0.00    +0.008 A 
ATOM     16  C   UNL     1       0.055   3.823   1.334  0.00  0.00    +0.001 A 
ENDBRANCH   5  14
ENDBRANCH   1   8
BRANCH   3  17
ATOM     17  C   UNL     1       7.402  -3.053   0.312  0.00  0.00    +0.141 C 
ATOM     18  S   UNL     1       8.858  -2.280   0.775  0.00  0.00    -0.018 S 
BRANCH  17  19
ATOM     19  N   UNL     1       7.420  -4.340  -0.086  0.00  0.00    -0.297 N 
ATOM     20  H   UNL     1       6.588  -4.796  -0.289  0.00  0.00    +0.154 HD
BRANCH  19  21
ATOM     21  C   UNL     1       8.638  -5.019  -0.206  0.00  0.00    +0.035 A 
ATOM     22  C   UNL     1       8.890  -5.801  -1.325  0.00  0.00    +0.025 A 
ATOM     23  C   UNL     1      10.095  -6.465  -1.444  0.00  0.00    +0.024 A 
ATOM     24  C   UNL     1      11.046  -6.360  -0.443  0.00  0.00    +0.071 A 
ATOM     25  C   UNL     1      10.794  -5.586   0.675  0.00  0.00    +0.146 A 
ATOM     26  C   UNL     1       9.593  -4.915   0.796  0.00  0.00    +0.057 A 
ATOM     27 CL   UNL     1      12.557  -7.202  -0.593  0.00  0.00    -0.081 Cl
BRANCH  25  28
ATOM     28  N   UNL     1      11.814  -5.476   1.743  0.00  0.00    +0.058 N 
ATOM     29  O   UNL     1      11.593  -4.794   2.728  0.00  0.00    -0.126 OA
ATOM     30  O   UNL     1      12.873  -6.067   1.637  0.00  0.00    -0.126 OA
ENDBRANCH  25  28
ENDBRANCH  19  21
ENDBRANCH  17  19
ENDBRANCH   3  17
TORSDOF 6
