REMARK  Name = ZINC41006371
REMARK  11 active torsions:
REMARK  status: ('A' for Active; 'I' for Inactive)
REMARK    1  A    between atoms: C_1  and  C_2
REMARK    2  A    between atoms: C_5  and  N_9
REMARK    3  A    between atoms: C_6  and  C_8
REMARK    4  A    between atoms: C_10  and  C_12
REMARK    5  A    between atoms: C_14  and  C_35
REMARK    6  A    between atoms: C_16  and  C_24
REMARK    7  A    between atoms: C_18  and  C_22
REMARK    8  A    between atoms: C_18  and  O_23
REMARK    9  A    between atoms: N_26  and  C_27
REMARK   10  A    between atoms: C_30  and  C_34
REMARK   11  A    between atoms: C_32  and  C_33
REMARK                            x       y       z     vdW  Elec       q    Type
REMARK                         _______ _______ _______ _____ _____    ______ ____
ROOT
ATOM      1  C   UNL     1       0.552  -5.189  -2.051  0.00  0.00    +0.149 C 
ATOM      2  C   UNL     1      -0.028  -6.083  -3.152  0.00  0.00    +0.054 C 
ATOM      3  C   UNL     1       1.042  -7.069  -3.623  0.00  0.00    +0.115 C 
ATOM      4  C   UNL     1       1.430  -8.000  -2.473  0.00  0.00    +0.082 C 
ATOM      5  C   UNL     1       2.065  -7.179  -1.346  0.00  0.00    +0.110 C 
ATOM      6  C   UNL     1       1.107  -6.071  -0.954  0.00  0.00    +0.148 C 
ATOM      7  O   UNL     1       0.792  -5.897   0.199  0.00  0.00    -0.296 OA
ATOM      8  C   UNL     1       0.181  -8.709  -1.946  0.00  0.00    +0.042 C 
ENDROOT
BRANCH   2   9
ATOM      9  C   UNL     1      -0.469  -5.228  -4.313  0.00  0.00    -0.024 A 
ATOM     10  C   UNL     1       0.341  -5.101  -5.426  0.00  0.00    +0.005 A 
ATOM     11  C   UNL     1      -0.063  -4.317  -6.490  0.00  0.00    +0.000 A 
ATOM     12  C   UNL     1      -1.278  -3.659  -6.442  0.00  0.00    +0.001 A 
ATOM     13  C   UNL     1      -2.089  -3.785  -5.330  0.00  0.00    +0.020 A 
ATOM     14  C   UNL     1      -1.687  -4.574  -4.267  0.00  0.00    +0.044 A 
ATOM     15 CL   UNL     1      -2.708  -4.737  -2.872  0.00  0.00    -0.083 Cl
ENDBRANCH   2   9
BRANCH   1  17
ATOM     16  N   UNL     1       1.948  -3.148  -2.054  0.00  0.00    -0.285 N 
ATOM     17  C   UNL     1       1.655  -4.335  -2.620  0.00  0.00    +0.228 C 
ATOM     18  O   UNL     1       2.278  -4.715  -3.589  0.00  0.00    -0.275 OA
ATOM     19  H   UNL     1       1.479  -2.863  -1.254  0.00  0.00    +0.155 HD
BRANCH  16  24
ATOM     20  C   UNL     1       5.932   0.179  -4.344  0.00  0.00    +0.044 C 
ATOM     21  C   UNL     1       4.874  -0.705  -3.735  0.00  0.00    -0.050 A 
ATOM     22  C   UNL     1       4.948  -2.077  -3.892  0.00  0.00    +0.005 A 
ATOM     23  C   UNL     1       3.980  -2.889  -3.335  0.00  0.00    +0.024 A 
ATOM     24  C   UNL     1       2.931  -2.327  -2.618  0.00  0.00    +0.036 A 
ATOM     25  C   UNL     1       2.860  -0.949  -2.463  0.00  0.00    -0.029 A 
ATOM     26  C   UNL     1       3.834  -0.142  -3.018  0.00  0.00    +0.008 A 
ATOM     27  C   UNL     1       1.725  -0.335  -1.685  0.00  0.00    +0.045 C 
ENDBRANCH  16  24
ENDBRANCH   1  17
BRANCH   3  28
ATOM     28  C   UNL     1       0.500  -7.888  -4.767  0.00  0.00    +0.224 C 
ATOM     29  O   UNL     1      -0.698  -7.989  -4.927  0.00  0.00    -0.275 OA
ATOM     30  N   UNL     1       1.348  -8.507  -5.612  0.00  0.00    -0.285 N 
ATOM     31  H   UNL     1       2.302  -8.491  -5.441  0.00  0.00    +0.155 HD
BRANCH  30  32
ATOM     32  C   UNL     1       0.850  -9.173  -6.738  0.00  0.00    +0.036 A 
ATOM     33  C   UNL     1      -0.403  -9.771  -6.696  0.00  0.00    +0.024 A 
ATOM     34  C   UNL     1      -0.890 -10.428  -7.808  0.00  0.00    +0.005 A 
ATOM     35  C   UNL     1      -0.133 -10.491  -8.963  0.00  0.00    -0.050 A 
ATOM     36  C   UNL     1       1.115  -9.898  -9.008  0.00  0.00    +0.008 A 
ATOM     37  C   UNL     1       1.606  -9.233  -7.901  0.00  0.00    -0.029 A 
ATOM     38  C   UNL     1       2.963  -8.580  -7.954  0.00  0.00    +0.045 C 
ATOM     39  C   UNL     1      -0.668 -11.209 -10.175  0.00  0.00    +0.044 C 
ENDBRANCH  30  32
ENDBRANCH   3  28
BRANCH   4  40
ATOM     40  O   UNL     1       2.368  -8.971  -2.942  0.00  0.00    -0.388 OA
ATOM     41  H   UNL     1       2.659  -9.596  -2.264  0.00  0.00    +0.210 HD
ENDBRANCH   4  40
TORSDOF 6
