REMARK  Name = ZINC25760434
REMARK  11 active torsions:
REMARK  status: ('A' for Active; 'I' for Inactive)
REMARK    1  A    between atoms: C_1  and  N_2
REMARK    2  A    between atoms: N_2  and  C_3
REMARK    3  A    between atoms: N_2  and  C_4
REMARK    4  A    between atoms: C_4  and  C_5
REMARK    5  A    between atoms: C_8  and  C_11
REMARK    6  A    between atoms: C_15  and  C_24
REMARK    7  A    between atoms: C_18  and  C_20
REMARK    8  A    between atoms: C_27  and  C_30
REMARK    9  A    between atoms: C_30  and  N_31
REMARK   10  A    between atoms: N_31  and  C_32
REMARK   11  A    between atoms: N_31  and  C_33
REMARK                            x       y       z     vdW  Elec       q    Type
REMARK                         _______ _______ _______ _____ _____    ______ ____
ROOT
ATOM      1  C   UNL     1      -5.214   4.696   3.523  0.00  0.00    +0.124 C 
ATOM      2  C   UNL     1      -6.172   3.608   4.054  0.00  0.00    +0.031 C 
ATOM      3  C   UNL     1      -6.053   3.761   5.593  0.00  0.00    +0.031 C 
ATOM      4  C   UNL     1      -5.885   5.294   5.741  0.00  0.00    +0.124 C 
ATOM      5  N   UNL     1      -5.055   5.695   4.590  0.00  0.00    -0.277 N 
ATOM      6  C   UNL     1      -4.279   6.795   4.526  0.00  0.00    +0.321 C 
ATOM      7  O   UNL     1      -4.150   7.503   5.502  0.00  0.00    -0.266 OA
ENDROOT
BRANCH   1  11
ATOM      8  C   UNL     1      -2.205   3.177   2.054  0.00  0.00    -0.000 A 
ATOM      9  C   UNL     1      -1.814   3.271   3.341  0.00  0.00    +0.021 A 
ATOM     10  C   UNL     1      -2.877   3.847   4.064  0.00  0.00    +0.024 A 
ATOM     11  C   UNL     1      -3.877   4.084   3.191  0.00  0.00    +0.037 A 
ATOM     12  N   UNL     1      -3.469   3.680   1.955  0.00  0.00    -0.362 N 
ATOM     13  H   UNL     1      -3.976   3.704   0.979  0.00  0.00    +0.165 HD
BRANCH   8  14
ATOM     14  C   UNL     1      -1.385   2.619   0.920  0.00  0.00    -0.025 C 
BRANCH  14  16
ATOM     15  C   UNL     1      -1.125   0.688  -0.517  0.00  0.00    -0.096 C 
ATOM     16  N   UNL     1      -1.722   1.203   0.722  0.00  0.00    +0.380 N 
ATOM     17  C   UNL     1      -1.312   0.397   1.879  0.00  0.00    -0.096 C 
ATOM     18  H   UNL     1      -2.816   1.127   0.627  0.00  0.00    -0.082 HD
ENDBRANCH  14  16
ENDBRANCH   8  14
ENDBRANCH   1  11
BRANCH   4  19
ATOM     19  C   UNL     1      -5.184   5.623   7.035  0.00  0.00    +0.037 A 
ATOM     20  C   UNL     1      -3.852   5.596   7.241  0.00  0.00    +0.024 A 
ATOM     21  C   UNL     1      -3.626   5.968   8.581  0.00  0.00    +0.021 A 
ATOM     22  C   UNL     1      -4.828   6.209   9.142  0.00  0.00    -0.000 A 
ATOM     23  N   UNL     1      -5.789   6.004   8.196  0.00  0.00    -0.362 N 
ATOM     24  H   UNL     1      -6.884   6.097   8.241  0.00  0.00    +0.165 HD
BRANCH  22  25
ATOM     25  C   UNL     1      -5.069   6.636  10.567  0.00  0.00    -0.025 C 
BRANCH  25  26
ATOM     26  N   UNL     1      -5.180   8.100  10.627  0.00  0.00    +0.380 N 
ATOM     27  C   UNL     1      -6.378   8.567   9.915  0.00  0.00    -0.096 C 
ATOM     28  C   UNL     1      -5.178   8.572  12.018  0.00  0.00    -0.096 C 
ATOM     29  H   UNL     1      -4.300   8.527  10.123  0.00  0.00    -0.082 HD
ENDBRANCH  25  26
ENDBRANCH  22  25
ENDBRANCH   4  19
BRANCH   6  30
ATOM     30  C   UNL     1      -3.572   7.145   3.242  0.00  0.00    +0.470 C 
ATOM     31  F   UNL     1      -3.044   8.437   3.338  0.00  0.00    -0.162 F 
ATOM     32  F   UNL     1      -2.536   6.233   3.016  0.00  0.00    -0.162 F 
ATOM     33  F   UNL     1      -4.481   7.091   2.180  0.00  0.00    -0.162 F 
ENDBRANCH   6  30
TORSDOF 7
