REMARK  Name = ZINC21325677
REMARK  13 active torsions:
REMARK  status: ('A' for Active; 'I' for Inactive)
REMARK    1  A    between atoms: C_1  and  C_2
REMARK    2  A    between atoms: C_2  and  N_3
REMARK    3  A    between atoms: N_3  and  C_4
REMARK    4  A    between atoms: N_3  and  C_6
REMARK    5  A    between atoms: C_4  and  C_5
REMARK    6  A    between atoms: C_9  and  C_13
REMARK    7  A    between atoms: C_10  and  O_12
REMARK    8  A    between atoms: N_14  and  N_15
REMARK    9  A    between atoms: C_19  and  S_22
REMARK   10  A    between atoms: N_20  and  N_21
REMARK   11  A    between atoms: S_22  and  C_23
REMARK   12  A    between atoms: C_23  and  C_24
REMARK   13  A    between atoms: C_24  and  C_26
REMARK                            x       y       z     vdW  Elec       q    Type
REMARK                         _______ _______ _______ _____ _____    ______ ____
ROOT
ATOM      1  N   UNL     1      -1.109  -0.835   0.009  0.00  0.00    -0.204 N 
ATOM      2  C   UNL     1       0.002  -0.004   0.002  0.00  0.00    +0.254 A 
ATOM      3  N   UNL     1       1.254  -0.392  -0.012  0.00  0.00    -0.109 NA
ATOM      4  N   UNL     1       2.062   0.752  -0.014  0.00  0.00    -0.119 NA
ATOM      5  C   UNL     1       1.277   1.803  -0.001  0.00  0.00    +0.210 A 
ATOM      6  N   UNL     1      -0.017   1.363   0.009  0.00  0.00    -0.211 N 
ATOM      7  H   UNL     1      -2.120  -0.401   0.021  0.00  0.00    +0.177 HD
ENDROOT
BRANCH   6   8
ATOM      8  N   UNL     1      -1.132   2.151   0.019  0.00  0.00    -0.294 N 
ATOM      9  H   UNL     1      -1.032   3.246   0.025  0.00  0.00    +0.163 HD
ATOM     10  H   UNL     1      -2.131   1.690   0.022  0.00  0.00    +0.163 HD
ENDBRANCH   6   8
BRANCH   1  12
ATOM     11  C   UNL     1      -1.984  -3.003   0.006  0.00  0.00    +0.142 C 
ATOM     12  N   UNL     1      -0.944  -2.226  -0.001  0.00  0.00    -0.187 NA
BRANCH  11  16
ATOM     13  C   UNL     1      -1.483  -7.223  -0.022  0.00  0.00    +0.033 A 
ATOM     14  C   UNL     1      -2.761  -6.673  -0.006  0.00  0.00    +0.024 A 
ATOM     15  C   UNL     1      -2.928  -5.305   0.003  0.00  0.00    +0.015 A 
ATOM     16  C   UNL     1      -1.810  -4.466  -0.004  0.00  0.00    +0.036 A 
ATOM     17  C   UNL     1      -0.522  -5.022  -0.025  0.00  0.00    +0.127 A 
ATOM     18  C   UNL     1      -0.366  -6.396  -0.029  0.00  0.00    +0.069 A 
BRANCH  17  19
ATOM     19  O   UNL     1       0.568  -4.212  -0.038  0.00  0.00    -0.506 OA
ATOM     20  H   UNL     1       1.578  -4.650  -0.054  0.00  0.00    +0.292 HD
ENDBRANCH  17  19
BRANCH  13  21
ATOM     21  N   UNL     1      -1.323  -8.609  -0.032  0.00  0.00    -0.330 N 
BRANCH  21  23
ATOM     22  C   UNL     1      -2.922  -9.778  -1.465  0.00  0.00    +0.024 C 
ATOM     23  C   UNL     1      -2.498  -9.482  -0.025  0.00  0.00    +0.102 C 
ENDBRANCH  21  23
BRANCH  21  24
ATOM     24  C   UNL     1       0.022  -9.190  -0.049  0.00  0.00    +0.102 C 
ATOM     25  C   UNL     1       0.505  -9.400   1.388  0.00  0.00    +0.024 C 
ENDBRANCH  21  24
ENDBRANCH  13  21
ENDBRANCH  11  16
ENDBRANCH   1  12
BRANCH   5  26
ATOM     26  S   UNL     1       1.798   3.486   0.003  0.00  0.00    -0.076 S 
BRANCH  26  27
ATOM     27  C   UNL     1       3.610   3.384  -0.015  0.00  0.00    +0.157 C 
BRANCH  27  28
ATOM     28  C   UNL     1       4.191   4.774  -0.013  0.00  0.00    +0.173 C 
ATOM     29  O   UNL     1       3.456   5.739  -0.002  0.00  0.00    -0.291 OA
BRANCH  28  30
ATOM     30  C   UNL     1       5.650   4.962  -0.026  0.00  0.00    +0.018 A 
ATOM     31  C   UNL     1       6.501   3.852  -0.034  0.00  0.00    +0.012 A 
ATOM     32  C   UNL     1       7.867   4.035  -0.052  0.00  0.00    +0.016 A 
ATOM     33  C   UNL     1       8.398   5.314  -0.051  0.00  0.00    +0.018 A 
ATOM     34  C   UNL     1       7.561   6.418  -0.037  0.00  0.00    +0.016 A 
ATOM     35  C   UNL     1       6.193   6.251  -0.025  0.00  0.00    +0.012 A 
ATOM     36 BR   UNL     1      10.273   5.555  -0.068  0.00  0.00    -0.050 Br
ENDBRANCH  28  30
ENDBRANCH  27  28
ENDBRANCH  26  27
ENDBRANCH   5  26
TORSDOF 11
