REMARK  Name = ZINC40986871
REMARK  6 active torsions:
REMARK  status: ('A' for Active; 'I' for Inactive)
REMARK    1  A    between atoms: C_3  and  C_6
REMARK    2  A    between atoms: C_6  and  N_7
REMARK    3  A    between atoms: C_8  and  C_10
REMARK    4  A    between atoms: C_14  and  N_15
REMARK    5  A    between atoms: C_16  and  C_18
REMARK    6  A    between atoms: C_20  and  C_23
REMARK                            x       y       z     vdW  Elec       q    Type
REMARK                         _______ _______ _______ _____ _____    ______ ____
ROOT
ATOM      1  C   UNL     1       5.930   0.556   2.957  0.00  0.00    +0.069 A 
ATOM      2  C   UNL     1       6.167  -0.702   3.664  0.00  0.00    -0.023 A 
ATOM      3  C   UNL     1       6.626  -0.547   4.919  0.00  0.00    -0.004 A 
ATOM      4  S   UNL     1       6.738   1.210   5.142  0.00  0.00    -0.077 S 
ATOM      5  C   UNL     1       6.204   1.728   3.639  0.00  0.00    +0.085 A 
ATOM      6  C   UNL     1       6.848  -1.870   5.601  0.00  0.00    +0.043 C 
ATOM      7  C   UNL     1       6.058  -2.887   4.748  0.00  0.00    +0.010 C 
ATOM      8  C   UNL     1       6.039  -2.195   3.370  0.00  0.00    +0.037 C 
ENDROOT
BRANCH   1  10
ATOM      9  N   UNL     1       4.101   0.607   1.347  0.00  0.00    -0.304 N 
ATOM     10  C   UNL     1       5.428   0.575   1.580  0.00  0.00    +0.247 C 
ATOM     11  O   UNL     1       6.209   0.561   0.647  0.00  0.00    -0.270 OA
ATOM     12  H   UNL     1       3.478   0.617   2.090  0.00  0.00    +0.149 HD
BRANCH   9  13
ATOM     13  C   UNL     1       3.599   0.625  -0.029  0.00  0.00    +0.179 C 
BRANCH  13  16
ATOM     14  C   UNL     1      -0.016   1.341   0.009  0.00  0.00    +0.041 A 
ATOM     15  C   UNL     1       1.331   1.769  -0.001  0.00  0.00    +0.046 A 
ATOM     16  C   UNL     1       2.092   0.660  -0.014  0.00  0.00    +0.122 A 
ATOM     17  O   UNL     1       1.282  -0.411  -0.012  0.00  0.00    -0.466 OA
ATOM     18  C   UNL     1       0.002  -0.004   0.002  0.00  0.00    +0.195 A 
ENDBRANCH  13  16
ENDBRANCH   9  13
ENDBRANCH   1  10
BRANCH   5  19
ATOM     19  N   UNL     1       6.068   3.029   3.185  0.00  0.00    -0.274 N 
ATOM     20  C   UNL     1       6.385   4.061   3.993  0.00  0.00    +0.270 C 
ATOM     21  O   UNL     1       6.790   3.849   5.118  0.00  0.00    -0.268 OA
ATOM     22  H   UNL     1       5.744   3.198   2.287  0.00  0.00    +0.156 HD
BRANCH  20  23
ATOM     23  C   UNL     1       6.239   5.454   3.507  0.00  0.00    +0.169 A 
ATOM     24  C   UNL     1       6.538   6.624   4.239  0.00  0.00    +0.086 A 
ATOM     25  C   UNL     1       6.271   7.694   3.444  0.00  0.00    +0.168 A 
ATOM     26  O   UNL     1       5.823   7.231   2.262  0.00  0.00    -0.354 OA
ATOM     27  N   UNL     1       5.815   5.817   2.319  0.00  0.00    -0.073 NA
BRANCH  25  28
ATOM     28  C   UNL     1       6.442   9.116   3.813  0.00  0.00    +0.023 A 
ATOM     29  C   UNL     1       6.923   9.457   5.078  0.00  0.00    +0.014 A 
ATOM     30  C   UNL     1       7.081  10.785   5.418  0.00  0.00    +0.042 A 
ATOM     31  C   UNL     1       6.763  11.779   4.508  0.00  0.00    +0.158 A 
ATOM     32  C   UNL     1       6.284  11.446   3.248  0.00  0.00    +0.159 A 
ATOM     33  C   UNL     1       6.128  10.120   2.896  0.00  0.00    +0.053 A 
ATOM     34  F   UNL     1       5.975  12.420   2.364  0.00  0.00    -0.202 F 
ATOM     35  F   UNL     1       6.918  13.078   4.847  0.00  0.00    -0.202 F 
ENDBRANCH  25  28
ENDBRANCH  20  23
ENDBRANCH   5  19
TORSDOF 6
