REMARK  Name = ZINC08835201
REMARK  8 active torsions:
REMARK  status: ('A' for Active; 'I' for Inactive)
REMARK    1  A    between atoms: C_1  and  C_2
REMARK    2  A    between atoms: C_2  and  C_3
REMARK    3  A    between atoms: C_10  and  C_12
REMARK    4  A    between atoms: C_14  and  N_19
REMARK    5  A    between atoms: C_17  and  O_18
REMARK    6  A    between atoms: N_19  and  C_20
REMARK    7  A    between atoms: C_20  and  N_22
REMARK    8  A    between atoms: C_23  and  C_25
REMARK                            x       y       z     vdW  Elec       q    Type
REMARK                         _______ _______ _______ _____ _____    ______ ____
ROOT
ATOM      1  C   UNL     1      -4.800   1.512   5.627  0.00  0.00    +0.080 A 
ATOM      2  C   UNL     1      -4.981   2.471   6.626  0.00  0.00    +0.040 A 
ATOM      3  C   UNL     1      -5.740   2.167   7.743  0.00  0.00    +0.034 A 
ATOM      4  C   UNL     1      -6.312   0.907   7.877  0.00  0.00    +0.027 A 
ATOM      5  C   UNL     1      -6.133  -0.047   6.894  0.00  0.00    +0.048 A 
ATOM      6  C   UNL     1      -5.380   0.245   5.768  0.00  0.00    +0.129 A 
ENDROOT
BRANCH   1  14
ATOM      7  C   UNL     1      -1.685   2.145   0.572  0.00  0.00    -0.045 A 
ATOM      8  C   UNL     1      -1.452   3.422   1.060  0.00  0.00    +0.007 A 
ATOM      9  C   UNL     1      -1.987   3.817   2.269  0.00  0.00    +0.049 A 
ATOM     10  C   UNL     1      -2.756   2.931   3.007  0.00  0.00    +0.156 A 
ATOM     11  C   UNL     1      -2.990   1.636   2.519  0.00  0.00    +0.110 A 
ATOM     12  C   UNL     1      -2.446   1.251   1.291  0.00  0.00    +0.035 A 
ATOM     13  N   UNL     1      -3.762   1.005   3.442  0.00  0.00    -0.209 NA
ATOM     14  C   UNL     1      -3.996   1.831   4.430  0.00  0.00    +0.232 A 
ATOM     15  O   UNL     1      -3.397   3.013   4.195  0.00  0.00    -0.435 OA
BRANCH   7  17
ATOM     16  C   UNL     1      -2.086   2.059  -1.874  0.00  0.00    +0.009 C 
ATOM     17  C   UNL     1      -1.098   1.731  -0.753  0.00  0.00    +0.032 C 
ENDBRANCH   7  17
ENDBRANCH   1  14
BRANCH   6  18
ATOM     18  O   UNL     1      -5.205  -0.695   4.803  0.00  0.00    -0.506 OA
ATOM     19  H   UNL     1      -4.427  -1.254   4.936  0.00  0.00    +0.292 HD
ENDBRANCH   6  18
BRANCH   3  20
ATOM     20  N   UNL     1      -5.926   3.129   8.744  0.00  0.00    -0.297 N 
ATOM     21  H   UNL     1      -5.877   2.873   9.678  0.00  0.00    +0.154 HD
BRANCH  20  22
ATOM     22  C   UNL     1      -6.176   4.410   8.409  0.00  0.00    +0.141 C 
ATOM     23  S   UNL     1      -6.405   4.837   6.767  0.00  0.00    -0.018 S 
BRANCH  22  24
ATOM     24  N   UNL     1      -6.245   5.356   9.367  0.00  0.00    -0.264 N 
ATOM     25  C   UNL     1      -6.494   6.638   9.032  0.00  0.00    +0.250 C 
ATOM     26  O   UNL     1      -6.656   6.940   7.866  0.00  0.00    -0.270 OA
ATOM     27  H   UNL     1      -6.115   5.114  10.297  0.00  0.00    +0.157 HD
BRANCH  25  28
ATOM     28  C   UNL     1      -6.569   7.674  10.082  0.00  0.00    +0.037 A 
ATOM     29  C   UNL     1      -6.389   7.329  11.423  0.00  0.00    +0.014 A 
ATOM     30  C   UNL     1      -6.455   8.302  12.397  0.00  0.00    +0.016 A 
ATOM     31  C   UNL     1      -6.711   9.618  12.050  0.00  0.00    +0.018 A 
ATOM     32  C   UNL     1      -6.897   9.966  10.722  0.00  0.00    +0.016 A 
ATOM     33  C   UNL     1      -6.828   9.003   9.738  0.00  0.00    +0.014 A 
ATOM     34 BR   UNL     1      -6.808  10.945  13.394  0.00  0.00    -0.050 Br
ENDBRANCH  25  28
ENDBRANCH  22  24
ENDBRANCH  20  22
ENDBRANCH   3  20
TORSDOF 7
