REMARK  Name = ZINC14984439
REMARK  15 active torsions:
REMARK  status: ('A' for Active; 'I' for Inactive)
REMARK    1  A    between atoms: C_1  and  C_2
REMARK    2  A    between atoms: C_2  and  C_42
REMARK    3  A    between atoms: C_3  and  C_4
REMARK    4  A    between atoms: C_4  and  C_5
REMARK    5  A    between atoms: C_6  and  O_25
REMARK    6  A    between atoms: C_8  and  O_24
REMARK    7  A    between atoms: C_12  and  C_16
REMARK    8  A    between atoms: C_19  and  O_22
REMARK    9  A    between atoms: O_22  and  C_23
REMARK   10  A    between atoms: O_25  and  C_26
REMARK   11  A    between atoms: C_28  and  O_41
REMARK   12  A    between atoms: C_30  and  O_40
REMARK   13  A    between atoms: C_32  and  O_39
REMARK   14  A    between atoms: C_34  and  C_37
REMARK   15  A    between atoms: C_37  and  O_38
REMARK                            x       y       z     vdW  Elec       q    Type
REMARK                         _______ _______ _______ _____ _____    ______ ____
ROOT
ATOM      1  C   UNL     1       2.248   4.342  -0.042  0.00  0.00    +0.041 A 
ATOM      2  C   UNL     1       3.486   3.724  -0.135  0.00  0.00    +0.134 A 
ATOM      3  C   UNL     1       3.588   2.338  -0.120  0.00  0.00    +0.092 A 
ATOM      4  C   UNL     1       2.451   1.558  -0.013  0.00  0.00    +0.135 A 
ATOM      5  C   UNL     1       1.198   2.176   0.082  0.00  0.00    +0.106 A 
ATOM      6  C   UNL     1       1.097   3.578   0.067  0.00  0.00    +0.150 A 
ATOM      7  O   UNL     1      -0.116   4.164   0.158  0.00  0.00    -0.454 OA
ATOM      8  C   UNL     1      -1.249   3.452   0.264  0.00  0.00    +0.139 A 
ATOM      9  C   UNL     1      -1.260   2.092   0.282  0.00  0.00    +0.098 A 
ATOM     10  C   UNL     1      -0.038   1.384   0.198  0.00  0.00    +0.197 A 
ATOM     11  O   UNL     1      -0.010   0.164   0.215  0.00  0.00    -0.287 OA
ENDROOT
BRANCH   8  12
ATOM     12  C   UNL     1      -2.533   4.173   0.358  0.00  0.00    +0.018 A 
ATOM     13  C   UNL     1      -3.720   3.466   0.564  0.00  0.00    +0.015 A 
ATOM     14  C   UNL     1      -4.916   4.144   0.658  0.00  0.00    +0.046 A 
ATOM     15  C   UNL     1      -4.944   5.528   0.536  0.00  0.00    +0.120 A 
ATOM     16  C   UNL     1      -3.766   6.234   0.326  0.00  0.00    +0.046 A 
ATOM     17  C   UNL     1      -2.565   5.565   0.237  0.00  0.00    +0.015 A 
BRANCH  15  18
ATOM     18  O   UNL     1      -6.125   6.191   0.624  0.00  0.00    -0.495 OA
ATOM     19  C   UNL     1      -7.297   5.403   0.841  0.00  0.00    +0.277 C 
ENDBRANCH  15  18
ENDBRANCH   8  12
BRANCH   4  20
ATOM     20  O   UNL     1       2.549   0.205   0.001  0.00  0.00    -0.506 OA
ATOM     21  H   UNL     1       2.504  -0.202  -0.875  0.00  0.00    +0.292 HD
ENDBRANCH   4  20
BRANCH   1  22
ATOM     22  C   UNL     1       2.154   5.846  -0.059  0.00  0.00    +0.069 C 
BRANCH  22  25
ATOM     23  C   UNL     1       0.047   7.462  -1.007  0.00  0.00    +0.038 C 
ATOM     24  C   UNL     1       1.208   7.130  -1.908  0.00  0.00    -0.079 C 
ATOM     25  C   UNL     1       2.158   6.334  -1.486  0.00  0.00    -0.023 C 
ATOM     26  C   UNL     1       1.276   7.715  -3.296  0.00  0.00    +0.038 C 
ENDBRANCH  22  25
ENDBRANCH   1  22
BRANCH   2  27
ATOM     27  O   UNL     1       4.608   4.480  -0.241  0.00  0.00    -0.460 OA
BRANCH  27  28
ATOM     28  C   UNL     1       5.853   3.784  -0.333  0.00  0.00    +0.339 C 
ATOM     29  C   UNL     1       7.007   4.781  -0.195  0.00  0.00    +0.214 C 
ATOM     30  C   UNL     1       6.947   5.782  -1.353  0.00  0.00    +0.180 C 
ATOM     31  C   UNL     1       6.996   5.017  -2.679  0.00  0.00    +0.177 C 
ATOM     32  C   UNL     1       5.843   4.011  -2.721  0.00  0.00    +0.179 C 
ATOM     33  O   UNL     1       5.940   3.129  -1.600  0.00  0.00    -0.331 OA
BRANCH  31  34
ATOM     34  O   UNL     1       6.868   5.936  -3.765  0.00  0.00    -0.386 OA
ATOM     35  H   UNL     1       7.565   6.606  -3.798  0.00  0.00    +0.210 HD
ENDBRANCH  31  34
BRANCH  30  36
ATOM     36  O   UNL     1       5.732   6.530  -1.276  0.00  0.00    -0.386 OA
ATOM     37  H   UNL     1       5.631   7.034  -0.458  0.00  0.00    +0.210 HD
ENDBRANCH  30  36
BRANCH  29  38
ATOM     38  O   UNL     1       8.251   4.079  -0.233  0.00  0.00    -0.383 OA
ATOM     39  H   UNL     1       8.354   3.424   0.471  0.00  0.00    +0.210 HD
ENDBRANCH  29  38
BRANCH  32  40
ATOM     40  C   UNL     1       5.920   3.201  -4.016  0.00  0.00    +0.190 C 
BRANCH  40  41
ATOM     41  O   UNL     1       4.779   2.344  -4.111  0.00  0.00    -0.392 OA
ATOM     42  H   UNL     1       4.762   1.799  -4.909  0.00  0.00    +0.210 HD
ENDBRANCH  40  41
ENDBRANCH  32  40
ENDBRANCH  27  28
ENDBRANCH   2  27
TORSDOF 12
