REMARK  Name = ZINC59108797
REMARK  9 active torsions:
REMARK  status: ('A' for Active; 'I' for Inactive)
REMARK    1  A    between atoms: C_4  and  C_7
REMARK    2  A    between atoms: C_7  and  C_8
REMARK    3  A    between atoms: C_8  and  N_9
REMARK    4  A    between atoms: C_10  and  C_12
REMARK    5  A    between atoms: C_12  and  C_13
REMARK    6  A    between atoms: N_17  and  C_29
REMARK    7  A    between atoms: N_20  and  N_21
REMARK    8  A    between atoms: C_22  and  C_24
REMARK    9  A    between atoms: C_29  and  C_30
REMARK                            x       y       z     vdW  Elec       q    Type
REMARK                         _______ _______ _______ _____ _____    ______ ____
ROOT
ATOM      1  C   UNL     1       7.825  -3.005   3.960  0.00  0.00    +0.191 C 
ATOM      2  C   UNL     1       9.166  -3.713   3.973  0.00  0.00    +0.244 C 
ATOM      3  O   UNL     1      10.215  -3.303   3.525  0.00  0.00    -0.273 OA
ATOM      4  N   UNL     1       8.949  -4.893   4.586  0.00  0.00    -0.246 N 
ATOM      5  C   UNL     1       7.671  -5.028   4.959  0.00  0.00    +0.159 C 
ATOM      6  S   UNL     1       7.055  -6.408   5.764  0.00  0.00    -0.017 S 
ATOM      7  N   UNL     1       6.922  -3.955   4.632  0.00  0.00    -0.219 N 
ENDROOT
BRANCH   7   8
ATOM      8  N   UNL     1       5.555  -3.776   4.882  0.00  0.00    -0.227 N 
ATOM      9  C   UNL     1       4.643  -4.435   4.139  0.00  0.00    +0.267 C 
ATOM     10  O   UNL     1       5.007  -5.184   3.252  0.00  0.00    -0.268 OA
ATOM     11  H   UNL     1       5.265  -3.179   5.589  0.00  0.00    +0.173 HD
BRANCH   9  12
ATOM     12  C   UNL     1       3.213  -4.248   4.400  0.00  0.00    +0.075 A 
ATOM     13  C   UNL     1       2.125  -4.827   3.764  0.00  0.00    +0.021 A 
ATOM     14  C   UNL     1       0.890  -4.454   4.235  0.00  0.00    +0.008 A 
ATOM     15  C   UNL     1       0.815  -3.570   5.261  0.00  0.00    +0.046 A 
ATOM     16  S   UNL     1       2.418  -3.223   5.623  0.00  0.00    -0.092 S 
ENDBRANCH   9  12
ENDBRANCH   7   8
BRANCH   1  17
ATOM     17  C   UNL     1       7.365  -2.749   2.524  0.00  0.00    +0.129 C 
BRANCH  17  19
ATOM     18  N   UNL     1       5.450  -1.678   1.382  0.00  0.00    -0.315 N 
ATOM     19  C   UNL     1       6.050  -2.013   2.541  0.00  0.00    +0.215 C 
ATOM     20  O   UNL     1       5.532  -1.722   3.599  0.00  0.00    -0.276 OA
ATOM     21  H   UNL     1       5.864  -1.911   0.536  0.00  0.00    +0.149 HD
BRANCH  18  22
ATOM     22  C   UNL     1       4.171  -0.963   1.399  0.00  0.00    +0.109 C 
BRANCH  22  23
ATOM     23  C   UNL     1       3.711  -0.707  -0.038  0.00  0.00    +0.054 C 
BRANCH  23  27
ATOM     24  C   UNL     1      -0.017   1.378   0.010  0.00  0.00    +0.000 A 
ATOM     25  C   UNL     1       1.171   2.086   0.002  0.00  0.00    +0.000 A 
ATOM     26  C   UNL     1       2.377   1.411  -0.013  0.00  0.00    +0.004 A 
ATOM     27  C   UNL     1       2.396   0.029  -0.020  0.00  0.00    -0.046 A 
ATOM     28  C   UNL     1       1.208  -0.679  -0.012  0.00  0.00    +0.004 A 
ATOM     29  C   UNL     1       0.002  -0.004   0.002  0.00  0.00    +0.000 A 
ENDBRANCH  23  27
ENDBRANCH  22  23
ENDBRANCH  18  22
ENDBRANCH  17  19
ENDBRANCH   1  17
BRANCH   4  30
ATOM     30  C   UNL     1       9.984  -5.904   4.815  0.00  0.00    +0.150 C 
BRANCH  30  31
ATOM     31  C   UNL     1      10.643  -5.655   6.148  0.00  0.00    -0.030 A 
ATOM     32  C   UNL     1      11.749  -4.830   6.228  0.00  0.00    +0.005 A 
ATOM     33  C   UNL     1      12.354  -4.602   7.450  0.00  0.00    +0.000 A 
ATOM     34  C   UNL     1      11.851  -5.198   8.592  0.00  0.00    +0.000 A 
ATOM     35  C   UNL     1      10.745  -6.022   8.511  0.00  0.00    +0.000 A 
ATOM     36  C   UNL     1      10.138  -6.247   7.290  0.00  0.00    +0.005 A 
ENDBRANCH  30  31
ENDBRANCH   4  30
TORSDOF 9
