REMARK  Name = ZINC14199529
REMARK  8 active torsions:
REMARK  status: ('A' for Active; 'I' for Inactive)
REMARK    1  A    between atoms: C_1  and  C_2
REMARK    2  A    between atoms: C_5  and  N_9
REMARK    3  A    between atoms: C_13  and  S_15
REMARK    4  A    between atoms: S_15  and  C_16
REMARK    5  A    between atoms: C_16  and  C_18
REMARK    6  A    between atoms: C_16  and  C_21
REMARK    7  A    between atoms: C_18  and  C_19
REMARK    8  A    between atoms: C_18  and  C_20
REMARK                            x       y       z     vdW  Elec       q    Type
REMARK                         _______ _______ _______ _____ _____    ______ ____
ROOT
ATOM      1  N   UNL     1      -2.496   3.900  -0.108  0.00  0.00    -0.292 N 
ATOM      2  C   UNL     1      -3.681   3.175  -0.174  0.00  0.00    +0.187 A 
ATOM      3  N   UNL     1      -3.871   1.873  -0.085  0.00  0.00    -0.125 NA
ATOM      4  N   UNL     1      -5.144   1.359  -0.175  0.00  0.00    -0.133 NA
ATOM      5  C   UNL     1      -6.168   2.170  -0.360  0.00  0.00    +0.161 A 
ATOM      6  S   UNL     1      -5.353   3.759  -0.411  0.00  0.00    -0.024 S 
ATOM      7  H   UNL     1      -2.520   4.869  -0.099  0.00  0.00    +0.154 HD
ENDROOT
BRANCH   1  12
ATOM      8  C   UNL     1       2.478   1.183   0.105  0.00  0.00    +0.045 C 
ATOM      9  C   UNL     1       1.157   1.905   0.049  0.00  0.00    -0.032 A 
ATOM     10  C   UNL     1       0.056   1.286  -0.515  0.00  0.00    +0.006 A 
ATOM     11  C   UNL     1      -1.155   1.947  -0.573  0.00  0.00    +0.023 A 
ATOM     12  C   UNL     1      -1.271   3.231  -0.055  0.00  0.00    +0.034 A 
ATOM     13  C   UNL     1      -0.164   3.851   0.511  0.00  0.00    +0.043 A 
ATOM     14  C   UNL     1       1.047   3.186   0.561  0.00  0.00    +0.046 A 
ATOM     15 CL   UNL     1       2.432   3.959   1.268  0.00  0.00    -0.083 Cl
ENDBRANCH   1  12
BRANCH   5  16
ATOM     16  S   UNL     1      -7.881   1.788  -0.516  0.00  0.00    -0.084 S 
BRANCH  16  17
ATOM     17  C   UNL     1      -7.961   0.001  -0.214  0.00  0.00    +0.142 C 
BRANCH  17  18
ATOM     18  C   UNL     1      -7.299  -0.731  -1.353  0.00  0.00    +0.234 C 
ATOM     19  O   UNL     1      -7.147  -0.179  -2.422  0.00  0.00    -0.274 OA
ATOM     20  N   UNL     1      -6.875  -1.999  -1.184  0.00  0.00    -0.239 N 
ATOM     21  C   UNL     1      -6.283  -2.653  -2.202  0.00  0.00    +0.303 C 
ATOM     22  O   UNL     1      -6.131  -2.100  -3.274  0.00  0.00    -0.253 OA
ATOM     23  N   UNL     1      -5.860  -3.921  -2.033  0.00  0.00    -0.313 N 
ATOM     24  H   UNL     1      -6.997  -2.441  -0.329  0.00  0.00    +0.159 HD
ATOM     25  H   UNL     1      -5.981  -4.363  -1.178  0.00  0.00    +0.146 HD
ATOM     26  H   UNL     1      -5.434  -4.393  -2.766  0.00  0.00    +0.146 HD
ENDBRANCH  17  18
BRANCH  17  27
ATOM     27  C   UNL     1      -9.424  -0.433  -0.111  0.00  0.00    +0.005 C 
ATOM     28  C   UNL     1      -9.493  -1.943   0.128  0.00  0.00    +0.009 C 
ATOM     29  C   UNL     1     -10.092   0.298   1.055  0.00  0.00    +0.009 C 
ENDBRANCH  17  27
ENDBRANCH  16  17
ENDBRANCH   5  16
TORSDOF 5
