REMARK  Name = ZINC13507254
REMARK  10 active torsions:
REMARK  status: ('A' for Active; 'I' for Inactive)
REMARK    1  A    between atoms: C_1  and  C_2
REMARK    2  A    between atoms: C_5  and  C_36
REMARK    3  A    between atoms: C_6  and  N_8
REMARK    4  A    between atoms: N_8  and  C_9
REMARK    5  A    between atoms: C_9  and  C_11
REMARK    6  A    between atoms: C_9  and  C_17
REMARK    7  A    between atoms: N_19  and  C_20
REMARK    8  A    between atoms: C_25  and  C_27
REMARK    9  A    between atoms: C_27  and  N_28
REMARK   10  A    between atoms: C_29  and  C_31
REMARK                            x       y       z     vdW  Elec       q    Type
REMARK                         _______ _______ _______ _____ _____    ______ ____
ROOT
ATOM      1  N   UNL     1       0.085  -3.180   2.286  0.00  0.00    -0.254 N 
ATOM      2  C   UNL     1       1.224  -3.414   2.965  0.00  0.00    +0.238 C 
ATOM      3  O   UNL     1       1.180  -3.702   4.143  0.00  0.00    -0.274 OA
ENDROOT
BRANCH   1   9
ATOM      4  C   UNL     1       0.615   0.222  -1.224  0.00  0.00    +0.044 C 
ATOM      5  C   UNL     1       0.391  -1.207  -0.802  0.00  0.00    -0.049 A 
ATOM      6  C   UNL     1       0.235  -2.193  -1.759  0.00  0.00    +0.004 A 
ATOM      7  C   UNL     1       0.030  -3.506  -1.377  0.00  0.00    +0.005 A 
ATOM      8  C   UNL     1      -0.021  -3.836  -0.036  0.00  0.00    -0.029 A 
ATOM      9  C   UNL     1       0.135  -2.848   0.927  0.00  0.00    +0.041 A 
ATOM     10  C   UNL     1       0.347  -1.532   0.539  0.00  0.00    +0.027 A 
ATOM     11  C   UNL     1      -0.245  -5.267   0.380  0.00  0.00    +0.045 C 
ENDBRANCH   1   9
BRANCH   1  12
ATOM     12  C   UNL     1      -1.208  -3.271   2.969  0.00  0.00    +0.197 C 
BRANCH  12  13
ATOM     13  C   UNL     1      -2.320  -3.096   1.967  0.00  0.00    -0.015 A 
ATOM     14  C   UNL     1      -2.446  -1.919   1.246  0.00  0.00    +0.025 A 
ATOM     15  C   UNL     1      -3.478  -1.794   0.335  0.00  0.00    +0.111 A 
ATOM     16  N   UNL     1      -4.337  -2.778   0.150  0.00  0.00    -0.263 NA
ATOM     17  C   UNL     1      -4.248  -3.911   0.819  0.00  0.00    +0.111 A 
ATOM     18  C   UNL     1      -3.238  -4.110   1.742  0.00  0.00    +0.025 A 
ENDBRANCH  12  13
BRANCH  12  19
ATOM     19  C   UNL     1      -1.300  -2.191   4.016  0.00  0.00    +0.239 C 
ATOM     20  O   UNL     1      -0.377  -1.420   4.175  0.00  0.00    -0.273 OA
ATOM     21  N   UNL     1      -2.408  -2.080   4.775  0.00  0.00    -0.311 N 
ATOM     22  H   UNL     1      -3.146  -2.697   4.648  0.00  0.00    +0.149 HD
BRANCH  21  23
ATOM     23  C   UNL     1      -2.498  -1.030   5.793  0.00  0.00    +0.073 C 
ATOM     24  C   UNL     1      -1.899  -1.531   7.123  0.00  0.00    +0.022 C 
ATOM     25  C   UNL     1      -2.813  -0.909   8.208  0.00  0.00    +0.002 C 
ATOM     26  C   UNL     1      -4.219  -1.000   7.565  0.00  0.00    +0.002 C 
ATOM     27  C   UNL     1      -3.972  -0.693   6.073  0.00  0.00    +0.022 C 
ENDBRANCH  21  23
ENDBRANCH  12  19
ENDBRANCH   1  12
BRANCH   2  28
ATOM     28  C   UNL     1       2.554  -3.321   2.262  0.00  0.00    +0.201 C 
BRANCH  28  29
ATOM     29  N   UNL     1       3.630  -3.618   3.210  0.00  0.00    -0.300 N 
ATOM     30  C   UNL     1       4.914  -3.594   2.801  0.00  0.00    +0.280 C 
ATOM     31  O   UNL     1       5.180  -3.325   1.644  0.00  0.00    -0.267 OA
ATOM     32  H   UNL     1       3.419  -3.832   4.132  0.00  0.00    +0.150 HD
BRANCH  30  33
ATOM     33  C   UNL     1       5.992  -3.891   3.751  0.00  0.00    +0.189 A 
ATOM     34  C   UNL     1       7.328  -3.897   3.471  0.00  0.00    +0.054 A 
ATOM     35  C   UNL     1       7.989  -4.231   4.664  0.00  0.00    +0.042 A 
ATOM     36  C   UNL     1       7.038  -4.413   5.607  0.00  0.00    +0.196 A 
ATOM     37  O   UNL     1       5.836  -4.202   5.054  0.00  0.00    -0.458 OA
ENDBRANCH  30  33
ENDBRANCH  28  29
ENDBRANCH   2  28
TORSDOF 8
