REMARK  Name = ZINC37282049
REMARK  12 active torsions:
REMARK  status: ('A' for Active; 'I' for Inactive)
REMARK    1  A    between atoms: C_1  and  C_2
REMARK    2  A    between atoms: C_5  and  C_8
REMARK    3  A    between atoms: C_12  and  O_25
REMARK    4  A    between atoms: C_19  and  C_21
REMARK    5  A    between atoms: C_21  and  C_22
REMARK    6  A    between atoms: C_22  and  C_23
REMARK    7  A    between atoms: C_22  and  C_24
REMARK    8  A    between atoms: O_25  and  C_26
REMARK    9  A    between atoms: C_26  and  C_27
REMARK   10  A    between atoms: C_29  and  C_32
REMARK   11  A    between atoms: N_34  and  C_35
REMARK   12  A    between atoms: C_35  and  C_36
REMARK                            x       y       z     vdW  Elec       q    Type
REMARK                         _______ _______ _______ _____ _____    ______ ____
ROOT
ATOM      1  C   UNL     1       0.046  -4.270  -0.006  0.00  0.00    +0.137 C 
ATOM      2  C   UNL     1      -1.312  -4.805   0.373  0.00  0.00    -0.016 A 
ATOM      3  C   UNL     1      -2.420  -4.262  -0.262  0.00  0.00    +0.051 A 
ATOM      4  C   UNL     1      -3.693  -4.718   0.035  0.00  0.00    +0.122 A 
ATOM      5  C   UNL     1      -3.858  -5.727   0.974  0.00  0.00    +0.046 A 
ATOM      6  C   UNL     1      -2.755  -6.260   1.606  0.00  0.00    +0.007 A 
ATOM      7  C   UNL     1      -1.477  -5.798   1.312  0.00  0.00    -0.040 A 
ATOM      8  C   UNL     1      -0.325  -6.412   2.063  0.00  0.00    +0.054 C 
ATOM      9  C   UNL     1       0.992  -6.177   1.325  0.00  0.00    +0.113 C 
ATOM     10  N   UNL     1       1.051  -4.756   0.947  0.00  0.00    -0.290 N 
ATOM     11  C   UNL     1       1.990  -3.934   1.455  0.00  0.00    +0.217 C 
ATOM     12  O   UNL     1       1.973  -2.752   1.183  0.00  0.00    -0.276 OA
ENDROOT
BRANCH   1  17
ATOM     13  C   UNL     1      -0.061   1.506   0.096  0.00  0.00    +0.044 C 
ATOM     14  C   UNL     1      -0.033  -0.000   0.070  0.00  0.00    -0.050 A 
ATOM     15  C   UNL     1      -0.413  -0.718   1.188  0.00  0.00    +0.004 A 
ATOM     16  C   UNL     1      -0.388  -2.100   1.163  0.00  0.00    +0.006 A 
ATOM     17  C   UNL     1       0.018  -2.764   0.021  0.00  0.00    -0.023 A 
ATOM     18  C   UNL     1       0.397  -2.046  -1.098  0.00  0.00    +0.006 A 
ATOM     19  C   UNL     1       0.367  -0.664  -1.075  0.00  0.00    +0.004 A 
ENDBRANCH   1  17
BRANCH  11  20
ATOM     20  C   UNL     1       3.062  -4.483   2.360  0.00  0.00    +0.099 C 
BRANCH  20  21
ATOM     21  C   UNL     1       3.994  -3.350   2.794  0.00  0.00    -0.008 C 
ATOM     22  C   UNL     1       3.215  -2.349   3.650  0.00  0.00    +0.008 C 
ATOM     23  C   UNL     1       5.153  -3.926   3.610  0.00  0.00    +0.008 C 
ENDBRANCH  20  21
ENDBRANCH  11  20
BRANCH   4  24
ATOM     24  O   UNL     1      -4.774  -4.182  -0.589  0.00  0.00    -0.483 OA
BRANCH  24  25
ATOM     25  C   UNL     1      -6.055  -4.704  -0.230  0.00  0.00    +0.324 C 
BRANCH  25  26
ATOM     26  C   UNL     1      -7.126  -3.993  -1.018  0.00  0.00    +0.234 A 
ATOM     27  N   UNL     1      -7.582  -4.368  -2.175  0.00  0.00    -0.206 NA
ATOM     28  C   UNL     1      -8.537  -3.482  -2.570  0.00  0.00    +0.164 A 
ATOM     29  C   UNL     1      -8.640  -2.542  -1.590  0.00  0.00    +0.230 A 
ATOM     30  O   UNL     1      -7.761  -2.877  -0.632  0.00  0.00    -0.444 OA
BRANCH  28  31
ATOM     31  C   UNL     1      -9.312  -3.530  -3.823  0.00  0.00    +0.266 C 
ATOM     32  O   UNL     1     -10.140  -2.672  -4.058  0.00  0.00    -0.268 OA
ATOM     33  N   UNL     1      -9.102  -4.525  -4.707  0.00  0.00    -0.308 N 
ATOM     34  H   UNL     1      -8.441  -5.210  -4.519  0.00  0.00    +0.149 HD
BRANCH  33  35
ATOM     35  C   UNL     1      -9.873  -4.573  -5.952  0.00  0.00    +0.136 C 
BRANCH  35  36
ATOM     36  C   UNL     1      -9.444  -5.793  -6.770  0.00  0.00    +0.135 C 
ATOM     37  C   UNL     1     -10.223  -5.843  -8.109  0.00  0.00    +0.035 C 
ATOM     38  C   UNL     1      -9.244  -6.668  -8.989  0.00  0.00    +0.031 C 
ATOM     39  C   UNL     1      -7.866  -6.213  -8.460  0.00  0.00    +0.160 C 
ATOM     40  O   UNL     1      -8.061  -5.682  -7.143  0.00  0.00    -0.375 OA
ENDBRANCH  35  36
ENDBRANCH  33  35
ENDBRANCH  28  31
ENDBRANCH  25  26
ENDBRANCH  24  25
ENDBRANCH   4  24
TORSDOF 9
