REMARK  Name = ZINC40308644
REMARK  8 active torsions:
REMARK  status: ('A' for Active; 'I' for Inactive)
REMARK    1  A    between atoms: C_1  and  C_2
REMARK    2  A    between atoms: C_3  and  N_21
REMARK    3  A    between atoms: C_4  and  C_20
REMARK    4  A    between atoms: N_5  and  C_7
REMARK    5  A    between atoms: C_7  and  C_8
REMARK    6  A    between atoms: C_13  and  C_16
REMARK    7  A    between atoms: C_16  and  O_18
REMARK    8  A    between atoms: O_18  and  C_19
REMARK                            x       y       z     vdW  Elec       q    Type
REMARK                         _______ _______ _______ _____ _____    ______ ____
ROOT
ATOM      1  C   UNL     1       1.481  -3.678   1.786  0.00  0.00    +0.237 C 
ATOM      2  O   UNL     1       2.392  -3.030   1.316  0.00  0.00    -0.274 OA
ATOM      3  N   UNL     1       1.745  -4.745   2.566  0.00  0.00    -0.300 N 
ATOM      4  C   UNL     1       0.652  -5.544   3.137  0.00  0.00    +0.108 C 
ATOM      5  C   UNL     1       0.851  -5.639   4.653  0.00  0.00    +0.033 C 
ATOM      6  C   UNL     1       2.249  -6.186   4.947  0.00  0.00    +0.101 C 
ATOM      7  C   UNL     1       3.302  -5.230   4.382  0.00  0.00    +0.033 C 
ATOM      8  C   UNL     1       3.132  -5.134   2.858  0.00  0.00    +0.108 C 
ENDROOT
BRANCH   6   9
ATOM      9  C   UNL     1       2.435  -6.312   6.438  0.00  0.00    +0.310 C 
ATOM     10  O   UNL     1       1.541  -5.998   7.187  0.00  0.00    -0.251 OA
BRANCH   9  11
ATOM     11  O   UNL     1       3.594  -6.775   6.932  0.00  0.00    -0.468 OA
ATOM     12  C   UNL     1       3.701  -6.869   8.354  0.00  0.00    +0.280 C 
ENDBRANCH   9  11
ENDBRANCH   6   9
BRANCH   1  13
ATOM     13  C   UNL     1       0.053  -3.292   1.496  0.00  0.00    +0.239 C 
BRANCH  13  18
ATOM     14  C   UNL     1      -0.018   1.503   0.010  0.00  0.00    +0.069 C 
ATOM     15  C   UNL     1       0.002  -0.004   0.002  0.00  0.00    +0.081 A 
ATOM     16  C   UNL     1       0.008  -0.818  -1.139  0.00  0.00    +0.068 A 
ATOM     17  C   UNL     1       0.027  -2.111  -0.728  0.00  0.00    +0.058 A 
ATOM     18  N   UNL     1       0.034  -2.109   0.631  0.00  0.00    -0.258 N 
ATOM     19  N   UNL     1       0.023  -0.775   1.059  0.00  0.00    -0.174 NA
ATOM     20  C   UNL     1       0.040  -3.329  -1.617  0.00  0.00    +0.067 C 
BRANCH  16  21
ATOM     21  N   UNL     1      -0.005  -0.373  -2.475  0.00  0.00    -0.355 N 
ATOM     22  H   UNL     1      -0.018   0.577  -2.670  0.00  0.00    +0.142 HD
ATOM     23  H   UNL     1       0.001  -1.017  -3.201  0.00  0.00    +0.142 HD
ENDBRANCH  16  21
ENDBRANCH  13  18
ENDBRANCH   1  13
TORSDOF 5
