REMARK  Name = ZINC60381385
REMARK  5 active torsions:
REMARK  status: ('A' for Active; 'I' for Inactive)
REMARK    1  A    between atoms: C_4  and  N_7
REMARK    2  A    between atoms: C_16  and  C_18
REMARK    3  A    between atoms: C_18  and  N_19
REMARK    4  A    between atoms: C_26  and  S_28
REMARK    5  A    between atoms: S_28  and  N_31
REMARK                            x       y       z     vdW  Elec       q    Type
REMARK                         _______ _______ _______ _____ _____    ______ ____
ROOT
ATOM      1  N   UNL     1       3.623  -0.651  -0.037  0.00  0.00    -0.214 N 
ATOM      2  C   UNL     1       3.884  -1.835   0.583  0.00  0.00    +0.170 A 
ATOM      3  C   UNL     1       5.224  -2.146   0.303  0.00  0.00    +0.103 A 
ATOM      4  C   UNL     1       5.736  -1.108  -0.498  0.00  0.00    +0.150 A 
ATOM      5  N   UNL     1       4.786  -0.236  -0.697  0.00  0.00    -0.172 NA
ATOM      6  C   UNL     1       5.773  -3.385   0.854  0.00  0.00    +0.262 A 
ATOM      7  O   UNL     1       6.929  -3.710   0.647  0.00  0.00    -0.267 OA
ATOM      8  N   UNL     1       4.950  -4.155   1.603  0.00  0.00    -0.309 N 
ATOM      9  H   UNL     1       5.279  -4.984   1.985  0.00  0.00    +0.170 HD
ATOM     10  C   UNL     1       3.666  -3.773   1.821  0.00  0.00    +0.129 A 
ATOM     11  N   UNL     1       3.161  -2.675   1.339  0.00  0.00    -0.213 NA
ENDROOT
BRANCH   1  15
ATOM     12  C   UNL     1      -0.017   1.379   0.010  0.00  0.00    +0.000 A 
ATOM     13  C   UNL     1       1.170   2.089   0.002  0.00  0.00    +0.002 A 
ATOM     14  C   UNL     1       2.377   1.419  -0.013  0.00  0.00    +0.028 A 
ATOM     15  C   UNL     1       2.400   0.031  -0.021  0.00  0.00    +0.068 A 
ATOM     16  C   UNL     1       1.206  -0.680  -0.013  0.00  0.00    +0.028 A 
ATOM     17  C   UNL     1       0.002  -0.004   0.002  0.00  0.00    +0.002 A 
ENDBRANCH   1  15
BRANCH  10  18
ATOM     18  C   UNL     1       2.785  -4.662   2.660  0.00  0.00    +0.179 C 
BRANCH  18  19
ATOM     19  N   UNL     1       1.451  -4.066   2.767  0.00  0.00    -0.322 N 
ATOM     20  C   UNL     1       1.032  -3.128   3.812  0.00  0.00    +0.110 C 
ATOM     21  C   UNL     1      -0.435  -2.797   3.492  0.00  0.00    +0.056 C 
ATOM     22  C   UNL     1      -0.743  -3.601   2.249  0.00  0.00    -0.023 A 
ATOM     23  C   UNL     1       0.395  -4.303   1.885  0.00  0.00    +0.033 A 
ATOM     24  C   UNL     1       0.355  -5.120   0.753  0.00  0.00    +0.025 A 
ATOM     25  C   UNL     1      -0.800  -5.218   0.008  0.00  0.00    +0.030 A 
ATOM     26  C   UNL     1      -1.929  -4.510   0.376  0.00  0.00    +0.105 A 
ATOM     27  C   UNL     1      -1.900  -3.707   1.502  0.00  0.00    +0.034 A 
BRANCH  26  28
ATOM     28  S   UNL     1      -3.404  -4.638  -0.579  0.00  0.00    +0.056 S 
ATOM     29  O   UNL     1      -4.150  -3.454  -0.335  0.00  0.00    -0.153 OA
ATOM     30  O   UNL     1      -3.008  -5.034  -1.885  0.00  0.00    -0.153 OA
BRANCH  28  31
ATOM     31  N   UNL     1      -4.286  -5.891   0.048  0.00  0.00    -0.204 NA
ATOM     32  H   UNL     1      -5.255  -5.877  -0.005  0.00  0.00    +0.144 HD
ATOM     33  H   UNL     1      -3.835  -6.639   0.469  0.00  0.00    +0.144 HD
ENDBRANCH  28  31
ENDBRANCH  26  28
ENDBRANCH  18  19
ENDBRANCH  10  18
TORSDOF 5
