REMARK  Name = ZINC20731225
REMARK  9 active torsions:
REMARK  status: ('A' for Active; 'I' for Inactive)
REMARK    1  A    between atoms: C_1  and  C_2
REMARK    2  A    between atoms: C_2  and  C_3
REMARK    3  A    between atoms: C_3  and  C_5
REMARK    4  A    between atoms: C_3  and  C_6
REMARK    5  A    between atoms: C_6  and  C_8
REMARK    6  A    between atoms: C_6  and  N_12
REMARK    7  A    between atoms: C_8  and  O_10
REMARK    8  A    between atoms: O_10  and  C_11
REMARK    9  A    between atoms: C_24  and  C_26
REMARK                            x       y       z     vdW  Elec       q    Type
REMARK                         _______ _______ _______ _____ _____    ______ ____
ROOT
ATOM      1  N   UNL     1      -2.686  -2.265   2.308  0.00  0.00    -0.286 N 
ATOM      2  C   UNL     1      -1.386  -2.518   2.560  0.00  0.00    +0.304 C 
ATOM      3  O   UNL     1      -0.584  -2.547   1.646  0.00  0.00    -0.253 OA
ATOM      4  N   UNL     1      -0.975  -2.739   3.824  0.00  0.00    -0.273 N 
ATOM      5  C   UNL     1       0.453  -2.901   4.136  0.00  0.00    +0.116 C 
ATOM      6  C   UNL     1       0.905  -1.748   5.040  0.00  0.00    +0.076 C 
ATOM      7  C   UNL     1      -0.120  -1.552   6.129  0.00  0.00    +0.066 A 
ATOM      8  C   UNL     1      -1.384  -2.024   6.080  0.00  0.00    +0.064 A 
ATOM      9  N   UNL     1      -2.002  -1.645   7.231  0.00  0.00    -0.346 N 
ATOM     10  H   UNL     1      -2.918  -1.835   7.484  0.00  0.00    +0.167 HD
ATOM     11  C   UNL     1      -1.093  -0.953   7.957  0.00  0.00    +0.197 A 
ATOM     12  N   UNL     1       0.029  -0.903   7.288  0.00  0.00    -0.240 NA
ATOM     13  C   UNL     1      -1.946  -2.817   4.932  0.00  0.00    +0.159 C 
ATOM     14  H   UNL     1      -3.337  -2.314   3.025  0.00  0.00    +0.151 HD
ENDROOT
BRANCH  13  15
ATOM     15  C   UNL     1      -2.132  -4.253   5.349  0.00  0.00    +0.014 A 
ATOM     16  C   UNL     1      -2.107  -4.593   6.689  0.00  0.00    +0.010 A 
ATOM     17  C   UNL     1      -2.279  -5.910   7.072  0.00  0.00    +0.016 A 
ATOM     18  C   UNL     1      -2.476  -6.889   6.115  0.00  0.00    +0.021 A 
ATOM     19  C   UNL     1      -2.500  -6.552   4.774  0.00  0.00    +0.054 A 
ATOM     20  C   UNL     1      -2.334  -5.232   4.391  0.00  0.00    +0.130 A 
ATOM     21  F   UNL     1      -2.364  -4.900   3.081  0.00  0.00    -0.205 F 
ATOM     22 BR   UNL     1      -2.710  -8.691   6.641  0.00  0.00    -0.050 Br
ENDBRANCH  13  15
BRANCH   1  23
ATOM     23  C   UNL     1      -3.115  -1.918   0.951  0.00  0.00    +0.186 C 
BRANCH  23  24
ATOM     24  C   UNL     1      -3.360  -3.199   0.150  0.00  0.00    +0.017 C 
ATOM     25  C   UNL     1      -3.686  -2.838  -1.301  0.00  0.00    +0.010 C 
BRANCH  24  27
ATOM     26  C   UNL     1      -4.699  -5.305   0.039  0.00  0.00    +0.004 C 
ATOM     27  C   UNL     1      -4.533  -3.966   0.761  0.00  0.00    +0.002 C 
ENDBRANCH  24  27
ENDBRANCH  23  24
BRANCH  23  28
ATOM     28  C   UNL     1      -4.388  -1.115   1.016  0.00  0.00    +0.328 C 
ATOM     29  O   UNL     1      -4.887  -0.860   2.087  0.00  0.00    -0.249 OA
BRANCH  28  30
ATOM     30  O   UNL     1      -4.969  -0.684  -0.114  0.00  0.00    -0.467 OA
ATOM     31  C   UNL     1      -6.175   0.071   0.022  0.00  0.00    +0.280 C 
ENDBRANCH  28  30
ENDBRANCH  23  28
ENDBRANCH   1  23
TORSDOF 6
