REMARK  Name = ZINC39664277
REMARK  8 active torsions:
REMARK  status: ('A' for Active; 'I' for Inactive)
REMARK    1  A    between atoms: C_1  and  O_2
REMARK    2  A    between atoms: O_2  and  C_3
REMARK    3  A    between atoms: C_8  and  C_9
REMARK    4  A    between atoms: C_13  and  C_22
REMARK    5  A    between atoms: N_24  and  C_25
REMARK    6  A    between atoms: C_25  and  C_26
REMARK    7  A    between atoms: C_26  and  C_28
REMARK    8  A    between atoms: C_26  and  N_34
REMARK                            x       y       z     vdW  Elec       q    Type
REMARK                         _______ _______ _______ _____ _____    ______ ____
ROOT
ATOM      1  C   UNL     1       0.038  -2.807   0.107  0.00  0.00    +0.250 C 
ATOM      2  O   UNL     1      -0.518  -2.272  -0.833  0.00  0.00    -0.270 OA
ATOM      3  N   UNL     1       0.237  -4.140   0.103  0.00  0.00    -0.296 N 
ATOM      4  C   UNL     1       0.796  -4.978   1.190  0.00  0.00    +0.121 C 
ATOM      5  C   UNL     1      -0.050  -6.271   1.160  0.00  0.00    +0.100 C 
ATOM      6  C   UNL     1      -0.602  -6.345  -0.274  0.00  0.00    -0.004 C 
ATOM      7  C   UNL     1      -0.058  -5.099  -0.988  0.00  0.00    +0.115 C 
ATOM      8  C   UNL     1      -2.127  -6.311  -0.255  0.00  0.00    -0.010 C 
ATOM      9  C   UNL     1      -2.654  -6.444  -1.687  0.00  0.00    -0.082 C 
ATOM     10  N   UNL     1      -2.180  -7.705  -2.270  0.00  0.00    +0.379 N 
ATOM     11  C   UNL     1      -0.715  -7.691  -2.369  0.00  0.00    -0.082 C 
ATOM     12  C   UNL     1      -0.107  -7.611  -0.967  0.00  0.00    -0.010 C 
ATOM     13  H   UNL     1      -2.468  -8.474  -1.684  0.00  0.00    -0.086 HD
ATOM     14  H   UNL     1      -2.577  -7.819  -3.190  0.00  0.00    -0.086 HD
ENDROOT
BRANCH   1  20
ATOM     15  C   UNL     1      -0.252  -0.886   1.671  0.00  0.00    +0.132 A 
ATOM     16  C   UNL     1       0.183  -0.135   2.753  0.00  0.00    +0.046 A 
ATOM     17  C   UNL     1       1.348  -0.477   3.410  0.00  0.00    +0.004 A 
ATOM     18  C   UNL     1       2.091  -1.571   2.996  0.00  0.00    +0.001 A 
ATOM     19  C   UNL     1       1.673  -2.329   1.923  0.00  0.00    +0.017 A 
ATOM     20  C   UNL     1       0.493  -1.997   1.253  0.00  0.00    +0.078 A 
BRANCH  15  22
ATOM     21  C   UNL     1      -2.102   0.594   1.507  0.00  0.00    +0.277 C 
ATOM     22  O   UNL     1      -1.396  -0.550   1.024  0.00  0.00    -0.494 OA
ENDBRANCH  15  22
ENDBRANCH   1  20
BRANCH   5  23
ATOM     23  C   UNL     1       0.814  -7.470   1.454  0.00  0.00    +0.218 C 
ATOM     24  O   UNL     1       1.999  -7.441   1.199  0.00  0.00    -0.275 OA
ATOM     25  N   UNL     1       0.269  -8.575   2.002  0.00  0.00    -0.313 N 
ATOM     26  H   UNL     1      -0.679  -8.598   2.207  0.00  0.00    +0.149 HD
BRANCH  25  27
ATOM     27  C   UNL     1       1.109  -9.741   2.289  0.00  0.00    +0.127 C 
BRANCH  27  28
ATOM     28  C   UNL     1       0.281 -10.798   3.022  0.00  0.00    +0.104 C 
BRANCH  28  29
ATOM     29  C   UNL     1      -0.175 -10.248   4.348  0.00  0.00    -0.029 A 
ATOM     30  C   UNL     1       0.694 -10.226   5.423  0.00  0.00    +0.005 A 
ATOM     31  C   UNL     1       0.276  -9.722   6.640  0.00  0.00    +0.000 A 
ATOM     32  C   UNL     1      -1.011  -9.239   6.783  0.00  0.00    +0.000 A 
ATOM     33  C   UNL     1      -1.880  -9.259   5.708  0.00  0.00    +0.000 A 
ATOM     34  C   UNL     1      -1.461  -9.760   4.490  0.00  0.00    +0.005 A 
ENDBRANCH  28  29
BRANCH  28  35
ATOM     35  N   UNL     1       1.102 -11.995   3.244  0.00  0.00    -0.290 NA
ATOM     36  C   UNL     1       1.673 -12.485   1.980  0.00  0.00    +0.113 C 
ATOM     37  C   UNL     1       2.566 -13.695   2.265  0.00  0.00    +0.175 C 
ATOM     38  O   UNL     1       1.801 -14.698   2.938  0.00  0.00    -0.377 OA
ATOM     39  C   UNL     1       1.231 -14.256   4.173  0.00  0.00    +0.175 C 
ATOM     40  C   UNL     1       0.324 -13.052   3.908  0.00  0.00    +0.113 C 
ENDBRANCH  28  35
ENDBRANCH  27  28
ENDBRANCH  25  27
ENDBRANCH   5  23
TORSDOF 7
