REMARK  Name = ZINC15225483
REMARK  6 active torsions:
REMARK  status: ('A' for Active; 'I' for Inactive)
REMARK    1  A    between atoms: C_4  and  C_7
REMARK    2  A    between atoms: C_7  and  N_8
REMARK    3  A    between atoms: C_12  and  C_14
REMARK    4  A    between atoms: C_14  and  S_15
REMARK    5  A    between atoms: S_15  and  C_16
REMARK    6  A    between atoms: N_26  and  C_27
REMARK                            x       y       z     vdW  Elec       q    Type
REMARK                         _______ _______ _______ _____ _____    ______ ____
ROOT
ATOM      1  S   UNL     1      -2.419  -2.907  -1.121  0.00  0.00    -0.078 S 
ENDROOT
BRANCH   1   2
ATOM      2  C   UNL     1      -1.016  -2.041  -0.499  0.00  0.00    +0.177 A 
ATOM      3  N   UNL     1      -1.029  -0.731  -0.523  0.00  0.00    -0.223 NA
ATOM      4  C   UNL     1       0.015  -0.004  -0.062  0.00  0.00    +0.079 A 
ATOM      5  C   UNL     1       0.003   1.393  -0.087  0.00  0.00    +0.028 A 
ATOM      6  C   UNL     1       1.080   2.087   0.389  0.00  0.00    +0.002 A 
ATOM      7  C   UNL     1       2.188   1.425   0.900  0.00  0.00    +0.001 A 
ATOM      8  C   UNL     1       2.230   0.058   0.938  0.00  0.00    +0.015 A 
ATOM      9  C   UNL     1       1.146  -0.675   0.458  0.00  0.00    +0.065 A 
ATOM     10  C   UNL     1       1.135  -2.144   0.473  0.00  0.00    +0.267 A 
ATOM     11  O   UNL     1       2.079  -2.778   0.907  0.00  0.00    -0.267 OA
ATOM     12  N   UNL     1       0.037  -2.767  -0.014  0.00  0.00    -0.255 N 
BRANCH  12  13
ATOM     13  C   UNL     1      -0.022  -4.167  -0.022  0.00  0.00    +0.052 A 
ATOM     14  C   UNL     1      -0.543  -4.847   1.071  0.00  0.00    +0.026 A 
ATOM     15  C   UNL     1      -0.605  -6.227   1.059  0.00  0.00    +0.002 A 
ATOM     16  C   UNL     1      -0.138  -6.931  -0.036  0.00  0.00    +0.000 A 
ATOM     17  C   UNL     1       0.386  -6.257  -1.124  0.00  0.00    +0.002 A 
ATOM     18  C   UNL     1       0.445  -4.877  -1.119  0.00  0.00    +0.026 A 
ENDBRANCH  12  13
ENDBRANCH   1   2
BRANCH   1  19
ATOM     19  C   UNL     1      -3.460  -1.510  -1.610  0.00  0.00    +0.173 C 
BRANCH  19  24
ATOM     20  N   UNL     1      -7.783  -0.751  -3.571  0.00  0.00    -0.295 N 
ATOM     21  C   UNL     1      -6.846  -1.618  -3.137  0.00  0.00    +0.306 C 
ATOM     22  O   UNL     1      -7.045  -2.815  -3.210  0.00  0.00    -0.252 OA
ATOM     23  N   UNL     1      -5.689  -1.157  -2.621  0.00  0.00    -0.239 N 
ATOM     24  C   UNL     1      -4.753  -2.024  -2.187  0.00  0.00    +0.231 C 
ATOM     25  O   UNL     1      -4.952  -3.218  -2.260  0.00  0.00    -0.274 OA
ATOM     26  H   UNL     1      -7.624   0.204  -3.513  0.00  0.00    +0.151 HD
ATOM     27  H   UNL     1      -5.531  -0.202  -2.562  0.00  0.00    +0.159 HD
BRANCH  20  28
ATOM     28  C   UNL     1      -9.040  -1.252  -4.132  0.00  0.00    +0.141 C 
BRANCH  28  32
ATOM     29  C   UNL     1     -11.497   2.047  -5.287  0.00  0.00    +0.000 A 
ATOM     30  C   UNL     1     -10.607   1.498  -6.191  0.00  0.00    +0.000 A 
ATOM     31  C   UNL     1      -9.812   0.431  -5.817  0.00  0.00    +0.005 A 
ATOM     32  C   UNL     1      -9.907  -0.088  -4.539  0.00  0.00    -0.030 A 
ATOM     33  C   UNL     1     -10.801   0.457  -3.637  0.00  0.00    +0.005 A 
ATOM     34  C   UNL     1     -11.592   1.528  -4.009  0.00  0.00    +0.000 A 
ENDBRANCH  28  32
ENDBRANCH  20  28
ENDBRANCH  19  24
ENDBRANCH   1  19
TORSDOF 6
