REMARK  Name = ZINC63831595
REMARK  10 active torsions:
REMARK  status: ('A' for Active; 'I' for Inactive)
REMARK    1  A    between atoms: C_1  and  O_2
REMARK    2  A    between atoms: O_2  and  C_3
REMARK    3  A    between atoms: C_6  and  C_9
REMARK    4  A    between atoms: C_9  and  C_11
REMARK    5  A    between atoms: C_9  and  C_29
REMARK    6  A    between atoms: C_11  and  N_12
REMARK    7  A    between atoms: C_13  and  C_15
REMARK    8  A    between atoms: C_15  and  N_16
REMARK    9  A    between atoms: N_19  and  C_22
REMARK   10  A    between atoms: C_27  and  O_28
REMARK                            x       y       z     vdW  Elec       q    Type
REMARK                         _______ _______ _______ _____ _____    ______ ____
ROOT
ATOM      1  C   UNL     1       3.662  -3.370  -3.882  0.00  0.00    +0.116 C 
ENDROOT
BRANCH   1   2
ATOM      2  N   UNL     1       4.387  -3.925  -5.028  0.00  0.00    -0.313 N 
ATOM      3  C   UNL     1       5.453  -4.725  -4.828  0.00  0.00    +0.227 C 
ATOM      4  O   UNL     1       5.812  -4.986  -3.699  0.00  0.00    -0.274 OA
ATOM      5  H   UNL     1       4.099  -3.716  -5.931  0.00  0.00    +0.149 HD
BRANCH   3   6
ATOM      6  C   UNL     1       6.198  -5.296  -6.007  0.00  0.00    +0.180 C 
BRANCH   6   7
ATOM      7  N   UNL     1       7.310  -6.128  -5.527  0.00  0.00    -0.291 NA
ATOM      8  C   UNL     1       8.314  -5.314  -4.830  0.00  0.00    +0.104 C 
ATOM      9  C   UNL     1       9.359  -6.234  -4.191  0.00  0.00    +0.120 C 
ATOM     10  N   UNL     1       9.894  -7.127  -5.231  0.00  0.00    -0.325 N 
ATOM     11  C   UNL     1       8.941  -7.874  -6.065  0.00  0.00    +0.120 C 
ATOM     12  C   UNL     1       7.912  -6.889  -6.630  0.00  0.00    +0.104 C 
BRANCH  10  13
ATOM     13  C   UNL     1      11.274  -7.261  -5.422  0.00  0.00    +0.072 A 
ATOM     14  C   UNL     1      11.980  -8.237  -4.733  0.00  0.00    +0.027 A 
ATOM     15  C   UNL     1      13.342  -8.369  -4.924  0.00  0.00    +0.002 A 
ATOM     16  C   UNL     1      14.005  -7.529  -5.799  0.00  0.00    +0.004 A 
ATOM     17  C   UNL     1      13.309  -6.553  -6.489  0.00  0.00    +0.047 A 
ATOM     18  C   UNL     1      11.942  -6.419  -6.308  0.00  0.00    +0.138 A 
BRANCH  18  19
ATOM     19  O   UNL     1      11.255  -5.463  -6.990  0.00  0.00    -0.505 OA
ATOM     20  H   UNL     1      11.203  -4.614  -6.531  0.00  0.00    +0.292 HD
ENDBRANCH  18  19
ENDBRANCH  10  13
ENDBRANCH   6   7
ENDBRANCH   3   6
ENDBRANCH   1   2
BRANCH   1  21
ATOM     21  C   UNL     1       2.505  -2.503  -4.381  0.00  0.00    +0.064 C 
BRANCH  21  22
ATOM     22  C   UNL     1       1.505  -3.369  -5.104  0.00  0.00    -0.033 C 
ATOM     23  C   UNL     1       1.118  -3.260  -6.396  0.00  0.00    -0.000 A 
ATOM     24  C   UNL     1       1.498  -2.337  -7.473  0.00  0.00    +0.010 A 
ATOM     25  C   UNL     1       0.925  -2.479  -8.690  0.00  0.00    +0.001 A 
ATOM     26  C   UNL     1      -0.019  -3.482  -8.948  0.00  0.00    +0.002 A 
ATOM     27  C   UNL     1      -0.418  -4.367  -8.010  0.00  0.00    +0.026 A 
ATOM     28  C   UNL     1       0.119  -4.311  -6.694  0.00  0.00    +0.043 A 
ATOM     29  N   UNL     1      -0.103  -5.041  -5.629  0.00  0.00    -0.380 N 
ATOM     30  C   UNL     1       0.735  -4.539  -4.534  0.00  0.00    +0.145 C 
ATOM     31  H   UNL     1      -0.716  -5.791  -5.574  0.00  0.00    +0.160 HD
ENDBRANCH  21  22
BRANCH  21  35
ATOM     32  C   UNL     1       0.606  -0.607  -1.056  0.00  0.00    +0.120 A 
ATOM     33  C   UNL     1       1.173   0.161  -2.062  0.00  0.00    +0.046 A 
ATOM     34  C   UNL     1       1.786  -0.455  -3.136  0.00  0.00    +0.008 A 
ATOM     35  C   UNL     1       1.835  -1.835  -3.209  0.00  0.00    -0.038 A 
ATOM     36  C   UNL     1       1.270  -2.602  -2.207  0.00  0.00    +0.008 A 
ATOM     37  C   UNL     1       0.661  -1.992  -1.128  0.00  0.00    +0.046 A 
BRANCH  32  39
ATOM     38  C   UNL     1      -0.017   1.425   0.010  0.00  0.00    +0.277 C 
ATOM     39  O   UNL     1       0.002  -0.004   0.002  0.00  0.00    -0.495 OA
ENDBRANCH  32  39
ENDBRANCH  21  35
ENDBRANCH   1  21
TORSDOF 9
