REMARK  Name = ZINC23125615
REMARK  10 active torsions:
REMARK  status: ('A' for Active; 'I' for Inactive)
REMARK    1  A    between atoms: C_1  and  C_2
REMARK    2  A    between atoms: C_2  and  N_3
REMARK    3  A    between atoms: C_4  and  C_31
REMARK    4  A    between atoms: C_5  and  C_9
REMARK    5  A    between atoms: C_6  and  C_8
REMARK    6  A    between atoms: C_9  and  N_10
REMARK    7  A    between atoms: C_11  and  C_13
REMARK    8  A    between atoms: C_13  and  C_14
REMARK    9  A    between atoms: C_14  and  N_15
REMARK   10  A    between atoms: C_21  and  C_30
REMARK                            x       y       z     vdW  Elec       q    Type
REMARK                         _______ _______ _______ _____ _____    ______ ____
ROOT
ATOM      1  C   UNL     1       2.428   1.009  -0.015  0.00  0.00    +0.135 C 
ENDROOT
BRANCH   1   2
ATOM      2  N   UNL     1       1.165   1.751   0.000  0.00  0.00    -0.297 N 
ATOM      3  C   UNL     1      -0.013   1.076   0.008  0.00  0.00    +0.202 A 
ATOM      4  N   UNL     1      -1.160   1.693   0.017  0.00  0.00    -0.235 NA
ATOM      5  C   UNL     1      -1.228   3.036   0.029  0.00  0.00    +0.103 A 
ATOM      6  C   UNL     1      -2.340   3.996   0.044  0.00  0.00    +0.026 A 
ATOM      7  C   UNL     1      -3.729   3.860   0.056  0.00  0.00    +0.015 A 
ATOM      8  C   UNL     1      -4.522   4.973   0.068  0.00  0.00    -0.050 A 
ATOM      9  C   UNL     1      -3.956   6.240   0.069  0.00  0.00    +0.005 A 
ATOM     10  C   UNL     1      -2.588   6.397   0.058  0.00  0.00    +0.026 A 
ATOM     11  C   UNL     1      -1.760   5.277   0.045  0.00  0.00    +0.049 A 
ATOM     12  N   UNL     1      -0.390   5.129   0.032  0.00  0.00    -0.349 N 
ATOM     13  H   UNL     1       0.259   6.017   0.031  0.00  0.00    +0.166 HD
ATOM     14  C   UNL     1      -0.057   3.788   0.022  0.00  0.00    +0.131 A 
ATOM     15  C   UNL     1       1.180   3.101   0.007  0.00  0.00    +0.278 A 
ATOM     16  O   UNL     1       2.234   3.714   0.002  0.00  0.00    -0.265 OA
ATOM     17  C   UNL     1      -6.021   4.823   0.082  0.00  0.00    +0.044 C 
ENDBRANCH   1   2
BRANCH   1  18
ATOM     18  C   UNL     1       2.854   0.758  -1.463  0.00  0.00    +0.117 C 
BRANCH  18  20
ATOM     19  N   UNL     1       4.724  -0.340  -2.653  0.00  0.00    -0.311 N 
ATOM     20  C   UNL     1       4.154  -0.004  -1.479  0.00  0.00    +0.215 C 
ATOM     21  O   UNL     1       4.687  -0.317  -0.435  0.00  0.00    -0.276 OA
ATOM     22  H   UNL     1       4.241  -0.056  -3.600  0.00  0.00    +0.149 HD
BRANCH  19  23
ATOM     23  C   UNL     1       5.988  -1.081  -2.669  0.00  0.00    +0.143 C 
BRANCH  23  26
ATOM     24  N   UNL     1       7.326  -1.090  -6.061  0.00  0.00    -0.268 N 
ATOM     25  C   UNL     1       7.183  -0.515  -4.849  0.00  0.00    +0.041 A 
ATOM     26  C   UNL     1       6.408  -1.328  -4.095  0.00  0.00    +0.013 A 
ATOM     27  C   UNL     1       6.070  -2.441  -4.871  0.00  0.00    +0.065 A 
ATOM     28  N   UNL     1       6.615  -2.297  -6.052  0.00  0.00    -0.176 NA
ATOM     29  C   UNL     1       5.221  -3.604  -4.426  0.00  0.00    +0.068 C 
ATOM     30  C   UNL     1       7.781   0.798  -4.413  0.00  0.00    +0.065 C 
BRANCH  24  32
ATOM     31  C   UNL     1       9.534  -1.052  -7.113  0.00  0.00    +0.029 C 
ATOM     32  C   UNL     1       8.090  -0.549  -7.187  0.00  0.00    +0.140 C 
ENDBRANCH  24  32
ENDBRANCH  23  26
ENDBRANCH  19  23
ENDBRANCH  18  20
ENDBRANCH   1  18
TORSDOF 6
