REMARK  Name = ZINC40399848
REMARK  8 active torsions:
REMARK  status: ('A' for Active; 'I' for Inactive)
REMARK    1  A    between atoms: C_1  and  C_2
REMARK    2  A    between atoms: C_2  and  C_3
REMARK    3  A    between atoms: C_2  and  C_4
REMARK    4  A    between atoms: C_4  and  C_5
REMARK    5  A    between atoms: N_9  and  C_28
REMARK    6  A    between atoms: N_14  and  S_17
REMARK    7  A    between atoms: S_17  and  C_20
REMARK    8  A    between atoms: C_28  and  C_29
REMARK                            x       y       z     vdW  Elec       q    Type
REMARK                         _______ _______ _______ _____ _____    ______ ____
ROOT
ATOM      1  C   UNL     1      -1.489  -2.008  -0.049  0.00  0.00    +0.019 C 
ATOM      2  C   UNL     1      -2.893  -2.573  -0.038  0.00  0.00    +0.201 C 
ATOM      3  O   UNL     1      -3.787  -2.235   0.710  0.00  0.00    -0.277 OA
ATOM      4  N   UNL     1      -2.983  -3.515  -0.999  0.00  0.00    -0.306 N 
ATOM      5  C   UNL     1      -1.693  -3.640  -1.684  0.00  0.00    +0.006 C 
ATOM      6  N   UNL     1      -0.924  -2.420  -1.357  0.00  0.00    +0.401 N 
ATOM      7  C   UNL     1      -0.943  -4.871  -1.177  0.00  0.00    +0.023 C 
ATOM      8  C   UNL     1      -1.765  -6.128  -1.483  0.00  0.00    +0.109 C 
ATOM      9  N   UNL     1      -2.078  -6.150  -2.918  0.00  0.00    -0.177 NA
ATOM     10  C   UNL     1      -2.733  -4.979  -3.517  0.00  0.00    +0.109 C 
ATOM     11  C   UNL     1      -1.903  -3.731  -3.194  0.00  0.00    +0.023 C 
ATOM     12  H   UNL     1      -1.078  -1.705  -2.052  0.00  0.00    -0.082 HD
ATOM     13  H   UNL     1       0.060  -2.628  -1.270  0.00  0.00    -0.082 HD
ENDROOT
BRANCH   9  14
ATOM     14  S   UNL     1      -1.700  -7.470  -3.844  0.00  0.00    +0.061 S 
ATOM     15  O   UNL     1      -1.591  -7.008  -5.183  0.00  0.00    -0.153 OA
ATOM     16  O   UNL     1      -0.637  -8.140  -3.180  0.00  0.00    -0.153 OA
BRANCH  14  17
ATOM     17  C   UNL     1      -3.088  -8.554  -3.796  0.00  0.00    +0.107 A 
ATOM     18  C   UNL     1      -3.176  -9.520  -2.811  0.00  0.00    +0.030 A 
ATOM     19  C   UNL     1      -4.264 -10.372  -2.772  0.00  0.00    +0.023 A 
ATOM     20  C   UNL     1      -5.266 -10.258  -3.720  0.00  0.00    +0.059 A 
ATOM     21  C   UNL     1      -5.177  -9.290  -4.707  0.00  0.00    +0.061 A 
ATOM     22  C   UNL     1      -4.090  -8.435  -4.740  0.00  0.00    +0.050 A 
ATOM     23 CL   UNL     1      -6.433  -9.147  -5.897  0.00  0.00    -0.082 Cl
ATOM     24 CL   UNL     1      -6.632 -11.328  -3.673  0.00  0.00    -0.082 Cl
ENDBRANCH  14  17
ENDBRANCH   9  14
BRANCH   1  25
ATOM     25  C   UNL     1      -1.528  -0.483   0.059  0.00  0.00    -0.004 C 
BRANCH  25  27
ATOM     26  C   UNL     1      -0.135   1.592   0.078  0.00  0.00    +0.007 C 
ATOM     27  C   UNL     1      -0.098   0.062   0.096  0.00  0.00    -0.018 C 
ATOM     28  C   UNL     1       0.596  -0.416   1.373  0.00  0.00    +0.007 C 
ENDBRANCH  25  27
ENDBRANCH   1  25
BRANCH   4  29
ATOM     29  C   UNL     1      -4.184  -4.294  -1.310  0.00  0.00    +0.180 C 
BRANCH  29  30
ATOM     30  C   UNL     1      -5.086  -3.488  -2.210  0.00  0.00    +0.122 A 
ATOM     31  C   UNL     1      -5.151  -3.586  -3.550  0.00  0.00    +0.046 A 
ATOM     32  C   UNL     1      -6.121  -2.653  -3.982  0.00  0.00    +0.041 A 
ATOM     33  C   UNL     1      -6.591  -2.041  -2.881  0.00  0.00    +0.195 A 
ATOM     34  O   UNL     1      -5.964  -2.555  -1.810  0.00  0.00    -0.466 OA
ENDBRANCH  29  30
ENDBRANCH   4  29
TORSDOF 6
