REMARK  Name = ZINC64868614
REMARK  5 active torsions:
REMARK  status: ('A' for Active; 'I' for Inactive)
REMARK    1  A    between atoms: C_1  and  C_2
REMARK    2  A    between atoms: C_4  and  N_8
REMARK    3  A    between atoms: C_9  and  C_11
REMARK    4  A    between atoms: C_11  and  N_12
REMARK    5  A    between atoms: C_20  and  C_24
REMARK                            x       y       z     vdW  Elec       q    Type
REMARK                         _______ _______ _______ _____ _____    ______ ____
ROOT
ATOM      1  N   UNL     1      -2.281  -6.274   1.955  0.00  0.00    -0.257 N 
ATOM      2  C   UNL     1      -1.274  -7.245   1.834  0.00  0.00    +0.058 A 
ATOM      3  C   UNL     1      -0.021  -6.719   2.102  0.00  0.00    +0.025 A 
ATOM      4  C   UNL     1       1.097  -7.530   2.032  0.00  0.00    +0.002 A 
ATOM      5  C   UNL     1       0.969  -8.865   1.696  0.00  0.00    +0.002 A 
ATOM      6  C   UNL     1      -0.280  -9.398   1.428  0.00  0.00    +0.025 A 
ATOM      7  C   UNL     1      -1.404  -8.591   1.496  0.00  0.00    +0.053 A 
ATOM      8  N   UNL     1      -2.574  -9.304   1.193  0.00  0.00    -0.312 N 
ATOM      9  C   UNL     1      -3.874  -8.835   1.160  0.00  0.00    +0.050 C 
ATOM     10  C   UNL     1      -4.335  -7.560   1.414  0.00  0.00    +0.092 C 
ATOM     11  C   UNL     1      -3.609  -6.414   1.777  0.00  0.00    +0.246 C 
ATOM     12  O   UNL     1      -4.272  -5.406   1.949  0.00  0.00    -0.270 OA
ATOM     13  H   UNL     1      -2.456 -10.243   0.980  0.00  0.00    +0.152 HD
ENDROOT
BRANCH   9  14
ATOM     14  C   UNL     1      -4.898  -9.822   0.807  0.00  0.00    +0.033 A 
ATOM     15  C   UNL     1      -6.270  -9.655   0.687  0.00  0.00    +0.017 A 
ATOM     16  C   UNL     1      -6.980 -10.780   0.338  0.00  0.00    +0.008 A 
ATOM     17  C   UNL     1      -6.314 -11.944   0.140  0.00  0.00    +0.046 A 
ATOM     18  S   UNL     1      -4.704 -11.550   0.412  0.00  0.00    -0.095 S 
ENDBRANCH   9  14
BRANCH   1  19
ATOM     19  C   UNL     1      -1.828  -4.931   2.329  0.00  0.00    +0.209 C 
BRANCH  19  21
ATOM     20  N   UNL     1      -0.877  -2.944   1.204  0.00  0.00    -0.288 N 
ATOM     21  C   UNL     1      -1.344  -4.204   1.101  0.00  0.00    +0.233 C 
ATOM     22  O   UNL     1      -1.373  -4.753   0.020  0.00  0.00    -0.274 OA
ATOM     23  H   UNL     1      -0.853  -2.505   2.069  0.00  0.00    +0.151 HD
BRANCH  20  27
ATOM     24  C   UNL     1       0.148   1.450  -0.001  0.00  0.00    +0.067 C 
ATOM     25  C   UNL     1       0.152  -0.057   0.012  0.00  0.00    +0.060 C 
ATOM     26  C   UNL     1      -0.945  -0.818  -0.021  0.00  0.00    +0.045 C 
ATOM     27  C   UNL     1      -0.406  -2.237   0.011  0.00  0.00    +0.239 C 
ATOM     28  N   UNL     1       1.052  -2.037   0.061  0.00  0.00    -0.160 NA
ATOM     29  N   UNL     1       1.265  -0.822   0.053  0.00  0.00    -0.157 NA
ENDBRANCH  20  27
ENDBRANCH  19  21
ENDBRANCH   1  19
TORSDOF 4
