REMARK  Name = ZINC36051491
REMARK  10 active torsions:
REMARK  status: ('A' for Active; 'I' for Inactive)
REMARK    1  A    between atoms: C_1  and  C_2
REMARK    2  A    between atoms: C_2  and  C_4
REMARK    3  A    between atoms: C_2  and  N_21
REMARK    4  A    between atoms: N_6  and  N_7
REMARK    5  A    between atoms: C_8  and  C_9
REMARK    6  A    between atoms: C_11  and  N_18
REMARK    7  A    between atoms: C_13  and  O_16
REMARK    8  A    between atoms: C_14  and  O_15
REMARK    9  A    between atoms: O_16  and  C_17
REMARK   10  A    between atoms: N_21  and  C_22
REMARK                            x       y       z     vdW  Elec       q    Type
REMARK                         _______ _______ _______ _____ _____    ______ ____
ROOT
ATOM      1  C   UNL     1       0.731  -0.503   1.223  0.00  0.00    +0.252 C 
ATOM      2  O   UNL     1       1.726  -1.187   1.098  0.00  0.00    -0.272 OA
ATOM      3  N   UNL     1       0.278  -0.191   2.453  0.00  0.00    -0.205 N 
ATOM      4  H   UNL     1      -0.517   0.356   2.553  0.00  0.00    +0.177 HD
ENDROOT
BRANCH   1   6
ATOM      5  C   UNL     1      -0.019   1.526   0.010  0.00  0.00    +0.038 C 
ATOM      6  C   UNL     1       0.002  -0.004   0.002  0.00  0.00    +0.155 C 
BRANCH   6   7
ATOM      7  N   UNL     1       0.688  -0.476  -1.203  0.00  0.00    -0.333 N 
ATOM      8  H   UNL     1       1.632  -0.695  -1.170  0.00  0.00    +0.147 HD
BRANCH   7   9
ATOM      9  C   UNL     1      -0.017  -0.613  -2.397  0.00  0.00    +0.035 A 
ATOM     10  C   UNL     1      -1.358  -0.299  -2.453  0.00  0.00    +0.023 A 
ATOM     11  C   UNL     1      -2.071  -0.431  -3.641  0.00  0.00    +0.002 A 
ATOM     12  C   UNL     1      -1.466  -0.872  -4.779  0.00  0.00    +0.008 A 
ATOM     13  C   UNL     1      -0.100  -1.203  -4.764  0.00  0.00    -0.016 A 
ATOM     14  C   UNL     1       0.637  -1.067  -3.562  0.00  0.00    +0.003 A 
ATOM     15  C   UNL     1       2.003  -1.393  -3.551  0.00  0.00    +0.010 A 
ATOM     16  C   UNL     1       2.601  -1.829  -4.694  0.00  0.00    +0.001 A 
ATOM     17  C   UNL     1       1.878  -1.957  -5.878  0.00  0.00    +0.001 A 
ATOM     18  C   UNL     1       0.550  -1.661  -5.923  0.00  0.00    +0.008 A 
ENDBRANCH   7   9
ENDBRANCH   6   7
ENDBRANCH   1   6
BRANCH   3  19
ATOM     19  N   UNL     1       0.955  -0.655   3.588  0.00  0.00    -0.188 NA
ATOM     20  C   UNL     1       0.519  -0.353   4.773  0.00  0.00    +0.142 C 
BRANCH  20  21
ATOM     21  C   UNL     1       1.232  -0.842   5.967  0.00  0.00    +0.042 A 
ATOM     22  C   UNL     1       0.762  -0.524   7.244  0.00  0.00    +0.046 A 
ATOM     23  C   UNL     1       1.431  -0.983   8.359  0.00  0.00    +0.130 A 
ATOM     24  C   UNL     1       2.570  -1.758   8.220  0.00  0.00    +0.082 A 
ATOM     25  C   UNL     1       3.048  -2.080   6.960  0.00  0.00    +0.164 A 
ATOM     26  C   UNL     1       2.380  -1.631   5.827  0.00  0.00    +0.167 A 
BRANCH  23  27
ATOM     27  N   UNL     1       0.930  -0.645   9.710  0.00  0.00    +0.057 N 
ATOM     28  O   UNL     1      -0.064   0.032   9.834  0.00  0.00    -0.126 OA
ATOM     29  O   UNL     1       1.515  -1.045  10.689  0.00  0.00    -0.126 OA
ENDBRANCH  23  27
BRANCH  26  30
ATOM     30  O   UNL     1       2.842  -1.950   4.590  0.00  0.00    -0.503 OA
ATOM     31  H   UNL     1       3.476  -1.315   4.231  0.00  0.00    +0.292 HD
ENDBRANCH  26  30
BRANCH  25  32
ATOM     32  O   UNL     1       4.167  -2.842   6.832  0.00  0.00    -0.491 OA
ATOM     33  C   UNL     1       4.799  -3.275   8.038  0.00  0.00    +0.277 C 
ENDBRANCH  25  32
ENDBRANCH  20  21
ENDBRANCH   3  19
TORSDOF 8
