REMARK  Name = ZINC50309745
REMARK  6 active torsions:
REMARK  status: ('A' for Active; 'I' for Inactive)
REMARK    1  A    between atoms: C_1  and  C_2
REMARK    2  A    between atoms: C_2  and  C_3
REMARK    3  A    between atoms: C_2  and  C_4
REMARK    4  A    between atoms: C_5  and  N_21
REMARK    5  A    between atoms: C_6  and  C_10
REMARK    6  A    between atoms: N_12  and  C_13
REMARK                            x       y       z     vdW  Elec       q    Type
REMARK                         _______ _______ _______ _____ _____    ______ ____
ROOT
ATOM      1  C   UNL     1      -1.401  -0.554   0.028  0.00  0.00    +0.060 A 
ATOM      2  C   UNL     1      -1.980  -1.339  -0.919  0.00  0.00    +0.078 A 
ATOM      3  C   UNL     1      -3.309  -1.552  -0.470  0.00  0.00    +0.168 A 
ATOM      4  N   UNL     1      -3.440  -0.908   0.674  0.00  0.00    -0.167 NA
ATOM      5  N   UNL     1      -2.339  -0.325   0.984  0.00  0.00    -0.279 N 
ATOM      6  H   UNL     1      -2.198   0.205   1.785  0.00  0.00    +0.189 HD
ENDROOT
BRANCH   3   7
ATOM      7  C   UNL     1      -4.348  -2.344  -1.154  0.00  0.00    +0.270 C 
ATOM      8  O   UNL     1      -4.098  -2.892  -2.211  0.00  0.00    -0.268 OA
ATOM      9  N   UNL     1      -5.575  -2.462  -0.608  0.00  0.00    -0.279 N 
ATOM     10  H   UNL     1      -5.755  -2.080   0.266  0.00  0.00    +0.155 HD
BRANCH   9  11
ATOM     11  C   UNL     1      -6.588  -3.134  -1.301  0.00  0.00    +0.052 A 
ATOM     12  C   UNL     1      -6.279  -4.230  -2.095  0.00  0.00    +0.026 A 
ATOM     13  C   UNL     1      -7.281  -4.892  -2.777  0.00  0.00    +0.022 A 
ATOM     14  C   UNL     1      -8.592  -4.463  -2.672  0.00  0.00    +0.042 A 
ATOM     15  C   UNL     1      -8.904  -3.370  -1.882  0.00  0.00    +0.041 A 
ATOM     16  C   UNL     1      -7.907  -2.708  -1.191  0.00  0.00    +0.064 A 
ATOM     17 CL   UNL     1      -8.299  -1.343  -0.194  0.00  0.00    -0.082 Cl
ATOM     18 CL   UNL     1      -9.848  -5.297  -3.532  0.00  0.00    -0.083 Cl
ENDBRANCH   9  11
ENDBRANCH   3   7
BRANCH   1  20
ATOM     19  C   UNL     1       0.005   1.488   0.037  0.00  0.00    +0.014 C 
ATOM     20  C   UNL     1       0.016  -0.041   0.022  0.00  0.00    +0.033 C 
ATOM     21  C   UNL     1       0.751  -0.558   1.261  0.00  0.00    +0.014 C 
ENDBRANCH   1  20
BRANCH   2  22
ATOM     22  N   UNL     1      -1.390  -1.832  -2.092  0.00  0.00    -0.355 N 
ATOM     23  H   UNL     1      -0.466  -1.618  -2.296  0.00  0.00    +0.142 HD
ATOM     24  H   UNL     1      -1.905  -2.386  -2.698  0.00  0.00    +0.142 HD
ENDBRANCH   2  22
TORSDOF 4
