REMARK  Name = ZINC39467570
REMARK  7 active torsions:
REMARK  status: ('A' for Active; 'I' for Inactive)
REMARK    1  A    between atoms: C_1  and  O_2
REMARK    2  A    between atoms: O_2  and  C_3
REMARK    3  A    between atoms: C_15  and  S_16
REMARK    4  A    between atoms: S_16  and  O_19
REMARK    5  A    between atoms: O_19  and  C_20
REMARK    6  A    between atoms: P_28  and  C_31
REMARK    7  A    between atoms: C_36  and  O_37
REMARK                            x       y       z     vdW  Elec       q    Type
REMARK                         _______ _______ _______ _____ _____    ______ ____
ROOT
ATOM      1  C   UNL     1       0.367  -0.604  -1.046  0.00  0.00    +0.144 C 
ATOM      2  C   UNL     1       0.985   0.130  -1.980  0.00  0.00    +0.023 C 
ATOM      3  C   UNL     1       1.777  -0.578  -3.046  0.00  0.00    +0.008 C 
ATOM      4  C   UNL     1       2.832   0.333  -3.661  0.00  0.00    -0.046 C 
ATOM      5  N   UNL     1       3.553  -0.387  -4.726  0.00  0.00    +0.398 N 
ATOM      6  C   UNL     1       4.224  -1.578  -4.207  0.00  0.00    -0.020 C 
ATOM      7  C   UNL     1       3.225  -2.525  -3.526  0.00  0.00    -0.003 C 
ATOM      8  C   UNL     1       2.497  -1.776  -2.414  0.00  0.00    +0.018 C 
ATOM      9  C   UNL     1       1.480  -2.651  -1.734  0.00  0.00    +0.011 C 
ATOM     10  C   UNL     1       0.470  -2.076  -1.087  0.00  0.00    +0.166 C 
ATOM     11  C   UNL     1       4.890  -2.382  -5.331  0.00  0.00    +0.157 C 
ATOM     12  O   UNL     1       5.898  -1.572  -5.963  0.00  0.00    -0.316 OA
ATOM     13  P   UNL     1       5.477  -0.074  -6.439  0.00  0.00    +0.291 P 
ATOM     14  O   UNL     1       4.764  -0.129  -7.734  0.00  0.00    -0.269 OA
ATOM     15  N   UNL     1       4.475   0.501  -5.237  0.00  0.00    -0.288 NA
ATOM     16  H   UNL     1       4.522   1.416  -4.920  0.00  0.00    +0.111 HD
ATOM     17  H   UNL     1       2.904  -0.653  -5.451  0.00  0.00    -0.055 HD
ENDROOT
BRANCH  13  18
ATOM     18  C   UNL     1       6.948   0.978  -6.577  0.00  0.00    +0.091 A 
ATOM     19  C   UNL     1       7.385   1.702  -5.484  0.00  0.00    +0.018 A 
ATOM     20  C   UNL     1       8.506   2.505  -5.588  0.00  0.00    +0.001 A 
ATOM     21  C   UNL     1       9.193   2.585  -6.786  0.00  0.00    +0.004 A 
ATOM     22  C   UNL     1       8.761   1.863  -7.881  0.00  0.00    +0.046 A 
ATOM     23  C   UNL     1       7.639   1.052  -7.777  0.00  0.00    +0.131 A 
BRANCH  23  24
ATOM     24  O   UNL     1       7.215   0.336  -8.852  0.00  0.00    -0.506 OA
ATOM     25  H   UNL     1       6.584   0.807  -9.413  0.00  0.00    +0.292 HD
ENDBRANCH  23  24
ENDBRANCH  13  18
BRANCH  10  26
ATOM     26  S   UNL     1      -0.743  -3.070  -0.285  0.00  0.00    +0.154 S 
ATOM     27  O   UNL     1      -0.338  -4.422  -0.455  0.00  0.00    -0.131 OA
ATOM     28  O   UNL     1      -0.958  -2.495   0.996  0.00  0.00    -0.131 OA
BRANCH  26  29
ATOM     29  O   UNL     1      -2.043  -2.905  -1.060  0.00  0.00    -0.342 OA
BRANCH  29  30
ATOM     30  C   UNL     1      -2.070  -3.574  -2.243  0.00  0.00    +0.157 A 
ATOM     31  C   UNL     1      -1.588  -2.968  -3.394  0.00  0.00    +0.048 A 
ATOM     32  C   UNL     1      -1.616  -3.650  -4.595  0.00  0.00    +0.004 A 
ATOM     33  C   UNL     1      -2.125  -4.934  -4.651  0.00  0.00    +0.000 A 
ATOM     34  C   UNL     1      -2.606  -5.540  -3.505  0.00  0.00    +0.004 A 
ATOM     35  C   UNL     1      -2.575  -4.865  -2.300  0.00  0.00    +0.048 A 
ENDBRANCH  29  30
ENDBRANCH  26  29
ENDBRANCH  10  26
BRANCH   1  37
ATOM     36  C   UNL     1      -0.491   1.423  -0.147  0.00  0.00    +0.277 C 
ATOM     37  O   UNL     1      -0.347   0.004  -0.062  0.00  0.00    -0.493 OA
ENDBRANCH   1  37
TORSDOF 6
