REMARK  Name = ZINC66002214
REMARK  7 active torsions:
REMARK  status: ('A' for Active; 'I' for Inactive)
REMARK    1  A    between atoms: C_3  and  C_20
REMARK    2  A    between atoms: C_6  and  C_7
REMARK    3  A    between atoms: C_7  and  N_8
REMARK    4  A    between atoms: N_8  and  S_9
REMARK    5  A    between atoms: S_9  and  C_12
REMARK    6  A    between atoms: C_15  and  N_17
REMARK    7  A    between atoms: N_22  and  C_23
REMARK                            x       y       z     vdW  Elec       q    Type
REMARK                         _______ _______ _______ _____ _____    ______ ____
ROOT
ATOM      1  C   UNL     1      -1.295  -0.772   0.010  0.00  0.00    +0.141 C 
ENDROOT
BRANCH   1   7
ATOM      2  C   UNL     1      -0.017   1.379   0.010  0.00  0.00    +0.006 A 
ATOM      3  C   UNL     1       1.167   2.088   0.002  0.00  0.00    +0.013 A 
ATOM      4  C   UNL     1       2.385   1.407  -0.013  0.00  0.00    +0.037 A 
ATOM      5  C   UNL     1       2.397   0.011  -0.021  0.00  0.00    +0.013 A 
ATOM      6  C   UNL     1       1.206  -0.686  -0.013  0.00  0.00    +0.006 A 
ATOM      7  C   UNL     1       0.002  -0.004   0.002  0.00  0.00    -0.032 A 
BRANCH   4   8
ATOM      8  C   UNL     1       3.657   2.160  -0.022  0.00  0.00    +0.244 C 
ATOM      9  O   UNL     1       3.643   3.376  -0.015  0.00  0.00    -0.270 OA
ATOM     10  N   UNL     1       4.831   1.499  -0.037  0.00  0.00    -0.308 N 
ATOM     11  H   UNL     1       4.842   0.529  -0.042  0.00  0.00    +0.149 HD
BRANCH  10  12
ATOM     12  C   UNL     1       6.092   2.246  -0.045  0.00  0.00    +0.073 C 
ATOM     13  C   UNL     1       7.191   1.765  -0.995  0.00  0.00    +0.024 C 
ATOM     14  C   UNL     1       7.332   1.545   0.513  0.00  0.00    +0.024 C 
ENDBRANCH  10  12
ENDBRANCH   4   8
ENDBRANCH   1   7
BRANCH   1  15
ATOM     15  N   UNL     1      -1.728  -1.013  -1.368  0.00  0.00    -0.185 NA
ATOM     16  H   UNL     1      -1.327  -0.515  -2.097  0.00  0.00    +0.148 HD
BRANCH  15  17
ATOM     17  S   UNL     1      -2.903  -2.137  -1.682  0.00  0.00    +0.065 S 
ATOM     18  O   UNL     1      -3.118  -2.119  -3.087  0.00  0.00    -0.153 OA
ATOM     19  O   UNL     1      -2.533  -3.318  -0.983  0.00  0.00    -0.153 OA
BRANCH  17  20
ATOM     20  C   UNL     1      -4.391  -1.556  -0.938  0.00  0.00    +0.145 A 
ATOM     21  C   UNL     1      -5.362  -0.773  -1.469  0.00  0.00    +0.038 A 
ATOM     22  C   UNL     1      -6.454  -0.439  -0.690  0.00  0.00    +0.042 A 
ATOM     23  C   UNL     1      -6.522  -0.905   0.581  0.00  0.00    +0.165 A 
ATOM     24  S   UNL     1      -5.015  -1.854   0.708  0.00  0.00    -0.045 S 
BRANCH  23  25
ATOM     25  N   UNL     1      -7.576  -0.688   1.598  0.00  0.00    +0.063 N 
ATOM     26  O   UNL     1      -8.543  -0.012   1.332  0.00  0.00    -0.126 OA
ATOM     27  O   UNL     1      -7.470  -1.187   2.694  0.00  0.00    -0.126 OA
ENDBRANCH  23  25
ENDBRANCH  17  20
ENDBRANCH  15  17
ENDBRANCH   1  15
TORSDOF 7
