REMARK  Name = ZINC15620945
REMARK  9 active torsions:
REMARK  status: ('A' for Active; 'I' for Inactive)
REMARK    1  A    between atoms: C_1  and  C_2
REMARK    2  A    between atoms: C_4  and  C_26
REMARK    3  A    between atoms: C_5  and  N_9
REMARK    4  A    between atoms: C_6  and  C_8
REMARK    5  A    between atoms: C_10  and  C_12
REMARK    6  A    between atoms: C_12  and  N_13
REMARK    7  A    between atoms: C_14  and  C_16
REMARK    8  A    between atoms: C_19  and  N_23
REMARK    9  A    between atoms: C_20  and  C_22
REMARK                            x       y       z     vdW  Elec       q    Type
REMARK                         _______ _______ _______ _____ _____    ______ ____
ROOT
ATOM      1  C   UNL     1      -4.786   4.507  -0.115  0.00  0.00    +0.200 C 
ENDROOT
BRANCH   1   3
ATOM      2  N   UNL     1      -2.446   3.977   0.487  0.00  0.00    -0.284 N 
ATOM      3  C   UNL     1      -3.618   3.559  -0.031  0.00  0.00    +0.234 C 
ATOM      4  O   UNL     1      -3.732   2.419  -0.429  0.00  0.00    -0.274 OA
ATOM      5  H   UNL     1      -2.372   4.869   0.861  0.00  0.00    +0.155 HD
BRANCH   2  10
ATOM      6  C   UNL     1       2.052   0.520   0.483  0.00  0.00    +0.044 C 
ATOM      7  C   UNL     1       0.857   1.438   0.484  0.00  0.00    -0.050 A 
ATOM      8  C   UNL     1       0.180   1.690  -0.695  0.00  0.00    +0.008 A 
ATOM      9  C   UNL     1      -0.913   2.535  -0.698  0.00  0.00    -0.029 A 
ATOM     10  C   UNL     1      -1.336   3.124   0.486  0.00  0.00    +0.039 A 
ATOM     11  C   UNL     1      -0.654   2.869   1.668  0.00  0.00    -0.029 A 
ATOM     12  C   UNL     1       0.441   2.026   1.664  0.00  0.00    +0.008 A 
ATOM     13  C   UNL     1      -1.107   3.510   2.955  0.00  0.00    +0.045 C 
ATOM     14  C   UNL     1      -1.647   2.814  -1.984  0.00  0.00    +0.045 C 
ENDBRANCH   2  10
ENDBRANCH   1   3
BRANCH   1  15
ATOM     15  N   UNL     1      -5.933   3.818  -0.710  0.00  0.00    -0.303 N 
ATOM     16  C   UNL     1      -7.097   4.474  -0.885  0.00  0.00    +0.244 C 
ATOM     17  O   UNL     1      -7.195   5.638  -0.549  0.00  0.00    -0.270 OA
ATOM     18  H   UNL     1      -5.854   2.889  -0.979  0.00  0.00    +0.150 HD
BRANCH  16  19
ATOM     19  C   UNL     1      -8.255   3.778  -1.487  0.00  0.00    +0.037 A 
ATOM     20  C   UNL     1      -8.143   2.443  -1.880  0.00  0.00    +0.015 A 
ATOM     21  C   UNL     1      -9.229   1.798  -2.436  0.00  0.00    +0.034 A 
ATOM     22  C   UNL     1     -10.422   2.475  -2.614  0.00  0.00    +0.129 A 
ATOM     23  C   UNL     1     -10.538   3.800  -2.232  0.00  0.00    -0.020 A 
ATOM     24  C   UNL     1      -9.461   4.455  -1.670  0.00  0.00    +0.018 A 
ATOM     25  C   UNL     1     -11.842   4.529  -2.429  0.00  0.00    +0.046 C 
BRANCH  22  26
ATOM     26  N   UNL     1     -11.581   1.779  -3.216  0.00  0.00    +0.057 N 
ATOM     27  O   UNL     1     -11.806   0.615  -2.934  0.00  0.00    -0.126 OA
ATOM     28  O   UNL     1     -12.310   2.369  -3.994  0.00  0.00    -0.126 OA
ENDBRANCH  22  26
ENDBRANCH  16  19
ENDBRANCH   1  15
TORSDOF 5
