REMARK  Name = ZINC36548237
REMARK  8 active torsions:
REMARK  status: ('A' for Active; 'I' for Inactive)
REMARK    1  A    between atoms: C_4  and  C_7
REMARK    2  A    between atoms: N_9  and  C_10
REMARK    3  A    between atoms: C_10  and  C_11
REMARK    4  A    between atoms: N_13  and  C_14
REMARK    5  A    between atoms: N_13  and  C_21
REMARK    6  A    between atoms: C_21  and  C_23
REMARK    7  A    between atoms: C_21  and  C_28
REMARK    8  A    between atoms: N_30  and  C_31
REMARK                            x       y       z     vdW  Elec       q    Type
REMARK                         _______ _______ _______ _____ _____    ______ ____
ROOT
ATOM      1  C   UNL     1       3.874  -4.971  -0.502  0.00  0.00    +0.238 C 
ATOM      2  O   UNL     1       3.064  -5.840  -0.257  0.00  0.00    -0.273 OA
ATOM      3  N   UNL     1       5.193  -5.233  -0.411  0.00  0.00    -0.250 N 
ENDROOT
BRANCH   3   4
ATOM      4  C   UNL     1       6.127  -4.230  -0.694  0.00  0.00    +0.056 A 
ATOM      5  C   UNL     1       6.664  -4.120  -1.970  0.00  0.00    +0.025 A 
ATOM      6  C   UNL     1       7.586  -3.129  -2.246  0.00  0.00    +0.002 A 
ATOM      7  C   UNL     1       7.975  -2.247  -1.254  0.00  0.00    +0.002 A 
ATOM      8  C   UNL     1       7.442  -2.354   0.017  0.00  0.00    +0.022 A 
ATOM      9  C   UNL     1       6.516  -3.340   0.299  0.00  0.00    +0.062 A 
ATOM     10 CL   UNL     1       5.842  -3.469   1.894  0.00  0.00    -0.082 Cl
ENDBRANCH   3   4
BRANCH   1  11
ATOM     11  C   UNL     1       3.405  -3.598  -0.910  0.00  0.00    +0.201 C 
BRANCH  11  14
ATOM     12  C   UNL     1       1.295  -2.435  -1.273  0.00  0.00    +0.244 C 
ATOM     13  O   UNL     1       1.928  -1.437  -1.559  0.00  0.00    -0.270 OA
ATOM     14  N   UNL     1       1.941  -3.568  -0.934  0.00  0.00    -0.303 N 
ATOM     15  H   UNL     1       1.436  -4.365  -0.707  0.00  0.00    +0.150 HD
BRANCH  12  19
ATOM     16  C   UNL     1      -2.951  -2.352  -1.346  0.00  0.00    +0.000 A 
ATOM     17  C   UNL     1      -2.234  -1.214  -1.671  0.00  0.00    +0.001 A 
ATOM     18  C   UNL     1      -0.855  -1.234  -1.649  0.00  0.00    +0.013 A 
ATOM     19  C   UNL     1      -0.183  -2.406  -1.298  0.00  0.00    +0.037 A 
ATOM     20  C   UNL     1      -0.912  -3.550  -0.972  0.00  0.00    +0.013 A 
ATOM     21  C   UNL     1      -2.291  -3.517  -0.998  0.00  0.00    +0.001 A 
ENDBRANCH  12  19
ENDBRANCH  11  14
ENDBRANCH   1  11
BRANCH   3  22
ATOM     22  C   UNL     1       5.648  -6.568  -0.015  0.00  0.00    +0.233 C 
BRANCH  22  23
ATOM     23  C   UNL     1       6.599  -6.450   1.149  0.00  0.00    +0.135 A 
ATOM     24  C   UNL     1       6.648  -7.274   2.211  0.00  0.00    +0.047 A 
ATOM     25  C   UNL     1       7.679  -6.797   3.052  0.00  0.00    +0.041 A 
ATOM     26  C   UNL     1       8.198  -5.709   2.454  0.00  0.00    +0.195 A 
ATOM     27  O   UNL     1       7.543  -5.507   1.299  0.00  0.00    -0.465 OA
ENDBRANCH  22  23
BRANCH  22  28
ATOM     28  C   UNL     1       6.353  -7.223  -1.175  0.00  0.00    +0.242 C 
ATOM     29  O   UNL     1       7.004  -6.551  -1.946  0.00  0.00    -0.273 OA
ATOM     30  N   UNL     1       6.260  -8.555  -1.355  0.00  0.00    -0.311 N 
ATOM     31  H   UNL     1       5.740  -9.093  -0.737  0.00  0.00    +0.149 HD
BRANCH  30  32
ATOM     32  C   UNL     1       6.945  -9.192  -2.482  0.00  0.00    +0.073 C 
ATOM     33  C   UNL     1       6.061  -9.110  -3.728  0.00  0.00    +0.022 C 
ATOM     34  C   UNL     1       6.777  -9.775  -4.906  0.00  0.00    +0.002 C 
ATOM     35  C   UNL     1       7.053 -11.242  -4.572  0.00  0.00    +0.000 C 
ATOM     36  C   UNL     1       7.937 -11.324  -3.326  0.00  0.00    +0.002 C 
ATOM     37  C   UNL     1       7.222 -10.659  -2.148  0.00  0.00    +0.022 C 
ENDBRANCH  30  32
ENDBRANCH  22  28
ENDBRANCH   3  22
TORSDOF 8
