REMARK  Name = ZINC22504897
REMARK  4 active torsions:
REMARK  status: ('A' for Active; 'I' for Inactive)
REMARK    1  A    between atoms: C_4  and  C_7
REMARK    2  A    between atoms: C_7  and  C_8
REMARK    3  A    between atoms: C_14  and  C_16
REMARK    4  A    between atoms: C_18  and  C_22
REMARK                            x       y       z     vdW  Elec       q    Type
REMARK                         _______ _______ _______ _____ _____    ______ ____
ROOT
ATOM      1  C   UNL     1       0.002  -0.004   0.002  0.00  0.00    +0.160 A 
ATOM      2  N   UNL     1      -0.016   1.299   0.009  0.00  0.00    -0.131 NA
ATOM      3  N   UNL     1       1.188   1.757   0.000  0.00  0.00    -0.120 NA
ATOM      4  C   UNL     1       2.026   0.765  -0.013  0.00  0.00    +0.218 A 
ATOM      5  N   UNL     1       1.320  -0.413  -0.013  0.00  0.00    -0.190 N 
ATOM      6  N   UNL     1       2.066  -1.584  -0.026  0.00  0.00    -0.154 NA
ATOM      7  C   UNL     1       3.376  -1.552  -0.038  0.00  0.00    +0.150 A 
ATOM      8  S   UNL     1       3.710   0.203  -0.032  0.00  0.00    -0.025 S 
ENDROOT
BRANCH   7   9
ATOM      9  C   UNL     1       4.330  -2.677  -0.053  0.00  0.00    +0.093 A 
ATOM     10  C   UNL     1       5.693  -2.580  -0.071  0.00  0.00    +0.060 A 
ATOM     11  C   UNL     1       6.215  -3.884  -0.077  0.00  0.00    +0.093 A 
ATOM     12  N   UNL     1       5.209  -4.733  -0.072  0.00  0.00    -0.173 NA
ATOM     13  N   UNL     1       4.013  -4.005  -0.057  0.00  0.00    -0.274 N 
ATOM     14  H   UNL     1       2.959  -4.318  -0.049  0.00  0.00    +0.189 HD
BRANCH  11  15
ATOM     15  C   UNL     1       7.655  -4.242  -0.092  0.00  0.00    +0.002 A 
ATOM     16  C   UNL     1       8.625  -3.242  -0.102  0.00  0.00    +0.010 A 
ATOM     17  C   UNL     1       9.963  -3.581  -0.112  0.00  0.00    +0.001 A 
ATOM     18  C   UNL     1      10.341  -4.911  -0.122  0.00  0.00    +0.000 A 
ATOM     19  C   UNL     1       9.383  -5.909  -0.117  0.00  0.00    +0.001 A 
ATOM     20  C   UNL     1       8.042  -5.581  -0.103  0.00  0.00    +0.010 A 
ENDBRANCH  11  15
ENDBRANCH   7   9
BRANCH   1  21
ATOM     21  C   UNL     1      -1.205  -0.906   0.009  0.00  0.00    +0.113 C 
BRANCH  21  25
ATOM     22  C   UNL     1      -2.385  -1.739  -4.011  0.00  0.00    +0.000 A 
ATOM     23  C   UNL     1      -1.477  -2.563  -3.372  0.00  0.00    +0.000 A 
ATOM     24  C   UNL     1      -1.095  -2.293  -2.071  0.00  0.00    +0.004 A 
ATOM     25  C   UNL     1      -1.621  -1.200  -1.409  0.00  0.00    -0.040 A 
ATOM     26  C   UNL     1      -2.533  -0.379  -2.046  0.00  0.00    +0.004 A 
ATOM     27  C   UNL     1      -2.911  -0.645  -3.349  0.00  0.00    +0.000 A 
ENDBRANCH  21  25
ENDBRANCH   1  21
TORSDOF 4
