REMARK  Name = ZINC40156459
REMARK  5 active torsions:
REMARK  status: ('A' for Active; 'I' for Inactive)
REMARK    1  A    between atoms: C_3  and  N_16
REMARK    2  A    between atoms: C_6  and  C_7
REMARK    3  A    between atoms: C_17  and  C_19
REMARK    4  A    between atoms: C_19  and  C_20
REMARK    5  A    between atoms: C_27  and  C_32
REMARK                            x       y       z     vdW  Elec       q    Type
REMARK                         _______ _______ _______ _____ _____    ______ ____
ROOT
ATOM      1  N   UNL     1       3.583   2.133  -0.021  0.00  0.00    -0.285 N 
ATOM      2  C   UNL     1       4.657   1.654   0.636  0.00  0.00    +0.219 C 
ATOM      3  O   UNL     1       4.612   0.559   1.157  0.00  0.00    -0.275 OA
ATOM      4  H   UNL     1       3.640   2.978  -0.494  0.00  0.00    +0.155 HD
ENDROOT
BRANCH   1   7
ATOM      5  C   UNL     1      -0.014   1.377  -0.001  0.00  0.00    +0.012 A 
ATOM      6  C   UNL     1       1.169   2.086  -0.002  0.00  0.00    +0.024 A 
ATOM      7  C   UNL     1       2.384   1.412  -0.020  0.00  0.00    +0.033 A 
ATOM      8  C   UNL     1       2.409   0.023  -0.038  0.00  0.00    +0.024 A 
ATOM      9  C   UNL     1       1.229  -0.690  -0.037  0.00  0.00    +0.012 A 
ATOM     10  C   UNL     1       0.009  -0.016  -0.018  0.00  0.00    -0.000 A 
BRANCH  10  11
ATOM     11  C   UNL     1      -1.262  -0.781  -0.017  0.00  0.00    +0.064 A 
ATOM     12  C   UNL     1      -2.516  -0.253  -0.006  0.00  0.00    +0.113 A 
ATOM     13  N   UNL     1      -3.381  -1.305  -0.009  0.00  0.00    -0.335 N 
ATOM     14  C   UNL     1      -2.643  -2.442  -0.022  0.00  0.00    +0.087 A 
ATOM     15  N   UNL     1      -1.382  -2.125  -0.033  0.00  0.00    -0.343 N 
ATOM     16  C   UNL     1      -3.236  -3.831  -0.027  0.00  0.00    +0.072 C 
ATOM     17  C   UNL     1      -4.710  -3.726   0.383  0.00  0.00    +0.009 C 
ATOM     18  C   UNL     1      -5.385  -2.624  -0.439  0.00  0.00    +0.022 C 
ATOM     19  C   UNL     1      -4.845  -1.258  -0.003  0.00  0.00    +0.123 C 
ATOM     20  H   UNL     1      -0.645  -2.755  -0.048  0.00  0.00    +0.167 HD
ENDBRANCH  10  11
ENDBRANCH   1   7
BRANCH   2  21
ATOM     21  C   UNL     1       5.916   2.478   0.723  0.00  0.00    +0.120 C 
BRANCH  21  22
ATOM     22  C   UNL     1       6.975   1.709   1.516  0.00  0.00    +0.146 C 
ATOM     23  C   UNL     1       8.195   2.573   1.702  0.00  0.00    +0.231 C 
ATOM     24  O   UNL     1       8.329   3.164   2.753  0.00  0.00    -0.274 OA
ATOM     25  N   UNL     1       9.132   2.720   0.770  0.00  0.00    -0.284 N 
ATOM     26  C   UNL     1       9.213   2.039  -0.441  0.00  0.00    +0.047 A 
ATOM     27  C   UNL     1      10.036   2.538  -1.446  0.00  0.00    +0.036 A 
ATOM     28  C   UNL     1      10.127   1.885  -2.659  0.00  0.00    +0.057 A 
ATOM     29  C   UNL     1       9.400   0.732  -2.891  0.00  0.00    +0.013 A 
ATOM     30  C   UNL     1       8.580   0.223  -1.900  0.00  0.00    +0.017 A 
ATOM     31  C   UNL     1       8.490   0.871  -0.679  0.00  0.00    +0.030 A 
ATOM     32  S   UNL     1       7.457   0.212   0.601  0.00  0.00    -0.110 S 
ATOM     33  H   UNL     1       9.830   3.368   0.954  0.00  0.00    +0.155 HD
BRANCH  28  34
ATOM     34  C   UNL     1      11.023   2.435  -3.739  0.00  0.00    +0.417 C 
ATOM     35  F   UNL     1      12.302   1.882  -3.610  0.00  0.00    -0.166 F 
ATOM     36  F   UNL     1      10.497   2.106  -4.993  0.00  0.00    -0.166 F 
ATOM     37  F   UNL     1      11.102   3.826  -3.616  0.00  0.00    -0.166 F 
ENDBRANCH  28  34
ENDBRANCH  21  22
ENDBRANCH   2  21
TORSDOF 5
