REMARK  Name = ZINC36066299
REMARK  14 active torsions:
REMARK  status: ('A' for Active; 'I' for Inactive)
REMARK    1  A    between atoms: C_1  and  C_2
REMARK    2  A    between atoms: C_2  and  C_3
REMARK    3  A    between atoms: C_3  and  C_4
REMARK    4  A    between atoms: C_4  and  N_5
REMARK    5  A    between atoms: N_5  and  C_6
REMARK    6  A    between atoms: N_5  and  C_7
REMARK    7  A    between atoms: C_7  and  C_8
REMARK    8  A    between atoms: C_8  and  N_9
REMARK    9  A    between atoms: C_10  and  C_35
REMARK   10  A    between atoms: C_18  and  C_24
REMARK   11  A    between atoms: N_26  and  C_27
REMARK   12  A    between atoms: C_30  and  O_33
REMARK   13  A    between atoms: O_33  and  C_34
REMARK   14  A    between atoms: N_37  and  C_38
REMARK                            x       y       z     vdW  Elec       q    Type
REMARK                         _______ _______ _______ _____ _____    ______ ____
ROOT
ATOM      1  N   UNL     1       1.831  -5.982   4.513  0.00  0.00    -0.288 N 
ATOM      2  C   UNL     1       0.724  -6.864   5.000  0.00  0.00    +0.198 C 
ATOM      3  C   UNL     1       1.421  -8.180   5.149  0.00  0.00    +0.127 C 
ATOM      4  C   UNL     1       2.381  -8.209   6.324  0.00  0.00    +0.009 C 
ATOM      5  C   UNL     1       2.906  -9.426   6.329  0.00  0.00    +0.004 C 
ATOM      6  C   UNL     1       2.302 -10.124   5.104  0.00  0.00    +0.155 C 
ATOM      7  O   UNL     1       0.950  -9.504   5.053  0.00  0.00    -0.358 OA
ATOM      8  C   UNL     1       3.058  -9.418   3.913  0.00  0.00    +0.123 C 
ATOM      9  C   UNL     1       2.261  -8.118   3.811  0.00  0.00    +0.128 C 
ATOM     10  C   UNL     1       2.791  -6.745   3.894  0.00  0.00    +0.223 C 
ATOM     11  O   UNL     1       3.870  -6.363   3.493  0.00  0.00    -0.275 OA
ENDROOT
BRANCH   8  12
ATOM     12  C   UNL     1       4.502  -9.165   4.263  0.00  0.00    +0.224 C 
ATOM     13  O   UNL     1       4.927  -8.029   4.296  0.00  0.00    -0.275 OA
ATOM     14  N   UNL     1       5.320 -10.199   4.538  0.00  0.00    -0.285 N 
ATOM     15  H   UNL     1       4.964 -11.100   4.586  0.00  0.00    +0.155 HD
BRANCH  14  16
ATOM     16  C   UNL     1       6.686  -9.974   4.754  0.00  0.00    +0.034 A 
ATOM     17  C   UNL     1       7.388 -10.770   5.649  0.00  0.00    +0.027 A 
ATOM     18  C   UNL     1       8.734 -10.547   5.862  0.00  0.00    +0.047 A 
ATOM     19  C   UNL     1       9.385  -9.528   5.181  0.00  0.00    +0.120 A 
ATOM     20  C   UNL     1       8.684  -8.732   4.287  0.00  0.00    +0.047 A 
ATOM     21  C   UNL     1       7.339  -8.958   4.069  0.00  0.00    +0.027 A 
BRANCH  19  22
ATOM     22  O   UNL     1      10.710  -9.309   5.391  0.00  0.00    -0.495 OA
ATOM     23  C   UNL     1      11.316  -8.243   4.657  0.00  0.00    +0.277 C 
ENDBRANCH  19  22
ENDBRANCH  14  16
ENDBRANCH   8  12
BRANCH   2  24
ATOM     24  C   UNL     1       0.194  -6.381   6.326  0.00  0.00    +0.237 C 
ATOM     25  O   UNL     1       0.858  -5.628   7.006  0.00  0.00    -0.274 OA
ATOM     26  N   UNL     1      -1.018  -6.786   6.755  0.00  0.00    -0.311 N 
ATOM     27  H   UNL     1      -1.549  -7.388   6.211  0.00  0.00    +0.149 HD
BRANCH  26  28
ATOM     28  C   UNL     1      -1.533  -6.316   8.044  0.00  0.00    +0.073 C 
ATOM     29  C   UNL     1      -0.999  -7.213   9.163  0.00  0.00    +0.022 C 
ATOM     30  C   UNL     1      -1.537  -6.722  10.509  0.00  0.00    +0.002 C 
ATOM     31  C   UNL     1      -3.066  -6.776  10.497  0.00  0.00    +0.000 C 
ATOM     32  C   UNL     1      -3.599  -5.880   9.378  0.00  0.00    +0.002 C 
ATOM     33  C   UNL     1      -3.062  -6.370   8.032  0.00  0.00    +0.022 C 
ENDBRANCH  26  28
ENDBRANCH   2  24
BRANCH   1  34
ATOM     34  C   UNL     1       1.880  -4.526   4.668  0.00  0.00    +0.090 C 
BRANCH  34  35
ATOM     35  C   UNL     1       1.211  -3.862   3.463  0.00  0.00    -0.060 C 
BRANCH  35  36
ATOM     36  N   UNL     1       1.260  -2.402   3.618  0.00  0.00    +0.379 N 
ATOM     37  C   UNL     1       2.658  -1.953   3.582  0.00  0.00    -0.096 C 
ATOM     38  H   UNL     1       0.846  -2.143   4.501  0.00  0.00    -0.082 HD
BRANCH  36  39
ATOM     39  C   UNL     1       0.514  -1.768   2.523  0.00  0.00    -0.079 C 
BRANCH  39  40
ATOM     40  C   UNL     1       0.459  -0.256   2.752  0.00  0.00    -0.019 C 
BRANCH  40  42
ATOM     41  C   UNL     1      -0.372   1.917   1.840  0.00  0.00    +0.004 C 
ATOM     42  C   UNL     1      -0.318   0.405   1.611  0.00  0.00    -0.005 C 
ENDBRANCH  40  42
ENDBRANCH  39  40
ENDBRANCH  36  39
ENDBRANCH  35  36
ENDBRANCH  34  35
ENDBRANCH   1  34
TORSDOF 11
