REMARK  Name = ZINC56273954
REMARK  7 active torsions:
REMARK  status: ('A' for Active; 'I' for Inactive)
REMARK    1  A    between atoms: C_3  and  N_28
REMARK    2  A    between atoms: C_4  and  N_25
REMARK    3  A    between atoms: C_6  and  C_7
REMARK    4  A    between atoms: N_9  and  C_10
REMARK    5  A    between atoms: C_15  and  O_16
REMARK    6  A    between atoms: O_16  and  C_17
REMARK    7  A    between atoms: C_17  and  C_18
REMARK                            x       y       z     vdW  Elec       q    Type
REMARK                         _______ _______ _______ _____ _____    ______ ____
ROOT
ATOM      1  C   UNL     1      -1.112  -0.367  -0.464  0.00  0.00    +0.248 C 
ATOM      2  O   UNL     1      -1.117  -1.456  -1.004  0.00  0.00    -0.270 OA
ATOM      3  N   UNL     1      -2.236   0.108   0.108  0.00  0.00    -0.279 N 
ATOM      4  H   UNL     1      -2.256   1.009   0.465  0.00  0.00    +0.155 HD
ENDROOT
BRANCH   3   5
ATOM      5  C   UNL     1      -3.377  -0.702   0.186  0.00  0.00    +0.077 A 
ATOM      6  C   UNL     1      -3.251  -2.083   0.173  0.00  0.00    +0.047 A 
ATOM      7  C   UNL     1      -4.379  -2.880   0.251  0.00  0.00    +0.043 A 
ATOM      8  C   UNL     1      -5.633  -2.302   0.342  0.00  0.00    +0.024 A 
ATOM      9  C   UNL     1      -5.765  -0.926   0.356  0.00  0.00    +0.049 A 
ATOM     10  C   UNL     1      -4.639  -0.121   0.284  0.00  0.00    +0.142 A 
ATOM     11 CL   UNL     1      -4.221  -4.609   0.233  0.00  0.00    -0.083 Cl
BRANCH  10  12
ATOM     12  O   UNL     1      -4.767   1.233   0.304  0.00  0.00    -0.488 OA
BRANCH  12  13
ATOM     13  C   UNL     1      -6.092   1.758   0.406  0.00  0.00    +0.260 C 
BRANCH  13  14
ATOM     14  C   UNL     1      -6.036   3.287   0.413  0.00  0.00    +0.156 C 
ATOM     15  C   UNL     1      -7.468   3.877   0.432  0.00  0.00    +0.037 C 
ATOM     16  C   UNL     1      -7.205   5.268   1.073  0.00  0.00    +0.031 C 
ATOM     17  C   UNL     1      -6.059   4.962   2.061  0.00  0.00    +0.160 C 
ATOM     18  O   UNL     1      -5.418   3.757   1.622  0.00  0.00    -0.373 OA
ENDBRANCH  13  14
ENDBRANCH  12  13
ENDBRANCH  10  12
ENDBRANCH   3   5
BRANCH   1  24
ATOM     19  C   UNL     1       0.133   1.689   0.184  0.00  0.00    +0.015 A 
ATOM     20  C   UNL     1       1.289   2.436   0.210  0.00  0.00    +0.026 A 
ATOM     21  C   UNL     1       2.450   1.944  -0.382  0.00  0.00    +0.055 A 
ATOM     22  C   UNL     1       2.445   0.697  -1.000  0.00  0.00    +0.147 A 
ATOM     23  C   UNL     1       1.293  -0.054  -1.029  0.00  0.00    +0.047 A 
ATOM     24  C   UNL     1       0.125   0.436  -0.436  0.00  0.00    +0.039 A 
BRANCH  22  25
ATOM     25  N   UNL     1       3.681   0.179  -1.628  0.00  0.00    +0.058 N 
ATOM     26  O   UNL     1       3.615  -0.480  -2.640  0.00  0.00    -0.126 OA
ATOM     27  O   UNL     1       4.757   0.414  -1.129  0.00  0.00    -0.126 OA
ENDBRANCH  22  25
BRANCH  21  28
ATOM     28  N   UNL     1       3.616   2.701  -0.354  0.00  0.00    -0.356 N 
ATOM     29  H   UNL     1       3.603   3.599   0.012  0.00  0.00    +0.142 HD
ATOM     30  H   UNL     1       4.442   2.331  -0.702  0.00  0.00    +0.142 HD
ENDBRANCH  21  28
ENDBRANCH   1  24
TORSDOF 7
