REMARK  Name = ZINC40373129
REMARK  7 active torsions:
REMARK  status: ('A' for Active; 'I' for Inactive)
REMARK    1  A    between atoms: C_1  and  C_2
REMARK    2  A    between atoms: C_2  and  C_3
REMARK    3  A    between atoms: C_3  and  C_4
REMARK    4  A    between atoms: C_3  and  C_5
REMARK    5  A    between atoms: C_3  and  N_9
REMARK    6  A    between atoms: N_6  and  O_7
REMARK    7  A    between atoms: C_10  and  C_12
REMARK                            x       y       z     vdW  Elec       q    Type
REMARK                         _______ _______ _______ _____ _____    ______ ____
ROOT
ATOM      1  N   UNL     1       2.200  -0.340  -1.216  0.00  0.00    -0.299 N 
ATOM      2  C   UNL     1       2.967  -0.702  -0.168  0.00  0.00    +0.248 C 
ATOM      3  O   UNL     1       2.463  -1.243   0.796  0.00  0.00    -0.270 OA
ATOM      4  H   UNL     1       2.603   0.092  -1.986  0.00  0.00    +0.150 HD
ENDROOT
BRANCH   2   5
ATOM      5  C   UNL     1       4.420  -0.442  -0.193  0.00  0.00    +0.072 A 
ATOM      6  C   UNL     1       5.003   0.185  -1.297  0.00  0.00    +0.017 A 
ATOM      7  C   UNL     1       6.360   0.425  -1.314  0.00  0.00    +0.021 A 
ATOM      8  C   UNL     1       7.148   0.047  -0.238  0.00  0.00    +0.044 A 
ATOM      9  C   UNL     1       6.580  -0.575   0.859  0.00  0.00    +0.059 A 
ATOM     10  C   UNL     1       5.219  -0.816   0.893  0.00  0.00    +0.137 A 
ATOM     11  F   UNL     1       4.664  -1.418   1.967  0.00  0.00    -0.205 F 
ATOM     12 CL   UNL     1       8.857   0.354  -0.270  0.00  0.00    -0.083 Cl
ENDBRANCH   2   5
BRANCH   1  13
ATOM     13  C   UNL     1       0.759  -0.598  -1.192  0.00  0.00    +0.090 C 
ATOM     14  C   UNL     1       0.512  -2.102  -1.056  0.00  0.00    +0.040 C 
BRANCH  13  15
ATOM     15  C   UNL     1       0.138  -0.101  -2.472  0.00  0.00    +0.155 C 
ATOM     16  N   UNL     1      -0.528  -0.913  -3.225  0.00  0.00    -0.075 NA
ATOM     17  N   UNL     1       0.281   1.218  -2.840  0.00  0.00    -0.342 N 
ATOM     18  H   UNL     1       0.715   1.844  -2.240  0.00  0.00    +0.144 HD
ATOM     19  H   UNL     1      -0.054   1.521  -3.698  0.00  0.00    +0.144 HD
BRANCH  16  20
ATOM     20  O   UNL     1      -1.111  -0.447  -4.428  0.00  0.00    -0.408 OA
ATOM     21  H   UNL     1      -1.589  -1.126  -4.923  0.00  0.00    +0.328 HD
ENDBRANCH  16  20
ENDBRANCH  13  15
BRANCH  13  23
ATOM     22  C   UNL     1      -1.391  -0.031  -0.052  0.00  0.00    +0.006 C 
ATOM     23  C   UNL     1       0.130   0.132  -0.003  0.00  0.00    +0.030 C 
ENDBRANCH  13  23
ENDBRANCH   1  13
TORSDOF 5
