REMARK  Name = ZINC13009155
REMARK  4 active torsions:
REMARK  status: ('A' for Active; 'I' for Inactive)
REMARK    1  A    between atoms: C_1  and  C_2
REMARK    2  A    between atoms: C_16  and  C_17
REMARK    3  A    between atoms: N_19  and  C_20
REMARK    4  A    between atoms: C_20  and  C_21
REMARK                            x       y       z     vdW  Elec       q    Type
REMARK                         _______ _______ _______ _____ _____    ______ ____
ROOT
ATOM      1  C   UNL     1       2.313  -2.997  -0.014  0.00  0.00    +0.046 C 
ATOM      2  C   UNL     1       1.084  -2.125  -0.010  0.00  0.00    -0.017 A 
ATOM      3  C   UNL     1       1.212  -0.734  -0.001  0.00  0.00    +0.076 A 
ATOM      4  C   UNL     1       0.002  -0.004   0.002  0.00  0.00    +0.116 A 
ATOM      5  N   UNL     1      -0.016   1.323   0.009  0.00  0.00    -0.226 NA
ATOM      6  C   UNL     1       1.083   2.023   0.003  0.00  0.00    +0.114 A 
ATOM      7  N   UNL     1       2.311   1.430  -0.002  0.00  0.00    -0.296 N 
ATOM      8  C   UNL     1       2.441   0.092   0.003  0.00  0.00    +0.263 A 
ATOM      9  O   UNL     1       3.543  -0.428   0.009  0.00  0.00    -0.267 OA
ATOM     10  C   UNL     1       3.499   2.294  -0.011  0.00  0.00    +0.126 C 
ATOM     11  C   UNL     1       3.664   2.905  -1.401  0.00  0.00    +0.022 C 
ATOM     12  C   UNL     1       2.914   4.222  -1.512  0.00  0.00    +0.002 C 
ATOM     13  C   UNL     1       1.411   4.038  -1.397  0.00  0.00    +0.008 C 
ATOM     14  C   UNL     1       1.024   3.534  -0.008  0.00  0.00    +0.074 C 
ATOM     15  S   UNL     1      -1.239  -1.273  -0.008  0.00  0.00    -0.064 S 
ATOM     16  C   UNL     1      -0.157  -2.692  -0.016  0.00  0.00    +0.079 A 
ENDROOT
BRANCH  16  17
ATOM     17  C   UNL     1      -0.513  -4.114  -0.026  0.00  0.00    +0.251 C 
ATOM     18  O   UNL     1       0.362  -4.961  -0.030  0.00  0.00    -0.270 OA
ATOM     19  N   UNL     1      -1.808  -4.485  -0.030  0.00  0.00    -0.308 N 
ATOM     20  H   UNL     1      -2.506  -3.811  -0.027  0.00  0.00    +0.149 HD
BRANCH  19  21
ATOM     21  C   UNL     1      -2.164  -5.906  -0.040  0.00  0.00    +0.136 C 
BRANCH  21  22
ATOM     22  C   UNL     1      -3.687  -6.051  -0.044  0.00  0.00    +0.135 C 
ATOM     23  C   UNL     1      -4.087  -7.538   0.072  0.00  0.00    +0.035 C 
ATOM     24  C   UNL     1      -5.328  -7.666  -0.839  0.00  0.00    +0.031 C 
ATOM     25  C   UNL     1      -5.532  -6.240  -1.397  0.00  0.00    +0.160 C 
ATOM     26  O   UNL     1      -4.230  -5.620  -1.311  0.00  0.00    -0.375 OA
ENDBRANCH  21  22
ENDBRANCH  19  21
ENDBRANCH  16  17
TORSDOF 3
