REMARK  Name = ZINC09712395
REMARK  9 active torsions:
REMARK  status: ('A' for Active; 'I' for Inactive)
REMARK    1  A    between atoms: C_1  and  C_2
REMARK    2  A    between atoms: C_3  and  C_8
REMARK    3  A    between atoms: C_4  and  C_7
REMARK    4  A    between atoms: C_8  and  O_9
REMARK    5  A    between atoms: O_9  and  C_10
REMARK    6  A    between atoms: C_13  and  C_16
REMARK    7  A    between atoms: N_18  and  C_19
REMARK    8  A    between atoms: C_23  and  S_25
REMARK    9  A    between atoms: S_25  and  N_28
REMARK                            x       y       z     vdW  Elec       q    Type
REMARK                         _______ _______ _______ _____ _____    ______ ____
ROOT
ATOM      1  C   UNL     1       0.162   0.020  -0.175  0.00  0.00    +0.248 C 
ATOM      2  O   UNL     1       1.268  -0.413  -0.437  0.00  0.00    -0.270 OA
ATOM      3  N   UNL     1      -0.016   1.344   0.009  0.00  0.00    -0.281 N 
ATOM      4  H   UNL     1      -0.909   1.699   0.139  0.00  0.00    +0.155 HD
ENDROOT
BRANCH   1   8
ATOM      5  C   UNL     1      -3.135  -2.634   0.162  0.00  0.00    +0.121 A 
ATOM      6  C   UNL     1      -1.872  -3.132  -0.138  0.00  0.00    +0.046 A 
ATOM      7  C   UNL     1      -0.800  -2.274  -0.248  0.00  0.00    +0.016 A 
ATOM      8  C   UNL     1      -0.984  -0.902  -0.057  0.00  0.00    +0.037 A 
ATOM      9  C   UNL     1      -2.253  -0.406   0.250  0.00  0.00    +0.016 A 
ATOM     10  C   UNL     1      -3.321  -1.270   0.352  0.00  0.00    +0.046 A 
BRANCH   5  11
ATOM     11  O   UNL     1      -4.189  -3.482   0.270  0.00  0.00    -0.487 OA
BRANCH  11  12
ATOM     12  C   UNL     1      -5.458  -2.904   0.580  0.00  0.00    +0.269 C 
BRANCH  12  15
ATOM     13  C   UNL     1      -7.322  -4.042  -1.820  0.00  0.00    +0.069 C 
ATOM     14  C   UNL     1      -7.315  -4.491  -0.382  0.00  0.00    +0.087 A 
ATOM     15  C   UNL     1      -6.500  -3.991   0.659  0.00  0.00    +0.054 A 
ATOM     16  C   UNL     1      -6.875  -4.709   1.744  0.00  0.00    +0.141 A 
ATOM     17  O   UNL     1      -7.830  -5.553   1.328  0.00  0.00    -0.359 OA
ATOM     18  N   UNL     1      -8.058  -5.420   0.148  0.00  0.00    -0.083 NA
ATOM     19  C   UNL     1      -6.327  -4.585   3.142  0.00  0.00    +0.089 C 
ENDBRANCH  12  15
ENDBRANCH  11  12
ENDBRANCH   5  11
ENDBRANCH   1   8
BRANCH   3  20
ATOM     20  C   UNL     1       1.086   2.205   0.008  0.00  0.00    +0.036 A 
ATOM     21  C   UNL     1       0.958   3.498  -0.483  0.00  0.00    +0.023 A 
ATOM     22  C   UNL     1       2.048   4.346  -0.483  0.00  0.00    +0.004 A 
ATOM     23  C   UNL     1       3.266   3.909   0.007  0.00  0.00    +0.029 A 
ATOM     24  C   UNL     1       3.396   2.623   0.497  0.00  0.00    +0.110 A 
ATOM     25  C   UNL     1       2.308   1.771   0.503  0.00  0.00    +0.052 A 
BRANCH  24  26
ATOM     26  S   UNL     1       4.949   2.072   1.121  0.00  0.00    +0.073 S 
ATOM     27  O   UNL     1       4.948   0.654   1.018  0.00  0.00    -0.150 OA
ATOM     28  O   UNL     1       5.943   2.880   0.506  0.00  0.00    -0.150 OA
BRANCH  26  29
ATOM     29  N   UNL     1       4.982   2.429   2.737  0.00  0.00    -0.205 N 
ATOM     30  C   UNL     1       4.106   1.813   3.593  0.00  0.00    +0.088 C 
ATOM     31  C   UNL     1       2.431   0.457   4.367  0.00  0.00    +0.114 C 
ATOM     32  C   UNL     1       2.677   1.477   5.503  0.00  0.00    +0.028 C 
ATOM     33  C   UNL     1       4.051   2.057   5.085  0.00  0.00    +0.072 C 
ATOM     34  H   UNL     1       5.621   3.074   3.079  0.00  0.00    +0.175 HD
ATOM     35  N   UNL     1       3.223   0.941   3.216  0.00  0.00    -0.375 N 
ATOM     36  H   UNL     1       3.091   0.627   2.248  0.00  0.00    +0.161 HD
ENDBRANCH  26  29
ENDBRANCH  24  26
ENDBRANCH   3  20
TORSDOF 7
