REMARK  Name = ZINC41089906
REMARK  9 active torsions:
REMARK  status: ('A' for Active; 'I' for Inactive)
REMARK    1  A    between atoms: C_1  and  C_2
REMARK    2  A    between atoms: C_2  and  C_3
REMARK    3  A    between atoms: C_3  and  N_4
REMARK    4  A    between atoms: N_4  and  C_5
REMARK    5  A    between atoms: C_5  and  C_6
REMARK    6  A    between atoms: C_17  and  O_18
REMARK    7  A    between atoms: O_18  and  C_19
REMARK    8  A    between atoms: N_22  and  C_23
REMARK    9  A    between atoms: C_28  and  C_29
REMARK                            x       y       z     vdW  Elec       q    Type
REMARK                         _______ _______ _______ _____ _____    ______ ____
ROOT
ATOM      1  N   UNL     1      -1.495  -2.156  -0.075  0.00  0.00    -0.281 N 
ATOM      2  C   UNL     1      -1.647  -3.002  -1.113  0.00  0.00    +0.307 C 
ATOM      3  O   UNL     1      -1.599  -4.203  -0.931  0.00  0.00    -0.252 OA
ATOM      4  N   UNL     1      -1.853  -2.516  -2.353  0.00  0.00    -0.269 N 
ATOM      5  H   UNL     1      -1.970  -1.562  -2.488  0.00  0.00    +0.156 HD
ENDROOT
BRANCH   4   6
ATOM      6  C   UNL     1      -1.897  -3.387  -3.448  0.00  0.00    +0.039 A 
ATOM      7  C   UNL     1      -1.255  -4.617  -3.384  0.00  0.00    +0.043 A 
ATOM      8  C   UNL     1      -1.301  -5.475  -4.466  0.00  0.00    +0.043 A 
ATOM      9  C   UNL     1      -1.987  -5.110  -5.612  0.00  0.00    +0.020 A 
ATOM     10  C   UNL     1      -2.627  -3.887  -5.677  0.00  0.00    +0.006 A 
ATOM     11  C   UNL     1      -2.589  -3.027  -4.596  0.00  0.00    -0.029 A 
ATOM     12  C   UNL     1      -3.292  -1.696  -4.667  0.00  0.00    +0.045 C 
ATOM     13 CL   UNL     1      -0.498  -7.012  -4.389  0.00  0.00    -0.083 Cl
ENDBRANCH   4   6
BRANCH   1  14
ATOM     14  C   UNL     1      -1.553  -0.709  -0.295  0.00  0.00    +0.109 C 
BRANCH  14  16
ATOM     15  C   UNL     1      -0.195   1.350  -0.697  0.00  0.00    +0.005 C 
ATOM     16  C   UNL     1      -0.134  -0.162  -0.468  0.00  0.00    +0.016 C 
ENDBRANCH  14  16
ENDBRANCH   1  14
BRANCH   1  17
ATOM     17  C   UNL     1      -1.272  -2.684   1.273  0.00  0.00    +0.145 C 
BRANCH  17  18
ATOM     18  C   UNL     1      -2.597  -3.017   1.908  0.00  0.00    -0.016 A 
ATOM     19  C   UNL     1      -3.104  -4.272   1.834  0.00  0.00    +0.076 A 
ATOM     20  C   UNL     1      -4.347  -4.574   2.432  0.00  0.00    +0.250 A 
ATOM     21  O   UNL     1      -4.785  -5.709   2.353  0.00  0.00    -0.268 OA
ATOM     22  N   UNL     1      -5.059  -3.640   3.087  0.00  0.00    -0.319 N 
ATOM     23  H   UNL     1      -5.909  -3.881   3.487  0.00  0.00    +0.169 HD
ATOM     24  C   UNL     1      -4.598  -2.345   3.198  0.00  0.00    +0.092 A 
ATOM     25  C   UNL     1      -3.362  -1.994   2.624  0.00  0.00    +0.007 A 
ATOM     26  C   UNL     1      -2.887  -0.683   2.737  0.00  0.00    +0.010 A 
ATOM     27  C   UNL     1      -3.623   0.250   3.411  0.00  0.00    +0.004 A 
ATOM     28  C   UNL     1      -4.840  -0.089   3.985  0.00  0.00    +0.048 A 
ATOM     29  C   UNL     1      -5.336  -1.375   3.877  0.00  0.00    +0.144 A 
BRANCH  29  30
ATOM     30  O   UNL     1      -6.530  -1.697   4.443  0.00  0.00    -0.493 OA
ATOM     31  C   UNL     1      -7.229  -0.651   5.121  0.00  0.00    +0.277 C 
ENDBRANCH  29  30
ENDBRANCH  17  18
ENDBRANCH   1  17
TORSDOF 6
