REMARK  Name = ZINC25145269
REMARK  6 active torsions:
REMARK  status: ('A' for Active; 'I' for Inactive)
REMARK    1  A    between atoms: C_1  and  N_2
REMARK    2  A    between atoms: N_2  and  S_3
REMARK    3  A    between atoms: S_3  and  C_6
REMARK    4  A    between atoms: C_9  and  C_12
REMARK    5  A    between atoms: N_14  and  C_15
REMARK    6  A    between atoms: C_20  and  C_23
REMARK                            x       y       z     vdW  Elec       q    Type
REMARK                         _______ _______ _______ _____ _____    ______ ____
ROOT
ATOM      1  C   UNL     1       0.414  -1.700  -1.699  0.00  0.00    +0.244 C 
ATOM      2  O   UNL     1      -0.402  -2.411  -1.146  0.00  0.00    -0.270 OA
ATOM      3  N   UNL     1       0.688  -0.476  -1.203  0.00  0.00    -0.308 N 
ATOM      4  H   UNL     1       1.426   0.167  -1.704  0.00  0.00    +0.149 HD
ENDROOT
BRANCH   1   8
ATOM      5  C   UNL     1       2.402  -3.069  -5.194  0.00  0.00    +0.105 A 
ATOM      6  C   UNL     1       1.474  -3.881  -4.566  0.00  0.00    +0.029 A 
ATOM      7  C   UNL     1       0.825  -3.442  -3.431  0.00  0.00    +0.015 A 
ATOM      8  C   UNL     1       1.106  -2.176  -2.915  0.00  0.00    +0.037 A 
ATOM      9  C   UNL     1       2.039  -1.360  -3.556  0.00  0.00    +0.015 A 
ATOM     10  C   UNL     1       2.685  -1.813  -4.688  0.00  0.00    +0.029 A 
BRANCH   5  11
ATOM     11  S   UNL     1       3.227  -3.638  -6.643  0.00  0.00    +0.058 S 
ATOM     12  O   UNL     1       4.445  -2.911  -6.728  0.00  0.00    -0.153 OA
ATOM     13  O   UNL     1       3.188  -5.058  -6.602  0.00  0.00    -0.153 OA
BRANCH  11  15
ATOM     14  C   UNL     1       2.128  -1.754  -8.243  0.00  0.00    +0.127 C 
ATOM     15  N   UNL     1       2.309  -3.176  -7.942  0.00  0.00    -0.193 NA
ATOM     16  H   UNL     1       1.708  -3.931  -8.471  0.00  0.00    +0.148 HD
ENDBRANCH  11  15
ENDBRANCH   5  11
ENDBRANCH   1   8
BRANCH   3  17
ATOM     17  C   UNL     1       0.002  -0.004   0.002  0.00  0.00    +0.074 C 
ATOM     18  C   UNL     1       0.742  -0.511   1.242  0.00  0.00    +0.022 C 
ATOM     19  C   UNL     1       2.178   0.019   1.231  0.00  0.00    +0.002 C 
ATOM     20  C   UNL     1       2.157   1.548   1.239  0.00  0.00    +0.012 C 
ATOM     21  C   UNL     1       1.417   2.055  -0.000  0.00  0.00    +0.095 C 
ATOM     22  C   UNL     1      -0.019   1.526   0.010  0.00  0.00    +0.034 C 
BRANCH  21  23
ATOM     23  C   UNL     1       1.396   3.585   0.008  0.00  0.00    +0.393 C 
ATOM     24  F   UNL     1       0.741   4.036   1.159  0.00  0.00    -0.170 F 
ATOM     25  F   UNL     1       2.708   4.069  -0.002  0.00  0.00    -0.170 F 
ATOM     26  F   UNL     1       0.719   4.049  -1.125  0.00  0.00    -0.170 F 
ENDBRANCH  21  23
ENDBRANCH   3  17
TORSDOF 5
