REMARK  Name = ZINC41546235
REMARK  3 active torsions:
REMARK  status: ('A' for Active; 'I' for Inactive)
REMARK    1  A    between atoms: C_1  and  C_2
REMARK    2  A    between atoms: C_2  and  C_13
REMARK    3  A    between atoms: C_19  and  C_21
REMARK                            x       y       z     vdW  Elec       q    Type
REMARK                         _______ _______ _______ _____ _____    ______ ____
ROOT
ATOM      1  C   UNL     1       0.709  -0.489  -1.237  0.00  0.00    +0.272 C 
ATOM      2  O   UNL     1       0.070  -0.781  -2.226  0.00  0.00    -0.270 OA
ATOM      3  N   UNL     1       2.053  -0.599  -1.247  0.00  0.00    -0.260 N 
ATOM      4  C   UNL     1       2.705  -1.047  -2.389  0.00  0.00    +0.188 A 
ATOM      5  N   UNL     1       2.193  -1.403  -3.553  0.00  0.00    -0.125 NA
ATOM      6  N   UNL     1       2.918  -1.792  -4.511  0.00  0.00    -0.140 NA
ATOM      7  C   UNL     1       4.233  -1.844  -4.339  0.00  0.00    +0.134 A 
ATOM      8  S   UNL     1       4.355  -1.268  -2.651  0.00  0.00    -0.030 S 
ATOM      9  H   UNL     1       2.564  -0.366  -0.456  0.00  0.00    +0.157 HD
ENDROOT
BRANCH   1  11
ATOM     10  C   UNL     1      -0.019   1.526   0.010  0.00  0.00    +0.076 C 
ATOM     11  C   UNL     1       0.002  -0.004   0.002  0.00  0.00    +0.258 C 
ATOM     12  C   UNL     1      -1.413  -0.525   0.008  0.00  0.00    +0.270 C 
ATOM     13  O   UNL     1      -2.310   0.144  -0.460  0.00  0.00    -0.271 OA
ATOM     14  N   UNL     1      -1.677  -1.739   0.535  0.00  0.00    -0.279 N 
ATOM     15  C   UNL     1      -0.651  -2.441   1.182  0.00  0.00    +0.076 A 
ATOM     16  C   UNL     1      -0.820  -3.772   1.531  0.00  0.00    +0.027 A 
ATOM     17  C   UNL     1       0.207  -4.454   2.158  0.00  0.00    +0.002 A 
ATOM     18  C   UNL     1       1.400  -3.813   2.436  0.00  0.00    +0.004 A 
ATOM     19  C   UNL     1       1.573  -2.484   2.095  0.00  0.00    +0.047 A 
ATOM     20  C   UNL     1       0.547  -1.792   1.472  0.00  0.00    +0.144 A 
ATOM     21  O   UNL     1       0.694  -0.477   1.160  0.00  0.00    -0.465 OA
ATOM     22  H   UNL     1      -2.566  -2.121   0.467  0.00  0.00    +0.155 HD
ENDBRANCH   1  11
BRANCH   7  23
ATOM     23  C   UNL     1       5.297  -2.256  -5.280  0.00  0.00    +0.009 A 
ATOM     24  C   UNL     1       6.633  -2.237  -4.878  0.00  0.00    +0.010 A 
ATOM     25  C   UNL     1       7.621  -2.623  -5.760  0.00  0.00    +0.001 A 
ATOM     26  C   UNL     1       7.290  -3.027  -7.041  0.00  0.00    +0.000 A 
ATOM     27  C   UNL     1       5.967  -3.048  -7.446  0.00  0.00    +0.001 A 
ATOM     28  C   UNL     1       4.969  -2.671  -6.571  0.00  0.00    +0.010 A 
ENDBRANCH   7  23
TORSDOF 2
