REMARK  Name = ZINC39664635
REMARK  8 active torsions:
REMARK  status: ('A' for Active; 'I' for Inactive)
REMARK    1  A    between atoms: C_1  and  N_2
REMARK    2  A    between atoms: N_2  and  C_3
REMARK    3  A    between atoms: N_2  and  C_4
REMARK    4  A    between atoms: C_4  and  C_5
REMARK    5  A    between atoms: C_5  and  C_7
REMARK    6  A    between atoms: C_5  and  N_13
REMARK    7  A    between atoms: C_14  and  C_16
REMARK    8  A    between atoms: C_27  and  C_29
REMARK                            x       y       z     vdW  Elec       q    Type
REMARK                         _______ _______ _______ _____ _____    ______ ____
ROOT
ATOM      1  C   UNL     1       0.978  -3.118  -2.321  0.00  0.00    +0.100 C 
ATOM      2  C   UNL     1       0.485  -4.303  -3.181  0.00  0.00    +0.121 C 
ATOM      3  N   UNL     1       1.715  -4.860  -3.791  0.00  0.00    -0.296 N 
ATOM      4  C   UNL     1       2.729  -4.785  -2.712  0.00  0.00    +0.115 C 
ATOM      5  C   UNL     1       2.451  -3.438  -2.014  0.00  0.00    -0.004 C 
ATOM      6  C   UNL     1       2.661  -3.572  -0.509  0.00  0.00    -0.010 C 
ATOM      7  C   UNL     1       4.143  -3.832  -0.226  0.00  0.00    -0.082 C 
ATOM      8  N   UNL     1       4.946  -2.724  -0.756  0.00  0.00    +0.379 N 
ATOM      9  C   UNL     1       4.811  -2.661  -2.216  0.00  0.00    -0.082 C 
ATOM     10  C   UNL     1       3.358  -2.352  -2.584  0.00  0.00    -0.010 C 
ATOM     11  C   UNL     1       1.876  -5.329  -5.044  0.00  0.00    +0.247 C 
ATOM     12  O   UNL     1       0.976  -5.221  -5.854  0.00  0.00    -0.270 OA
ATOM     13  H   UNL     1       4.627  -1.856  -0.352  0.00  0.00    -0.086 HD
ATOM     14  H   UNL     1       5.916  -2.867  -0.515  0.00  0.00    -0.086 HD
ENDROOT
BRANCH  11  15
ATOM     15  C   UNL     1       3.147  -5.976  -5.434  0.00  0.00    +0.037 A 
ATOM     16  C   UNL     1       3.999  -6.492  -4.456  0.00  0.00    +0.014 A 
ATOM     17  C   UNL     1       5.183  -7.095  -4.825  0.00  0.00    +0.021 A 
ATOM     18  C   UNL     1       5.527  -7.188  -6.164  0.00  0.00    +0.041 A 
ATOM     19  C   UNL     1       4.686  -6.678  -7.138  0.00  0.00    +0.021 A 
ATOM     20  C   UNL     1       3.497  -6.078  -6.781  0.00  0.00    +0.014 A 
ATOM     21 CL   UNL     1       7.020  -7.947  -6.621  0.00  0.00    -0.084 Cl
ENDBRANCH  11  15
BRANCH   1  23
ATOM     22  N   UNL     1      -0.018  -4.135  -0.298  0.00  0.00    -0.310 N 
ATOM     23  C   UNL     1       0.184  -3.030  -1.043  0.00  0.00    +0.219 C 
ATOM     24  O   UNL     1      -0.274  -1.966  -0.686  0.00  0.00    -0.275 OA
ATOM     25  H   UNL     1       0.407  -4.971  -0.545  0.00  0.00    +0.149 HD
BRANCH  22  26
ATOM     26  C   UNL     1      -0.880  -4.073   0.885  0.00  0.00    +0.087 C 
BRANCH  26  27
ATOM     27  C   UNL     1      -0.314  -4.958   1.966  0.00  0.00    -0.029 A 
ATOM     28  C   UNL     1       0.233  -6.185   1.639  0.00  0.00    +0.005 A 
ATOM     29  C   UNL     1       0.752  -6.997   2.630  0.00  0.00    +0.000 A 
ATOM     30  C   UNL     1       0.725  -6.582   3.948  0.00  0.00    +0.000 A 
ATOM     31  C   UNL     1       0.179  -5.355   4.275  0.00  0.00    +0.000 A 
ATOM     32  C   UNL     1      -0.337  -4.541   3.284  0.00  0.00    +0.005 A 
ENDBRANCH  26  27
BRANCH  26  33
ATOM     33  C   UNL     1      -2.286  -4.552   0.518  0.00  0.00    -0.052 C 
BRANCH  33  35
ATOM     34  C   UNL     1      -4.101  -4.263  -1.023  0.00  0.00    -0.097 C 
ATOM     35  N   UNL     1      -2.830  -3.701  -0.548  0.00  0.00    +0.377 N 
ATOM     36  C   UNL     1      -3.058  -2.347  -0.025  0.00  0.00    -0.097 C 
ATOM     37  H   UNL     1      -2.174  -3.659  -1.314  0.00  0.00    -0.083 HD
ENDBRANCH  33  35
ENDBRANCH  26  33
ENDBRANCH  22  26
ENDBRANCH   1  23
TORSDOF 6
