REMARK  Name = ZINC24889126
REMARK  10 active torsions:
REMARK  status: ('A' for Active; 'I' for Inactive)
REMARK    1  A    between atoms: C_1  and  C_2
REMARK    2  A    between atoms: C_2  and  C_3
REMARK    3  A    between atoms: C_2  and  C_4
REMARK    4  A    between atoms: C_2  and  O_5
REMARK    5  A    between atoms: O_5  and  C_6
REMARK    6  A    between atoms: C_11  and  C_14
REMARK    7  A    between atoms: N_16  and  C_17
REMARK    8  A    between atoms: C_22  and  N_23
REMARK    9  A    between atoms: N_23  and  S_24
REMARK   10  A    between atoms: S_24  and  C_27
REMARK                            x       y       z     vdW  Elec       q    Type
REMARK                         _______ _______ _______ _____ _____    ______ ____
ROOT
ATOM      1  C   UNL     1       1.980   0.687  -5.131  0.00  0.00    +0.220 C 
ATOM      2  O   UNL     1       3.119   1.068  -5.305  0.00  0.00    -0.275 OA
ATOM      3  N   UNL     1       1.555   0.378  -3.889  0.00  0.00    -0.284 N 
ATOM      4  H   UNL     1       0.504   0.102  -3.721  0.00  0.00    +0.155 HD
ENDROOT
BRANCH   1  10
ATOM      5  C   UNL     1       0.297  -1.229  -9.925  0.00  0.00    +0.403 C 
ATOM      6  O   UNL     1       0.832  -0.782 -10.920  0.00  0.00    -0.226 OA
ATOM      7  N   UNL     1       0.231  -0.484  -8.803  0.00  0.00    -0.267 N 
ATOM      8  C   UNL     1       0.800   0.870  -8.769  0.00  0.00    +0.112 C 
ATOM      9  C   UNL     1       1.768   0.968  -7.585  0.00  0.00    +0.032 C 
ATOM     10  C   UNL     1       1.041   0.559  -6.302  0.00  0.00    +0.078 C 
ATOM     11  C   UNL     1       0.569  -0.892  -6.421  0.00  0.00    +0.032 C 
ATOM     12  C   UNL     1      -0.412  -1.011  -7.592  0.00  0.00    +0.112 C 
BRANCH   5  13
ATOM     13  O   UNL     1      -0.229  -2.468  -9.942  0.00  0.00    -0.445 OA
BRANCH  13  15
ATOM     14  C   UNL     1       1.355  -3.387 -11.547  0.00  0.00    +0.055 C 
ATOM     15  C   UNL     1      -0.121  -3.213 -11.184  0.00  0.00    +0.107 C 
ATOM     16  C   UNL     1      -0.770  -4.587 -11.012  0.00  0.00    +0.055 C 
ATOM     17  C   UNL     1      -0.834  -2.448 -12.301  0.00  0.00    +0.055 C 
ENDBRANCH  13  15
ENDBRANCH   5  13
ENDBRANCH   1  10
BRANCH   3  18
ATOM     18  C   UNL     1       2.453   0.409  -2.814  0.00  0.00    +0.056 A 
ATOM     19  C   UNL     1       3.471   1.349  -2.784  0.00  0.00    +0.025 A 
ATOM     20  C   UNL     1       4.356   1.378  -1.722  0.00  0.00    +0.002 A 
ATOM     21  C   UNL     1       4.228   0.471  -0.686  0.00  0.00    +0.002 A 
ATOM     22  C   UNL     1       3.213  -0.467  -0.705  0.00  0.00    +0.026 A 
ATOM     23  C   UNL     1       2.325  -0.507  -1.769  0.00  0.00    +0.069 A 
BRANCH  23  24
ATOM     24  N   UNL     1       1.299  -1.458  -1.793  0.00  0.00    -0.219 N 
ATOM     25  H   UNL     1       0.985  -1.904  -2.748  0.00  0.00    +0.173 HD
BRANCH  24  26
ATOM     26  S   UNL     1       0.559  -1.913  -0.383  0.00  0.00    +0.040 S 
ATOM     27  O   UNL     1       1.617  -2.358   0.455  0.00  0.00    -0.155 OA
ATOM     28  O   UNL     1      -0.471  -2.804  -0.785  0.00  0.00    -0.155 OA
ATOM     29  C   UNL     1      -0.160  -0.385   0.280  0.00  0.00    +0.218 C 
ENDBRANCH  24  26
ENDBRANCH  23  24
ENDBRANCH   3  18
TORSDOF 6
