REMARK  Name = ZINC09191427
REMARK  10 active torsions:
REMARK  status: ('A' for Active; 'I' for Inactive)
REMARK    1  A    between atoms: C_1  and  C_2
REMARK    2  A    between atoms: C_5  and  S_8
REMARK    3  A    between atoms: S_8  and  N_11
REMARK    4  A    between atoms: C_14  and  C_17
REMARK    5  A    between atoms: C_23  and  C_25
REMARK    6  A    between atoms: N_27  and  C_28
REMARK    7  A    between atoms: C_30  and  C_35
REMARK    8  A    between atoms: C_30  and  C_36
REMARK    9  A    between atoms: C_31  and  C_33
REMARK   10  A    between atoms: C_31  and  C_34
REMARK                            x       y       z     vdW  Elec       q    Type
REMARK                         _______ _______ _______ _____ _____    ______ ____
ROOT
ATOM      1  C   UNL     1       6.181   1.116   4.070  0.00  0.00    +0.219 C 
ATOM      2  O   UNL     1       5.565   1.587   3.138  0.00  0.00    -0.275 OA
ATOM      3  N   UNL     1       5.524   0.475   5.057  0.00  0.00    -0.290 N 
ATOM      4  C   UNL     1       6.130  -0.058   6.288  0.00  0.00    +0.108 C 
ATOM      5  C   UNL     1       4.994  -0.682   7.125  0.00  0.00    +0.021 C 
ATOM      6  C   UNL     1       3.729   0.035   6.585  0.00  0.00    +0.033 C 
ATOM      7  C   UNL     1       4.078   0.192   5.083  0.00  0.00    +0.162 C 
ENDROOT
BRANCH   1  11
ATOM      8  N   UNL     1      10.143   2.500   3.515  0.00  0.00    -0.177 NA
ATOM      9  C   UNL     1       9.779   1.287   2.769  0.00  0.00    +0.110 C 
ATOM     10  C   UNL     1       8.251   1.188   2.706  0.00  0.00    +0.030 C 
ATOM     11  C   UNL     1       7.682   1.248   4.125  0.00  0.00    +0.078 C 
ATOM     12  C   UNL     1       8.053   2.586   4.769  0.00  0.00    +0.030 C 
ATOM     13  C   UNL     1       9.578   2.701   4.856  0.00  0.00    +0.110 C 
BRANCH   8  14
ATOM     14  S   UNL     1      11.172   3.618   2.856  0.00  0.00    +0.061 S 
ATOM     15  O   UNL     1      11.755   4.323   3.943  0.00  0.00    -0.153 OA
ATOM     16  O   UNL     1      11.953   2.931   1.888  0.00  0.00    -0.153 OA
BRANCH  14  21
ATOM     17  C   UNL     1       7.789   7.596  -0.165  0.00  0.00    +0.044 C 
ATOM     18  C   UNL     1       8.634   6.603   0.590  0.00  0.00    -0.050 A 
ATOM     19  C   UNL     1       8.926   6.816   1.924  0.00  0.00    +0.005 A 
ATOM     20  C   UNL     1       9.701   5.904   2.616  0.00  0.00    +0.029 A 
ATOM     21  C   UNL     1      10.184   4.779   1.974  0.00  0.00    +0.105 A 
ATOM     22  C   UNL     1       9.896   4.569   0.638  0.00  0.00    +0.029 A 
ATOM     23  C   UNL     1       9.116   5.478  -0.052  0.00  0.00    +0.005 A 
ENDBRANCH  14  21
ENDBRANCH   8  14
ENDBRANCH   1  11
BRANCH   7  24
ATOM     24  C   UNL     1       3.308   1.339   4.483  0.00  0.00    +0.234 C 
ATOM     25  O   UNL     1       3.748   2.467   4.552  0.00  0.00    -0.274 OA
ATOM     26  N   UNL     1       2.130   1.112   3.868  0.00  0.00    -0.311 N 
ATOM     27  H   UNL     1       1.778   0.210   3.813  0.00  0.00    +0.149 HD
BRANCH  26  28
ATOM     28  C   UNL     1       1.379   2.230   3.283  0.00  0.00    +0.070 C 
ATOM     29  C   UNL     1       0.496   2.861   4.359  0.00  0.00    +0.009 C 
ATOM     30  C   UNL     1      -0.310   4.017   3.772  0.00  0.00    -0.072 C 
ATOM     31  C   UNL     1      -0.329   2.842   1.552  0.00  0.00    -0.072 C 
ATOM     32  C   UNL     1       0.480   1.702   2.165  0.00  0.00    +0.009 C 
ATOM     33  C   UNL     1       0.578   3.687   0.649  0.00  0.00    -0.010 C 
ATOM     34  C   UNL     1      -1.412   2.210   0.649  0.00  0.00    -0.010 C 
ATOM     35  C   UNL     1      -1.376   4.419   4.816  0.00  0.00    -0.010 C 
ATOM     36  C   UNL     1       0.606   5.230   3.568  0.00  0.00    -0.010 C 
ATOM     37  N   UNL     1      -1.063   3.689   2.531  0.00  0.00    +0.386 N 
ATOM     38  H   UNL     1      -1.310   4.571   2.066  0.00  0.00    -0.084 HD
ATOM     39  H   UNL     1      -1.920   3.192   2.801  0.00  0.00    -0.084 HD
ENDBRANCH  26  28
ENDBRANCH   7  24
TORSDOF 5
