REMARK  Name = ZINC67328791
REMARK  8 active torsions:
REMARK  status: ('A' for Active; 'I' for Inactive)
REMARK    1  A    between atoms: C_1  and  C_2
REMARK    2  A    between atoms: C_2  and  C_3
REMARK    3  A    between atoms: C_6  and  N_13
REMARK    4  A    between atoms: C_8  and  S_9
REMARK    5  A    between atoms: S_9  and  N_12
REMARK    6  A    between atoms: C_14  and  C_16
REMARK    7  A    between atoms: C_18  and  N_24
REMARK    8  A    between atoms: C_19  and  C_23
REMARK                            x       y       z     vdW  Elec       q    Type
REMARK                         _______ _______ _______ _____ _____    ______ ____
ROOT
ATOM      1  N   UNL     1      -5.359  -2.349   0.474  0.00  0.00    -0.281 N 
ATOM      2  C   UNL     1      -5.775  -2.954  -0.656  0.00  0.00    +0.248 C 
ATOM      3  O   UNL     1      -4.963  -3.322  -1.484  0.00  0.00    -0.270 OA
ATOM      4  H   UNL     1      -5.998  -2.124   1.167  0.00  0.00    +0.155 HD
ENDROOT
BRANCH   2   5
ATOM      5  C   UNL     1      -7.218  -3.171  -0.890  0.00  0.00    +0.042 A 
ATOM      6  C   UNL     1      -7.652  -3.803  -2.057  0.00  0.00    +0.046 A 
ATOM      7  C   UNL     1      -9.000  -4.003  -2.270  0.00  0.00    +0.133 A 
ATOM      8  C   UNL     1      -9.923  -3.579  -1.331  0.00  0.00    +0.015 A 
ATOM      9  C   UNL     1      -9.501  -2.951  -0.171  0.00  0.00    +0.129 A 
ATOM     10  C   UNL     1      -8.152  -2.751   0.058  0.00  0.00    +0.051 A 
ATOM     11  F   UNL     1     -10.408  -2.539   0.742  0.00  0.00    -0.205 F 
ATOM     12  C   UNL     1     -11.394  -3.800  -1.571  0.00  0.00    +0.049 C 
BRANCH   7  13
ATOM     13  N   UNL     1      -9.461  -4.672  -3.507  0.00  0.00    +0.057 N 
ATOM     14  O   UNL     1     -10.405  -5.426  -3.471  0.00  0.00    -0.126 OA
ATOM     15  O   UNL     1      -8.893  -4.465  -4.554  0.00  0.00    -0.126 OA
ENDBRANCH   7  13
ENDBRANCH   2   5
BRANCH   1  19
ATOM     16  C   UNL     1      -1.325  -1.446   0.988  0.00  0.00    -0.021 A 
ATOM     17  C   UNL     1      -2.100  -1.787   2.081  0.00  0.00    +0.007 A 
ATOM     18  C   UNL     1      -3.438  -2.087   1.914  0.00  0.00    +0.024 A 
ATOM     19  C   UNL     1      -4.004  -2.046   0.646  0.00  0.00    +0.036 A 
ATOM     20  C   UNL     1      -3.223  -1.704  -0.449  0.00  0.00    +0.052 A 
ATOM     21  C   UNL     1      -1.887  -1.399  -0.275  0.00  0.00    +0.110 A 
BRANCH  21  22
ATOM     22  S   UNL     1      -0.896  -0.958  -1.663  0.00  0.00    +0.056 S 
ATOM     23  O   UNL     1       0.282  -1.749  -1.589  0.00  0.00    -0.153 OA
ATOM     24  O   UNL     1      -1.754  -0.973  -2.796  0.00  0.00    -0.153 OA
BRANCH  22  25
ATOM     25  N   UNL     1      -0.424   0.615  -1.448  0.00  0.00    -0.204 NA
ATOM     26  H   UNL     1       0.421   0.922  -1.810  0.00  0.00    +0.144 HD
ATOM     27  H   UNL     1      -0.994   1.229  -0.959  0.00  0.00    +0.144 HD
ENDBRANCH  22  25
ENDBRANCH  21  22
BRANCH  16  29
ATOM     28  C   UNL     1       0.305   0.394   1.314  0.00  0.00    +0.009 C 
ATOM     29  C   UNL     1       0.135  -1.120   1.174  0.00  0.00    +0.034 C 
ENDBRANCH  16  29
ENDBRANCH   1  19
TORSDOF 6
