REMARK  Name = ZINC10665862
REMARK  9 active torsions:
REMARK  status: ('A' for Active; 'I' for Inactive)
REMARK    1  A    between atoms: C_1  and  C_2
REMARK    2  A    between atoms: C_3  and  C_28
REMARK    3  A    between atoms: N_4  and  C_23
REMARK    4  A    between atoms: C_5  and  N_9
REMARK    5  A    between atoms: C_6  and  C_7
REMARK    6  A    between atoms: C_10  and  C_12
REMARK    7  A    between atoms: C_12  and  S_13
REMARK    8  A    between atoms: S_13  and  C_14
REMARK    9  A    between atoms: N_19  and  C_20
REMARK                            x       y       z     vdW  Elec       q    Type
REMARK                         _______ _______ _______ _____ _____    ______ ____
ROOT
ATOM      1  N   UNL     1      -7.338  -4.431   3.554  0.00  0.00    -0.270 N 
ATOM      2  C   UNL     1      -6.831  -5.032   2.460  0.00  0.00    +0.229 C 
ATOM      3  O   UNL     1      -7.386  -6.002   1.989  0.00  0.00    -0.275 OA
ATOM      4  H   UNL     1      -6.946  -3.606   3.880  0.00  0.00    +0.156 HD
ENDROOT
BRANCH   1   9
ATOM      5  C   UNL     1     -10.691  -7.705   5.446  0.00  0.00    +0.047 C 
ATOM      6  C   UNL     1      -9.953  -6.443   5.082  0.00  0.00    -0.011 A 
ATOM      7  C   UNL     1     -10.290  -5.189   5.426  0.00  0.00    +0.022 A 
ATOM      8  N   UNL     1      -9.373  -4.315   4.907  0.00  0.00    -0.329 N 
ATOM      9  C   UNL     1      -8.421  -4.992   4.214  0.00  0.00    +0.124 A 
ATOM     10  C   UNL     1      -8.728  -6.344   4.279  0.00  0.00    +0.095 A 
ATOM     11  C   UNL     1     -11.490  -4.805   6.254  0.00  0.00    +0.064 C 
BRANCH   8  12
ATOM     12  C   UNL     1      -9.413  -2.860   5.075  0.00  0.00    +0.089 C 
ATOM     13  C   UNL     1      -9.314  -2.167   3.700  0.00  0.00    +0.025 C 
ATOM     14  C   UNL     1      -8.448  -0.910   3.971  0.00  0.00    +0.002 C 
ATOM     15  C   UNL     1      -7.402  -1.428   4.989  0.00  0.00    +0.002 C 
ATOM     16  C   UNL     1      -8.198  -2.390   5.894  0.00  0.00    +0.025 C 
ENDBRANCH   8  12
BRANCH  10  17
ATOM     17  C   UNL     1      -7.998  -7.423   3.684  0.00  0.00    +0.103 C 
ATOM     18  N   UNL     1      -7.418  -8.278   3.212  0.00  0.00    -0.191 NA
ENDBRANCH  10  17
ENDBRANCH   1   9
BRANCH   2  19
ATOM     19  C   UNL     1      -5.575  -4.498   1.821  0.00  0.00    +0.172 C 
BRANCH  19  20
ATOM     20  S   UNL     1      -5.068  -5.599   0.471  0.00  0.00    -0.088 S 
BRANCH  20  21
ATOM     21  C   UNL     1      -3.606  -4.849  -0.165  0.00  0.00    +0.160 A 
ATOM     22  N   UNL     1      -2.995  -3.746   0.224  0.00  0.00    -0.133 NA
ATOM     23  N   UNL     1      -1.851  -3.334  -0.419  0.00  0.00    -0.125 NA
ATOM     24  C   UNL     1      -1.370  -4.044  -1.421  0.00  0.00    +0.183 A 
ATOM     25  S   UNL     1      -2.559  -5.374  -1.513  0.00  0.00    -0.025 S 
ATOM     26  N   UNL     1      -0.243  -3.815  -2.201  0.00  0.00    -0.319 N 
ATOM     27  H   UNL     1      -0.011  -4.432  -2.913  0.00  0.00    +0.148 HD
BRANCH  26  28
ATOM     28  C   UNL     1       0.596  -2.640  -1.949  0.00  0.00    +0.072 C 
ATOM     29  C   UNL     1       2.113  -2.840  -1.959  0.00  0.00    +0.024 C 
ATOM     30  C   UNL     1       1.431  -2.105  -3.114  0.00  0.00    +0.024 C 
ENDBRANCH  26  28
ENDBRANCH  20  21
ENDBRANCH  19  20
ENDBRANCH   2  19
TORSDOF 7
