REMARK  Name = ZINC41864626
REMARK  4 active torsions:
REMARK  status: ('A' for Active; 'I' for Inactive)
REMARK    1  A    between atoms: C_1  and  C_2
REMARK    2  A    between atoms: C_8  and  C_10
REMARK    3  A    between atoms: C_16  and  C_18
REMARK    4  A    between atoms: C_18  and  C_23
REMARK                            x       y       z     vdW  Elec       q    Type
REMARK                         _______ _______ _______ _____ _____    ______ ____
ROOT
ATOM      1  C   UNL     1      -2.147  -5.908  -0.544  0.00  0.00    +0.078 C 
ATOM      2  C   UNL     1      -2.451  -6.516  -1.915  0.00  0.00    +0.032 C 
ATOM      3  C   UNL     1      -3.651  -7.460  -1.796  0.00  0.00    +0.108 C 
ATOM      4  N   UNL     1      -4.775  -6.724  -1.201  0.00  0.00    -0.301 N 
ATOM      5  C   UNL     1      -4.565  -6.025   0.074  0.00  0.00    +0.108 C 
ATOM      6  C   UNL     1      -3.354  -5.097  -0.066  0.00  0.00    +0.032 C 
ATOM      7  C   UNL     1      -5.975  -6.690  -1.813  0.00  0.00    +0.224 C 
ATOM      8  O   UNL     1      -6.917  -6.151  -1.272  0.00  0.00    -0.275 OA
ENDROOT
BRANCH   1  16
ATOM      9  C   UNL     1       3.109  -1.423  -0.894  0.00  0.00    +0.089 C 
ATOM     10  C   UNL     1       2.631  -2.840  -1.080  0.00  0.00    +0.136 A 
ATOM     11  C   UNL     1       1.381  -3.285  -0.863  0.00  0.00    +0.091 A 
ATOM     12  C   UNL     1       1.351  -4.668  -1.154  0.00  0.00    +0.168 A 
ATOM     13  N   UNL     1       2.552  -5.024  -1.532  0.00  0.00    -0.063 NA
ATOM     14  O   UNL     1       3.377  -3.874  -1.497  0.00  0.00    -0.358 OA
ATOM     15  N   UNL     1       0.239  -5.504  -1.056  0.00  0.00    -0.267 N 
ATOM     16  C   UNL     1      -0.946  -5.005  -0.650  0.00  0.00    +0.222 C 
ATOM     17  O   UNL     1      -1.045  -3.829  -0.371  0.00  0.00    -0.275 OA
ATOM     18  H   UNL     1       0.318  -6.444  -1.279  0.00  0.00    +0.156 HD
ENDBRANCH   1  16
BRANCH   7  19
ATOM     19  C   UNL     1      -6.146  -7.322  -3.170  0.00  0.00    +0.080 C 
ATOM     20  C   UNL     1      -7.399  -8.170  -3.401  0.00  0.00    +0.058 C 
ATOM     21  C   UNL     1      -6.034  -8.846  -3.259  0.00  0.00    +0.133 C 
ATOM     22 CL   UNL     1      -5.290  -9.540  -4.747  0.00  0.00    -0.100 Cl
ATOM     23 CL   UNL     1      -5.706  -9.747  -1.732  0.00  0.00    -0.100 Cl
ATOM     24  C   UNL     1      -5.618  -6.505  -4.351  0.00  0.00    +0.024 C 
ENDBRANCH   7  19
TORSDOF 2
