REMARK  Name = ZINC51090048
REMARK  4 active torsions:
REMARK  status: ('A' for Active; 'I' for Inactive)
REMARK    1  A    between atoms: C_6  and  N_7
REMARK    2  A    between atoms: C_8  and  C_10
REMARK    3  A    between atoms: C_14  and  N_16
REMARK    4  A    between atoms: N_16  and  N_17
REMARK                            x       y       z     vdW  Elec       q    Type
REMARK                         _______ _______ _______ _____ _____    ______ ____
ROOT
ATOM      1  N   UNL     1      -1.200  -0.722   0.010  0.00  0.00    -0.278 N 
ATOM      2  C   UNL     1      -2.374  -0.069   0.127  0.00  0.00    +0.268 C 
ATOM      3  O   UNL     1      -2.395   1.146   0.134  0.00  0.00    -0.268 OA
ATOM      4  H   UNL     1      -1.189  -1.688  -0.076  0.00  0.00    +0.155 HD
ENDROOT
BRANCH   1  10
ATOM      5  C   UNL     1       0.070   1.238   0.627  0.00  0.00    +0.029 A 
ATOM      6  C   UNL     1       1.257   1.944   0.630  0.00  0.00    +0.043 A 
ATOM      7  C   UNL     1       2.382   1.415   0.022  0.00  0.00    +0.161 A 
ATOM      8  C   UNL     1       2.320   0.173  -0.593  0.00  0.00    +0.195 A 
ATOM      9  C   UNL     1       1.132  -0.538  -0.599  0.00  0.00    +0.182 A 
ATOM     10  C   UNL     1       0.003  -0.005   0.013  0.00  0.00    +0.072 A 
ATOM     11  F   UNL     1       1.070  -1.747  -1.198  0.00  0.00    -0.200 F 
ATOM     12  F   UNL     1       3.418  -0.342  -1.187  0.00  0.00    -0.199 F 
ATOM     13  F   UNL     1       3.541   2.108   0.027  0.00  0.00    -0.202 F 
ENDBRANCH   1  10
BRANCH   2  14
ATOM     14  C   UNL     1      -3.636  -0.832   0.247  0.00  0.00    +0.146 A 
ATOM     15  C   UNL     1      -4.846  -0.151   0.362  0.00  0.00    +0.072 A 
ATOM     16  C   UNL     1      -6.025  -0.878   0.473  0.00  0.00    +0.026 A 
ATOM     17  C   UNL     1      -5.954  -2.259   0.466  0.00  0.00    +0.046 A 
ATOM     18  C   UNL     1      -4.710  -2.878   0.348  0.00  0.00    +0.133 A 
ATOM     19  N   UNL     1      -3.606  -2.161   0.239  0.00  0.00    -0.225 NA
ATOM     20 CL   UNL     1      -4.880   1.584   0.366  0.00  0.00    -0.081 Cl
BRANCH  18  21
ATOM     21  N   UNL     1      -4.631  -4.266   0.341  0.00  0.00    -0.268 N 
ATOM     22  H   UNL     1      -5.438  -4.798   0.418  0.00  0.00    +0.167 HD
BRANCH  21  23
ATOM     23  N   UNL     1      -3.416  -4.880   0.226  0.00  0.00    -0.255 NA
ATOM     24  H   UNL     1      -3.516  -5.884   0.236  0.00  0.00    +0.140 HD
ATOM     25  H   UNL     1      -2.933  -4.573  -0.605  0.00  0.00    +0.140 HD
ENDBRANCH  21  23
ENDBRANCH  18  21
ENDBRANCH   2  14
TORSDOF 4
