REMARK  Name = ZINC60676848
REMARK  11 active torsions:
REMARK  status: ('A' for Active; 'I' for Inactive)
REMARK    1  A    between atoms: C_1  and  C_2
REMARK    2  A    between atoms: C_2  and  C_3
REMARK    3  A    between atoms: C_3  and  O_4
REMARK    4  A    between atoms: O_4  and  C_5
REMARK    5  A    between atoms: C_6  and  O_25
REMARK    6  A    between atoms: C_8  and  C_12
REMARK    7  A    between atoms: N_17  and  C_20
REMARK    8  A    between atoms: C_20  and  C_21
REMARK    9  A    between atoms: N_23  and  C_24
REMARK   10  A    between atoms: O_25  and  C_26
REMARK   11  A    between atoms: C_26  and  C_27
REMARK                            x       y       z     vdW  Elec       q    Type
REMARK                         _______ _______ _______ _____ _____    ______ ____
ROOT
ATOM      1  C   UNL     1       1.377  -2.512   2.303  0.00  0.00    +0.180 A 
ATOM      2  C   UNL     1       2.636  -3.076   2.110  0.00  0.00    +0.164 A 
ATOM      3  C   UNL     1       3.274  -3.715   3.155  0.00  0.00    +0.062 A 
ATOM      4  C   UNL     1       2.654  -3.794   4.405  0.00  0.00    +0.042 A 
ATOM      5  C   UNL     1       1.392  -3.226   4.593  0.00  0.00    +0.037 A 
ATOM      6  C   UNL     1       0.762  -2.585   3.546  0.00  0.00    +0.087 A 
ATOM      7 CL   UNL     1      -0.803  -1.874   3.783  0.00  0.00    -0.080 Cl
ENDROOT
BRANCH   4   8
ATOM      8  C   UNL     1       3.332  -4.476   5.525  0.00  0.00    +0.247 C 
ATOM      9  O   UNL     1       4.532  -4.350   5.678  0.00  0.00    -0.270 OA
ATOM     10  N   UNL     1       2.621  -5.240   6.379  0.00  0.00    -0.295 N 
ATOM     11  C   UNL     1       1.196  -5.514   6.138  0.00  0.00    +0.123 C 
ATOM     12  C   UNL     1       0.970  -7.027   6.226  0.00  0.00    +0.104 C 
ATOM     13  N   UNL     1       1.491  -7.524   7.507  0.00  0.00    -0.291 NA
ATOM     14  C   UNL     1       2.942  -7.321   7.606  0.00  0.00    +0.104 C 
ATOM     15  C   UNL     1       3.251  -5.825   7.572  0.00  0.00    +0.123 C 
BRANCH  13  16
ATOM     16  C   UNL     1       1.141  -8.936   7.705  0.00  0.00    +0.180 C 
BRANCH  16  17
ATOM     17  C   UNL     1       1.471  -9.342   9.119  0.00  0.00    +0.227 C 
ATOM     18  O   UNL     1       1.950  -8.533   9.885  0.00  0.00    -0.274 OA
ATOM     19  N   UNL     1       1.234 -10.603   9.531  0.00  0.00    -0.317 N 
ATOM     20  C   UNL     1       1.554 -10.997  10.905  0.00  0.00    +0.128 C 
ATOM     21  H   UNL     1       0.851 -11.249   8.918  0.00  0.00    +0.148 HD
ENDBRANCH  16  17
ENDBRANCH  13  16
ENDBRANCH   4   8
BRANCH   1  22
ATOM     22  O   UNL     1       0.750  -1.884   1.274  0.00  0.00    -0.487 OA
BRANCH  22  23
ATOM     23  C   UNL     1       1.001  -0.486   1.118  0.00  0.00    +0.229 C 
BRANCH  23  25
ATOM     24  C   UNL     1       0.483   1.539  -0.251  0.00  0.00    +0.007 C 
ATOM     25  C   UNL     1       0.215   0.042  -0.084  0.00  0.00    +0.038 C 
ENDBRANCH  23  25
ENDBRANCH  22  23
ENDBRANCH   1  22
BRANCH   2  26
ATOM     26  O   UNL     1       3.238  -2.998   0.893  0.00  0.00    -0.489 OA
BRANCH  26  27
ATOM     27  C   UNL     1       4.528  -3.598   0.767  0.00  0.00    +0.226 C 
ATOM     28  C   UNL     1       5.041  -3.410  -0.663  0.00  0.00    +0.048 C 
ENDBRANCH  26  27
ENDBRANCH   2  26
TORSDOF 8
