REMARK  Name = ZINC06193130
REMARK  15 active torsions:
REMARK  status: ('A' for Active; 'I' for Inactive)
REMARK    1  A    between atoms: C_1  and  C_2
REMARK    2  A    between atoms: C_2  and  N_69
REMARK    3  A    between atoms: C_3  and  C_4
REMARK    4  A    between atoms: C_3  and  N_69
REMARK    5  A    between atoms: C_5  and  C_6
REMARK    6  A    between atoms: C_5  and  N_69
REMARK    7  A    between atoms: C_6  and  C_7
REMARK    8  A    between atoms: C_7  and  N_8
REMARK    9  A    between atoms: N_8  and  C_9
REMARK   10  A    between atoms: C_9  and  N_11
REMARK   11  A    between atoms: N_11  and  C_12
REMARK   12  A    between atoms: N_11  and  C_27
REMARK   13  A    between atoms: C_12  and  C_13
REMARK   14  A    between atoms: C_17  and  C_26
REMARK   15  A    between atoms: C_19  and  C_25
REMARK                            x       y       z     vdW  Elec       q    Type
REMARK                         _______ _______ _______ _____ _____    ______ ____
ROOT
ATOM      1  N   UNL     1      -1.389   4.773  -3.427  0.00  0.00    -0.305 N 
ENDROOT
BRANCH   1   2
ATOM      2  C   UNL     1      -2.515   4.975  -4.343  0.00  0.00    +0.075 C 
ATOM      3  C   UNL     1      -2.019   4.947  -5.803  0.00  0.00    +0.022 C 
ATOM      4  C   UNL     1      -2.879   6.019  -6.517  0.00  0.00    +0.002 C 
ATOM      5  C   UNL     1      -2.995   7.133  -5.446  0.00  0.00    +0.002 C 
ATOM      6  C   UNL     1      -3.135   6.365  -4.116  0.00  0.00    +0.022 C 
ENDBRANCH   1   2
BRANCH   1   7
ATOM      7  C   UNL     1      -0.278   5.524  -3.549  0.00  0.00    +0.133 C 
ATOM      8  S   UNL     1       1.079   5.214  -2.552  0.00  0.00    -0.019 S 
BRANCH   7   9
ATOM      9  N   UNL     1      -0.234   6.521  -4.455  0.00  0.00    -0.326 N 
ATOM     10  H   UNL     1      -1.025   6.742  -4.971  0.00  0.00    +0.148 HD
BRANCH   9  11
ATOM     11  C   UNL     1       1.009   7.269  -4.662  0.00  0.00    +0.101 C 
BRANCH  11  12
ATOM     12  C   UNL     1       0.789   8.335  -5.737  0.00  0.00    +0.000 C 
BRANCH  12  13
ATOM     13  C   UNL     1       2.087   9.117  -5.952  0.00  0.00    -0.077 C 
BRANCH  13  14
ATOM     14  N   UNL     1       1.864  10.128  -7.008  0.00  0.00    +0.379 N 
ATOM     15  H   UNL     1       1.460   9.667  -7.831  0.00  0.00    -0.082 HD
BRANCH  14  17
ATOM     16  C   UNL     1       1.493  11.874  -5.298  0.00  0.00    -0.017 C 
ATOM     17  C   UNL     1       0.924  11.162  -6.527  0.00  0.00    -0.082 C 
ENDBRANCH  14  17
BRANCH  14  18
ATOM     18  C   UNL     1       3.149  10.751  -7.388  0.00  0.00    -0.082 C 
ATOM     19  C   UNL     1       2.941  11.570  -8.664  0.00  0.00    -0.017 C 
ENDBRANCH  14  18
ENDBRANCH  13  14
ENDBRANCH  12  13
ENDBRANCH  11  12
ENDBRANCH   9  11
ENDBRANCH   7   9
ENDBRANCH   1   7
BRANCH   1  20
ATOM     20  C   UNL     1      -1.473   3.753  -2.378  0.00  0.00    +0.147 C 
BRANCH  20  21
ATOM     21  C   UNL     1      -0.950   2.443  -2.909  0.00  0.00    +0.035 A 
ATOM     22  C   UNL     1       0.343   2.095  -2.694  0.00  0.00    +0.020 A 
ATOM     23  C   UNL     1       0.820   0.816  -3.222  0.00  0.00    -0.001 A 
ATOM     24  C   UNL     1       2.143   0.403  -3.034  0.00  0.00    +0.013 A 
ATOM     25  C   UNL     1       2.557  -0.796  -3.540  0.00  0.00    -0.050 A 
ATOM     26  C   UNL     1       1.676  -1.609  -4.240  0.00  0.00    +0.008 A 
ATOM     27  C   UNL     1       0.370  -1.221  -4.443  0.00  0.00    -0.026 A 
ATOM     28  C   UNL     1      -0.076  -0.006  -3.932  0.00  0.00    +0.052 A 
ATOM     29  N   UNL     1      -1.379   0.406  -4.116  0.00  0.00    -0.322 N 
ATOM     30  H   UNL     1      -2.014  -0.179  -4.620  0.00  0.00    +0.169 HD
ATOM     31  C   UNL     1      -1.808   1.583  -3.627  0.00  0.00    +0.254 A 
ATOM     32  O   UNL     1      -2.966   1.914  -3.808  0.00  0.00    -0.268 OA
ATOM     33  C   UNL     1      -0.574  -2.110  -5.210  0.00  0.00    +0.046 C 
ATOM     34  C   UNL     1       3.983  -1.241  -3.336  0.00  0.00    +0.044 C 
ENDBRANCH  20  21
ENDBRANCH   1  20
TORSDOF 11
