REMARK  Name = ZINC57731104
REMARK  7 active torsions:
REMARK  status: ('A' for Active; 'I' for Inactive)
REMARK    1  A    between atoms: C_1  and  N_2
REMARK    2  A    between atoms: N_2  and  C_3
REMARK    3  A    between atoms: C_4  and  C_6
REMARK    4  A    between atoms: C_6  and  C_7
REMARK    5  A    between atoms: C_10  and  N_13
REMARK    6  A    between atoms: N_16  and  C_17
REMARK    7  A    between atoms: C_17  and  C_18
REMARK                            x       y       z     vdW  Elec       q    Type
REMARK                         _______ _______ _______ _____ _____    ______ ____
ROOT
ATOM      1  N   UNL     1      -0.005  -4.041  -6.536  0.00  0.00    -0.269 N 
ATOM      2  C   UNL     1      -1.071  -3.806  -7.326  0.00  0.00    +0.304 C 
ATOM      3  O   UNL     1      -1.988  -3.118  -6.921  0.00  0.00    -0.252 OA
ATOM      4  N   UNL     1      -1.121  -4.335  -8.565  0.00  0.00    -0.295 N 
ATOM      5  H   UNL     1       0.760  -4.525  -6.885  0.00  0.00    +0.156 HD
ATOM      6  H   UNL     1      -0.390  -4.884  -8.888  0.00  0.00    +0.151 HD
ENDROOT
BRANCH   1  10
ATOM      7  C   UNL     1       0.006  -2.690  -2.595  0.00  0.00    -0.039 A 
ATOM      8  C   UNL     1      -1.179  -3.092  -3.183  0.00  0.00    +0.006 A 
ATOM      9  C   UNL     1      -1.186  -3.540  -4.490  0.00  0.00    +0.023 A 
ATOM     10  C   UNL     1      -0.001  -3.587  -5.212  0.00  0.00    +0.035 A 
ATOM     11  C   UNL     1       1.187  -3.183  -4.618  0.00  0.00    +0.023 A 
ATOM     12  C   UNL     1       1.186  -2.731  -3.313  0.00  0.00    +0.006 A 
BRANCH   7  13
ATOM     13  C   UNL     1       0.010  -2.202  -1.169  0.00  0.00    +0.131 C 
BRANCH  13  17
ATOM     14  C   UNL     1      -0.479   1.395   0.048  0.00  0.00    +0.131 C 
ATOM     15  N   UNL     1      -0.256  -0.053   0.027  0.00  0.00    -0.307 N 
ATOM     16  C   UNL     1      -0.073  -0.784   1.284  0.00  0.00    +0.131 C 
ATOM     17  C   UNL     1      -0.220  -0.713  -1.148  0.00  0.00    +0.219 C 
ATOM     18  O   UNL     1      -0.371  -0.107  -2.188  0.00  0.00    -0.275 OA
ENDBRANCH  13  17
ENDBRANCH   7  13
ENDBRANCH   1  10
BRANCH   4  19
ATOM     19  C   UNL     1      -2.280  -4.080  -9.424  0.00  0.00    +0.142 C 
BRANCH  19  20
ATOM     20  C   UNL     1      -2.090  -4.778 -10.745  0.00  0.00    -0.016 A 
ATOM     21  C   UNL     1      -1.663  -4.094 -11.817  0.00  0.00    +0.051 A 
ATOM     22  S   UNL     1      -1.599  -5.329 -13.101  0.00  0.00    -0.096 S 
ATOM     23  C   UNL     1      -2.146  -6.731 -12.162  0.00  0.00    +0.020 A 
ATOM     24  C   UNL     1      -2.361  -6.202 -10.870  0.00  0.00    -0.006 A 
ATOM     25  C   UNL     1      -2.808  -7.109  -9.880  0.00  0.00    +0.009 A 
ATOM     26  C   UNL     1      -3.010  -8.420 -10.179  0.00  0.00    +0.001 A 
ATOM     27  C   UNL     1      -2.787  -8.916 -11.456  0.00  0.00    +0.001 A 
ATOM     28  C   UNL     1      -2.359  -8.061 -12.453  0.00  0.00    +0.015 A 
ENDBRANCH  19  20
ENDBRANCH   4  19
TORSDOF 5
