REMARK  Name = ZINC13053432
REMARK  7 active torsions:
REMARK  status: ('A' for Active; 'I' for Inactive)
REMARK    1  A    between atoms: C_6  and  C_7
REMARK    2  A    between atoms: C_9  and  C_12
REMARK    3  A    between atoms: C_12  and  S_13
REMARK    4  A    between atoms: S_13  and  C_14
REMARK    5  A    between atoms: C_18  and  C_32
REMARK    6  A    between atoms: N_24  and  C_25
REMARK    7  A    between atoms: C_25  and  C_26
REMARK                            x       y       z     vdW  Elec       q    Type
REMARK                         _______ _______ _______ _____ _____    ______ ____
ROOT
ATOM      1  C   UNL     1      -1.716   0.816  -1.730  0.00  0.00    +0.173 A 
ATOM      2  N   UNL     1      -2.396   1.189  -2.786  0.00  0.00    -0.223 NA
ATOM      3  C   UNL     1      -2.142   2.361  -3.414  0.00  0.00    +0.080 A 
ATOM      4  C   UNL     1      -2.863   2.754  -4.545  0.00  0.00    +0.043 A 
ATOM      5  C   UNL     1      -2.567   3.965  -5.157  0.00  0.00    +0.065 A 
ATOM      6  C   UNL     1      -1.554   4.789  -4.649  0.00  0.00    +0.016 A 
ATOM      7  C   UNL     1      -0.842   4.415  -3.545  0.00  0.00    +0.016 A 
ATOM      8  C   UNL     1      -1.123   3.203  -2.915  0.00  0.00    +0.065 A 
ATOM      9  C   UNL     1      -0.381   2.762  -1.724  0.00  0.00    +0.262 A 
ATOM     10  O   UNL     1       0.507   3.443  -1.246  0.00  0.00    -0.267 OA
ATOM     11  N   UNL     1      -0.721   1.571  -1.179  0.00  0.00    -0.285 N 
ENDROOT
BRANCH   5  12
ATOM     12  C   UNL     1      -3.326   4.388  -6.354  0.00  0.00    +0.387 C 
ATOM     13  O   UNL     1      -4.205   3.678  -6.798  0.00  0.00    -0.241 OA
ATOM     14  O   UNL     1      -3.043   5.562  -6.951  0.00  0.00    -0.241 OA
ENDBRANCH   5  12
BRANCH   1  15
ATOM     15  S   UNL     1      -2.111  -0.730  -0.980  0.00  0.00    -0.078 S 
BRANCH  15  16
ATOM     16  C   UNL     1      -3.442  -1.280  -2.076  0.00  0.00    +0.176 C 
BRANCH  16  19
ATOM     17  C   UNL     1      -5.022  -4.178  -0.654  0.00  0.00    +0.202 A 
ATOM     18  N   UNL     1      -4.919  -2.834  -0.759  0.00  0.00    -0.191 NA
ATOM     19  C   UNL     1      -3.950  -2.621  -1.614  0.00  0.00    +0.238 A 
ATOM     20  O   UNL     1      -3.501  -3.818  -2.006  0.00  0.00    -0.337 OA
ATOM     21  N   UNL     1      -4.120  -4.698  -1.445  0.00  0.00    -0.056 NA
BRANCH  17  27
ATOM     22  C   UNL     1      -6.889  -4.234   0.998  0.00  0.00    +0.013 A 
ATOM     23  C   UNL     1      -7.782  -4.933   1.785  0.00  0.00    +0.021 A 
ATOM     24  C   UNL     1      -7.770  -6.317   1.787  0.00  0.00    +0.041 A 
ATOM     25  C   UNL     1      -6.867  -7.008   0.998  0.00  0.00    +0.021 A 
ATOM     26  C   UNL     1      -5.973  -6.318   0.204  0.00  0.00    +0.013 A 
ATOM     27  C   UNL     1      -5.981  -4.925   0.198  0.00  0.00    +0.023 A 
ATOM     28 CL   UNL     1      -8.892  -7.190   2.784  0.00  0.00    -0.084 Cl
ENDBRANCH  17  27
ENDBRANCH  16  19
ENDBRANCH  15  16
ENDBRANCH   1  15
BRANCH  11  29
ATOM     29  C   UNL     1      -0.013   1.086   0.008  0.00  0.00    +0.159 C 
BRANCH  29  30
ATOM     30  C   UNL     1      -0.729   1.579   1.267  0.00  0.00    +0.138 C 
ATOM     31  C   UNL     1       0.045   1.137   2.534  0.00  0.00    +0.035 C 
ATOM     32  C   UNL     1      -0.418   2.213   3.553  0.00  0.00    +0.031 C 
ATOM     33  C   UNL     1      -0.572   3.464   2.661  0.00  0.00    +0.160 C 
ATOM     34  O   UNL     1      -0.729   3.015   1.310  0.00  0.00    -0.375 OA
ENDBRANCH  29  30
ENDBRANCH  11  29
TORSDOF 7
