REMARK  Name = ZINC13175317
REMARK  13 active torsions:
REMARK  status: ('A' for Active; 'I' for Inactive)
REMARK    1  A    between atoms: C_1  and  C_2
REMARK    2  A    between atoms: C_4  and  C_38
REMARK    3  A    between atoms: C_5  and  N_9
REMARK    4  A    between atoms: C_6  and  C_8
REMARK    5  A    between atoms: C_10  and  C_12
REMARK    6  A    between atoms: C_12  and  S_13
REMARK    7  A    between atoms: S_13  and  C_14
REMARK    8  A    between atoms: C_15  and  C_36
REMARK    9  A    between atoms: C_16  and  C_28
REMARK   10  A    between atoms: C_21  and  C_25
REMARK   11  A    between atoms: C_21  and  C_26
REMARK   12  A    between atoms: C_31  and  O_34
REMARK   13  A    between atoms: O_34  and  C_35
REMARK                            x       y       z     vdW  Elec       q    Type
REMARK                         _______ _______ _______ _____ _____    ______ ____
ROOT
ATOM      1  C   UNL     1      -0.738  -8.847   2.096  0.00  0.00    +0.112 C 
ATOM      2  C   UNL     1      -0.734  -9.716   3.174  0.00  0.00    +0.073 C 
ATOM      3  C   UNL     1      -1.014 -11.180   2.887  0.00  0.00    +0.097 C 
ATOM      4  C   UNL     1      -1.270 -11.532   1.433  0.00  0.00    +0.029 C 
ATOM      5  C   UNL     1      -1.530 -12.803   1.087  0.00  0.00    +0.162 C 
ATOM      6  C   UNL     1      -1.788 -13.186  -0.347  0.00  0.00    +0.086 C 
ATOM      7  C   UNL     1      -2.413 -11.998  -1.083  0.00  0.00    -0.023 C 
ATOM      8  C   UNL     1      -1.473 -10.795  -0.972  0.00  0.00    +0.062 C 
ATOM      9  C   UNL     1      -1.226 -10.491   0.487  0.00  0.00    +0.050 C 
ATOM     10  N   UNL     1      -0.979  -9.257   0.850  0.00  0.00    -0.244 NA
ATOM     11  C   UNL     1      -3.762 -11.654  -0.448  0.00  0.00    +0.011 C 
ATOM     12  C   UNL     1      -2.615 -12.357  -2.557  0.00  0.00    +0.011 C 
ATOM     13  O   UNL     1      -1.561 -13.755   2.040  0.00  0.00    -0.292 OA
ENDROOT
BRANCH   3  14
ATOM     14  C   UNL     1       0.166 -11.988   3.361  0.00  0.00    -0.034 A 
ATOM     15  C   UNL     1       1.421 -11.752   2.831  0.00  0.00    +0.008 A 
ATOM     16  C   UNL     1       2.505 -12.491   3.264  0.00  0.00    +0.046 A 
ATOM     17  C   UNL     1       2.333 -13.470   4.232  0.00  0.00    +0.120 A 
ATOM     18  C   UNL     1       1.073 -13.704   4.763  0.00  0.00    +0.046 A 
ATOM     19  C   UNL     1      -0.006 -12.958   4.331  0.00  0.00    +0.008 A 
BRANCH  17  20
ATOM     20  O   UNL     1       3.398 -14.198   4.660  0.00  0.00    -0.495 OA
ATOM     21  C   UNL     1       3.147 -15.189   5.659  0.00  0.00    +0.277 C 
ENDBRANCH  17  20
ENDBRANCH   3  14
BRANCH   2  22
ATOM     22  C   UNL     1      -0.477  -9.253   4.504  0.00  0.00    +0.098 C 
ATOM     23  N   UNL     1      -0.273  -8.886   5.560  0.00  0.00    -0.191 NA
ENDBRANCH   2  22
BRANCH   1  24
ATOM     24  S   UNL     1      -0.418  -7.138   2.382  0.00  0.00    -0.096 S 
BRANCH  24  25
ATOM     25  C   UNL     1      -0.526  -6.390   0.733  0.00  0.00    +0.172 C 
BRANCH  25  27
ATOM     26  N   UNL     1      -0.299  -4.141  -0.272  0.00  0.00    -0.284 N 
ATOM     27  C   UNL     1      -0.270  -4.908   0.836  0.00  0.00    +0.227 C 
ATOM     28  O   UNL     1      -0.036  -4.407   1.915  0.00  0.00    -0.275 OA
ATOM     29  H   UNL     1      -0.421  -4.551  -1.143  0.00  0.00    +0.155 HD
BRANCH  26  34
ATOM     30  C   UNL     1       0.286   1.486   0.157  0.00  0.00    +0.044 C 
ATOM     31  C   UNL     1       0.130  -0.009   0.043  0.00  0.00    -0.050 A 
ATOM     32  C   UNL     1       1.121  -0.844   0.526  0.00  0.00    +0.008 A 
ATOM     33  C   UNL     1       0.982  -2.215   0.423  0.00  0.00    -0.029 A 
ATOM     34  C   UNL     1      -0.155  -2.753  -0.166  0.00  0.00    +0.039 A 
ATOM     35  C   UNL     1      -1.148  -1.911  -0.649  0.00  0.00    -0.029 A 
ATOM     36  C   UNL     1      -1.005  -0.542  -0.539  0.00  0.00    +0.008 A 
ATOM     37  C   UNL     1      -2.383  -2.491  -1.289  0.00  0.00    +0.045 C 
ATOM     38  C   UNL     1       2.062  -3.124   0.949  0.00  0.00    +0.045 C 
ENDBRANCH  26  34
ENDBRANCH  25  27
ENDBRANCH  24  25
ENDBRANCH   1  24
TORSDOF 7
