REMARK  Name = ZINC00719276
REMARK  13 active torsions:
REMARK  status: ('A' for Active; 'I' for Inactive)
REMARK    1  A    between atoms: C_1  and  C_2
REMARK    2  A    between atoms: C_4  and  N_23
REMARK    3  A    between atoms: C_5  and  C_20
REMARK    4  A    between atoms: C_6  and  S_9
REMARK    5  A    between atoms: C_7  and  O_8
REMARK    6  A    between atoms: S_9  and  C_12
REMARK    7  A    between atoms: C_15  and  O_18
REMARK    8  A    between atoms: O_18  and  C_19
REMARK    9  A    between atoms: C_20  and  C_21
REMARK   10  A    between atoms: C_20  and  C_22
REMARK   11  A    between atoms: C_24  and  C_26
REMARK   12  A    between atoms: C_29  and  O_32
REMARK   13  A    between atoms: O_32  and  C_33
REMARK                            x       y       z     vdW  Elec       q    Type
REMARK                         _______ _______ _______ _____ _____    ______ ____
ROOT
ATOM      1  C   UNL     1       0.308   3.156  -1.815  0.00  0.00    +0.047 C 
ATOM      2  C   UNL     1       1.391   2.638  -0.905  0.00  0.00    -0.005 A 
ATOM      3  C   UNL     1       2.716   2.738  -1.282  0.00  0.00    +0.030 A 
ATOM      4  C   UNL     1       3.714   2.261  -0.442  0.00  0.00    +0.039 A 
ATOM      5  C   UNL     1       3.379   1.684   0.776  0.00  0.00    +0.005 A 
ATOM      6  C   UNL     1       2.054   1.590   1.154  0.00  0.00    +0.140 A 
ATOM      7  C   UNL     1       1.057   2.062   0.312  0.00  0.00    +0.145 A 
ENDROOT
BRANCH   4   8
ATOM      8  N   UNL     1       5.058   2.362  -0.823  0.00  0.00    -0.281 N 
ATOM      9  C   UNL     1       5.386   2.411  -2.129  0.00  0.00    +0.248 C 
ATOM     10  O   UNL     1       4.514   2.386  -2.977  0.00  0.00    -0.270 OA
ATOM     11  H   UNL     1       5.753   2.397  -0.147  0.00  0.00    +0.155 HD
BRANCH   9  12
ATOM     12  C   UNL     1       6.803   2.494  -2.531  0.00  0.00    +0.037 A 
ATOM     13  C   UNL     1       7.807   2.529  -1.559  0.00  0.00    +0.016 A 
ATOM     14  C   UNL     1       9.128   2.602  -1.939  0.00  0.00    +0.046 A 
ATOM     15  C   UNL     1       9.465   2.652  -3.287  0.00  0.00    +0.120 A 
ATOM     16  C   UNL     1       8.470   2.623  -4.257  0.00  0.00    +0.046 A 
ATOM     17  C   UNL     1       7.146   2.545  -3.885  0.00  0.00    +0.016 A 
BRANCH  15  18
ATOM     18  O   UNL     1      10.768   2.728  -3.656  0.00  0.00    -0.495 OA
ATOM     19  C   UNL     1      11.739   2.753  -2.608  0.00  0.00    +0.277 C 
ENDBRANCH  15  18
ENDBRANCH   9  12
ENDBRANCH   4   8
BRANCH   6  20
ATOM     20  S   UNL     1       1.629   0.865   2.702  0.00  0.00    +0.029 S 
ATOM     21  O   UNL     1       2.629   1.267   3.628  0.00  0.00    -0.164 OA
ATOM     22  O   UNL     1       0.248   1.129   2.909  0.00  0.00    -0.164 OA
BRANCH  20  23
ATOM     23  C   UNL     1       1.786  -0.881   2.520  0.00  0.00    +0.094 A 
ATOM     24  C   UNL     1       0.700  -1.632   2.108  0.00  0.00    +0.031 A 
ATOM     25  C   UNL     1       0.822  -3.000   1.959  0.00  0.00    +0.047 A 
ATOM     26  C   UNL     1       2.031  -3.622   2.233  0.00  0.00    +0.120 A 
ATOM     27  C   UNL     1       3.117  -2.867   2.652  0.00  0.00    +0.047 A 
ATOM     28  C   UNL     1       2.992  -1.498   2.794  0.00  0.00    +0.031 A 
BRANCH  26  29
ATOM     29  O   UNL     1       2.152  -4.968   2.092  0.00  0.00    -0.495 OA
ATOM     30  C   UNL     1       0.992  -5.681   1.658  0.00  0.00    +0.277 C 
ENDBRANCH  26  29
ENDBRANCH  20  23
ENDBRANCH   6  20
BRANCH   5  31
ATOM     31  C   UNL     1       4.461   1.166   1.688  0.00  0.00    +0.017 C 
ATOM     32  C   UNL     1       5.375   0.218   0.908  0.00  0.00    +0.012 C 
ATOM     33  C   UNL     1       5.283   2.341   2.223  0.00  0.00    +0.012 C 
ENDBRANCH   5  31
BRANCH   7  34
ATOM     34  O   UNL     1      -0.247   1.965   0.682  0.00  0.00    -0.505 OA
ATOM     35  H   UNL     1      -0.676   1.145   0.401  0.00  0.00    +0.292 HD
ENDBRANCH   7  34
TORSDOF 8
