REMARK  Name = ZINC45818831
REMARK  7 active torsions:
REMARK  status: ('A' for Active; 'I' for Inactive)
REMARK    1  A    between atoms: C_10  and  C_11
REMARK    2  A    between atoms: C_11  and  C_12
REMARK    3  A    between atoms: N_14  and  C_15
REMARK    4  A    between atoms: C_15  and  C_16
REMARK    5  A    between atoms: N_18  and  N_19
REMARK    6  A    between atoms: C_20  and  C_22
REMARK    7  A    between atoms: C_22  and  C_23
REMARK                            x       y       z     vdW  Elec       q    Type
REMARK                         _______ _______ _______ _____ _____    ______ ____
ROOT
ATOM      1  C   UNL     1       8.132   2.341   2.970  0.00  0.00    +0.246 C 
ATOM      2  O   UNL     1       8.689   2.579   1.919  0.00  0.00    -0.273 OA
ATOM      3  N   UNL     1       8.669   2.769   4.129  0.00  0.00    -0.233 N 
ATOM      4  H   UNL     1       8.224   2.579   4.970  0.00  0.00    +0.173 HD
ENDROOT
BRANCH   3   5
ATOM      5  N   UNL     1       9.870   3.490   4.121  0.00  0.00    -0.234 N 
ATOM      6  C   UNL     1      10.407   3.918   5.280  0.00  0.00    +0.233 C 
ATOM      7  O   UNL     1       9.851   3.680   6.331  0.00  0.00    -0.274 OA
ATOM      8  H   UNL     1      10.316   3.680   3.280  0.00  0.00    +0.173 HD
BRANCH   6   9
ATOM      9  C   UNL     1      11.700   4.694   5.271  0.00  0.00    +0.133 C 
BRANCH   9  10
ATOM     10  C   UNL     1      12.081   5.051   6.684  0.00  0.00    -0.031 A 
ATOM     11  C   UNL     1      11.731   6.261   7.202  0.00  0.00    +0.005 A 
ATOM     12  C   UNL     1      12.075   6.610   8.506  0.00  0.00    +0.001 A 
ATOM     13  C   UNL     1      12.770   5.751   9.301  0.00  0.00    +0.008 A 
ATOM     14  C   UNL     1      13.149   4.493   8.802  0.00  0.00    -0.018 A 
ATOM     15  C   UNL     1      12.794   4.136   7.477  0.00  0.00    -0.014 A 
ATOM     16  C   UNL     1      13.167   2.876   6.980  0.00  0.00    +0.009 A 
ATOM     17  C   UNL     1      13.857   2.015   7.777  0.00  0.00    +0.001 A 
ATOM     18  C   UNL     1      14.200   2.364   9.082  0.00  0.00    +0.001 A 
ATOM     19  C   UNL     1      13.867   3.580   9.593  0.00  0.00    +0.008 A 
ENDBRANCH   9  10
ENDBRANCH   6   9
ENDBRANCH   3   5
BRANCH   1  20
ATOM     20  C   UNL     1       6.840   1.565   2.979  0.00  0.00    +0.201 C 
BRANCH  20  23
ATOM     21  C   UNL     1       5.341   0.519   1.367  0.00  0.00    +0.218 C 
ATOM     22  O   UNL     1       4.633   0.178   2.291  0.00  0.00    -0.275 OA
ATOM     23  N   UNL     1       6.469   1.218   1.605  0.00  0.00    -0.306 N 
ATOM     24  H   UNL     1       7.035   1.490   0.866  0.00  0.00    +0.149 HD
BRANCH  21  25
ATOM     25  C   UNL     1       4.960   0.161  -0.046  0.00  0.00    +0.131 C 
BRANCH  25  35
ATOM     26  C   UNL     1      -0.016   1.357   0.009  0.00  0.00    +0.001 A 
ATOM     27  C   UNL     1       1.169   2.091   0.002  0.00  0.00    +0.001 A 
ATOM     28  C   UNL     1       2.378   1.468  -0.013  0.00  0.00    +0.009 A 
ATOM     29  C   UNL     1       2.438   0.064  -0.021  0.00  0.00    -0.014 A 
ATOM     30  C   UNL     1       1.233  -0.683  -0.013  0.00  0.00    -0.018 A 
ATOM     31  C   UNL     1       0.002  -0.004   0.002  0.00  0.00    +0.008 A 
ATOM     32  C   UNL     1       1.292  -2.087  -0.021  0.00  0.00    +0.008 A 
ATOM     33  C   UNL     1       2.502  -2.709  -0.036  0.00  0.00    +0.001 A 
ATOM     34  C   UNL     1       3.687  -1.976  -0.043  0.00  0.00    +0.005 A 
ATOM     35  C   UNL     1       3.668  -0.615  -0.037  0.00  0.00    -0.031 A 
ENDBRANCH  25  35
ENDBRANCH  21  25
ENDBRANCH  20  23
ENDBRANCH   1  20
TORSDOF 7
