REMARK  Name = ZINC27165856
REMARK  8 active torsions:
REMARK  status: ('A' for Active; 'I' for Inactive)
REMARK    1  A    between atoms: C_1  and  C_2
REMARK    2  A    between atoms: C_2  and  O_3
REMARK    3  A    between atoms: O_3  and  C_4
REMARK    4  A    between atoms: C_9  and  N_10
REMARK    5  A    between atoms: C_11  and  C_13
REMARK    6  A    between atoms: C_13  and  C_14
REMARK    7  A    between atoms: C_14  and  N_15
REMARK    8  A    between atoms: C_29  and  C_32
REMARK                            x       y       z     vdW  Elec       q    Type
REMARK                         _______ _______ _______ _____ _____    ______ ____
ROOT
ATOM      1  N   UNL     1       2.542  -2.991  -2.648  0.00  0.00    -0.282 N 
ATOM      2  C   UNL     1       2.530  -2.324  -1.477  0.00  0.00    +0.219 C 
ATOM      3  O   UNL     1       2.555  -2.936  -0.430  0.00  0.00    -0.275 OA
ATOM      4  H   UNL     1       2.427  -2.443  -3.595  0.00  0.00    +0.155 HD
ENDROOT
BRANCH   1  10
ATOM      5  C   UNL     1       2.220  -5.129  -3.733  0.00  0.00    +0.142 A 
ATOM      6  C   UNL     1       2.378  -6.506  -3.736  0.00  0.00    +0.055 A 
ATOM      7  C   UNL     1       3.008  -7.130  -2.681  0.00  0.00    +0.001 A 
ATOM      8  C   UNL     1       3.497  -6.397  -1.607  0.00  0.00    +0.126 A 
ATOM      9  C   UNL     1       3.339  -5.014  -1.605  0.00  0.00    +0.073 A 
ATOM     10  C   UNL     1       2.700  -4.383  -2.659  0.00  0.00    +0.079 A 
ATOM     11  O   UNL     1       4.093  -7.208  -0.687  0.00  0.00    -0.488 OA
ATOM     12  C   UNL     1       3.648  -8.560  -0.889  0.00  0.00    +0.175 C 
ATOM     13  C   UNL     1       3.313  -8.589  -2.399  0.00  0.00    +0.083 C 
ATOM     14  C   UNL     1       2.401  -8.851  -0.052  0.00  0.00    +0.052 C 
BRANCH   5  15
ATOM     15  O   UNL     1       1.600  -4.509  -4.774  0.00  0.00    -0.490 OA
BRANCH  15  17
ATOM     16  C   UNL     1       0.470  -4.471  -6.909  0.00  0.00    +0.048 C 
ATOM     17  C   UNL     1       1.135  -5.339  -5.839  0.00  0.00    +0.226 C 
ENDBRANCH  15  17
ENDBRANCH   5  15
ENDBRANCH   1  10
BRANCH   2  18
ATOM     18  C   UNL     1       2.484  -0.818  -1.469  0.00  0.00    +0.118 C 
BRANCH  18  19
ATOM     19  C   UNL     1       2.479  -0.316  -0.023  0.00  0.00    +0.136 C 
BRANCH  19  20
ATOM     20  N   UNL     1       2.435   1.149  -0.015  0.00  0.00    -0.293 N 
ATOM     21  C   UNL     1       1.209   1.799  -0.003  0.00  0.00    +0.059 A 
ATOM     22  C   UNL     1       0.014   1.096   0.002  0.00  0.00    +0.027 A 
ATOM     23  C   UNL     1      -1.184   1.782   0.008  0.00  0.00    +0.002 A 
ATOM     24  C   UNL     1      -1.205   3.169   0.021  0.00  0.00    +0.001 A 
ATOM     25  C   UNL     1      -0.026   3.885   0.017  0.00  0.00    +0.015 A 
ATOM     26  C   UNL     1       1.190   3.204   0.004  0.00  0.00    +0.063 A 
ATOM     27  C   UNL     1       2.478   3.920  -0.001  0.00  0.00    +0.262 A 
ATOM     28  O   UNL     1       2.517   5.135   0.005  0.00  0.00    -0.267 OA
ATOM     29  N   UNL     1       3.615   3.191  -0.012  0.00  0.00    -0.274 N 
ATOM     30  H   UNL     1       4.592   3.696  -0.016  0.00  0.00    +0.173 HD
ATOM     31  C   UNL     1       3.582   1.849  -0.019  0.00  0.00    +0.330 A 
ATOM     32  O   UNL     1       4.635   1.241  -0.029  0.00  0.00    -0.246 OA
ENDBRANCH  19  20
ENDBRANCH  18  19
ENDBRANCH   2  18
TORSDOF 6
