REMARK  Name = ZINC14186286
REMARK  9 active torsions:
REMARK  status: ('A' for Active; 'I' for Inactive)
REMARK    1  A    between atoms: C_1  and  C_2
REMARK    2  A    between atoms: C_6  and  C_38
REMARK    3  A    between atoms: C_7  and  N_8
REMARK    4  A    between atoms: N_8  and  S_9
REMARK    5  A    between atoms: S_9  and  C_12
REMARK    6  A    between atoms: C_25  and  C_28
REMARK    7  A    between atoms: C_31  and  C_34
REMARK    8  A    between atoms: C_34  and  O_36
REMARK    9  A    between atoms: O_36  and  C_37
REMARK                            x       y       z     vdW  Elec       q    Type
REMARK                         _______ _______ _______ _____ _____    ______ ____
ROOT
ATOM      1  C   UNL     1      -3.375   8.537   0.447  0.00  0.00    +0.109 A 
ATOM      2  C   UNL     1      -3.761   8.763  -0.862  0.00  0.00    +0.030 A 
ATOM      3  C   UNL     1      -4.819   8.054  -1.395  0.00  0.00    +0.025 A 
ATOM      4  C   UNL     1      -5.490   7.118  -0.619  0.00  0.00    +0.031 A 
ATOM      5  C   UNL     1      -5.108   6.889   0.694  0.00  0.00    -0.018 A 
ATOM      6  C   UNL     1      -4.043   7.608   1.219  0.00  0.00    +0.034 A 
ATOM      7  C   UNL     1      -5.803   5.894   1.568  0.00  0.00    +0.049 C 
ATOM      8  C   UNL     1      -4.977   4.642   1.745  0.00  0.00    -0.023 C 
ATOM      9  C   UNL     1      -5.755   3.588   1.790  0.00  0.00    -0.030 C 
ATOM     10  C   UNL     1      -7.210   3.996   1.655  0.00  0.00    +0.033 C 
ATOM     11  C   UNL     1      -7.131   5.392   0.969  0.00  0.00    +0.029 C 
ATOM     12  C   UNL     1      -6.967   5.151  -0.534  0.00  0.00    +0.105 C 
ATOM     13  N   UNL     1      -6.559   6.406  -1.174  0.00  0.00    -0.336 N 
ATOM     14  H   UNL     1      -7.018   6.734  -1.963  0.00  0.00    +0.147 HD
ENDROOT
BRANCH  12  15
ATOM     15  C   UNL     1      -5.912   4.100  -0.765  0.00  0.00    -0.027 A 
ATOM     16  C   UNL     1      -4.592   4.476  -0.939  0.00  0.00    +0.006 A 
ATOM     17  C   UNL     1      -3.621   3.519  -1.150  0.00  0.00    +0.015 A 
ATOM     18  C   UNL     1      -3.974   2.168  -1.189  0.00  0.00    +0.059 A 
ATOM     19  C   UNL     1      -5.309   1.796  -1.019  0.00  0.00    +0.015 A 
ATOM     20  C   UNL     1      -6.268   2.764  -0.803  0.00  0.00    +0.006 A 
BRANCH  18  21
ATOM     21  C   UNL     1      -2.939   1.138  -1.415  0.00  0.00    +0.339 C 
ATOM     22  O   UNL     1      -1.779   1.465  -1.567  0.00  0.00    -0.245 OA
BRANCH  21  23
ATOM     23  O   UNL     1      -3.282  -0.165  -1.446  0.00  0.00    -0.464 OA
ATOM     24  C   UNL     1      -2.213  -1.122  -1.667  0.00  0.00    +0.280 C 
ENDBRANCH  21  23
ENDBRANCH  18  21
ENDBRANCH  12  15
BRANCH   1  25
ATOM     25  S   UNL     1      -2.026   9.440   1.133  0.00  0.00    +0.072 S 
ATOM     26  O   UNL     1      -1.442   8.607   2.125  0.00  0.00    -0.150 OA
ATOM     27  O   UNL     1      -1.283   9.954   0.036  0.00  0.00    -0.150 OA
BRANCH  25  28
ATOM     28  N   UNL     1      -2.663  10.746   1.926  0.00  0.00    -0.216 N 
ATOM     29  H   UNL     1      -2.512  11.642   1.585  0.00  0.00    +0.174 HD
BRANCH  28  36
ATOM     30  C   UNL     1      -5.487  11.049   1.752  0.00  0.00    +0.046 C 
ATOM     31  C   UNL     1      -4.801  10.697   3.046  0.00  0.00    -0.028 A 
ATOM     32  C   UNL     1      -5.545  10.506   4.194  0.00  0.00    +0.005 A 
ATOM     33  C   UNL     1      -4.915  10.188   5.383  0.00  0.00    +0.001 A 
ATOM     34  C   UNL     1      -3.540  10.055   5.427  0.00  0.00    +0.005 A 
ATOM     35  C   UNL     1      -2.790  10.239   4.282  0.00  0.00    -0.028 A 
ATOM     36  C   UNL     1      -3.419  10.559   3.086  0.00  0.00    +0.054 A 
ATOM     37  C   UNL     1      -1.290  10.095   4.331  0.00  0.00    +0.046 C 
ENDBRANCH  28  36
ENDBRANCH  25  28
ENDBRANCH   1  25
TORSDOF 6
