REMARK  Name = ZINC09805537
REMARK  8 active torsions:
REMARK  status: ('A' for Active; 'I' for Inactive)
REMARK    1  A    between atoms: C_1  and  C_2
REMARK    2  A    between atoms: C_5  and  N_9
REMARK    3  A    between atoms: C_6  and  C_8
REMARK    4  A    between atoms: C_10  and  C_12
REMARK    5  A    between atoms: C_12  and  C_13
REMARK    6  A    between atoms: N_17  and  C_30
REMARK    7  A    between atoms: N_20  and  N_21
REMARK    8  A    between atoms: C_22  and  C_24
REMARK                            x       y       z     vdW  Elec       q    Type
REMARK                         _______ _______ _______ _____ _____    ______ ____
ROOT
ATOM      1  C   UNL     1       5.997   3.038   0.282  0.00  0.00    +0.191 C 
ATOM      2  C   UNL     1       7.299   3.789   0.478  0.00  0.00    +0.248 C 
ATOM      3  O   UNL     1       7.601   4.500   1.413  0.00  0.00    -0.273 OA
ATOM      4  N   UNL     1       8.053   3.500  -0.601  0.00  0.00    -0.219 N 
ATOM      5  C   UNL     1       7.414   2.680  -1.444  0.00  0.00    +0.164 C 
ATOM      6  S   UNL     1       8.086   2.114  -2.913  0.00  0.00    -0.016 S 
ATOM      7  N   UNL     1       6.186   2.349  -1.006  0.00  0.00    -0.218 N 
ENDROOT
BRANCH   4   8
ATOM      8  C   UNL     1       9.345   3.999  -0.816  0.00  0.00    +0.043 A 
ATOM      9  C   UNL     1       9.572   5.369  -0.810  0.00  0.00    +0.024 A 
ATOM     10  C   UNL     1      10.848   5.856  -1.016  0.00  0.00    +0.002 A 
ATOM     11  C   UNL     1      11.896   4.983  -1.238  0.00  0.00    +0.000 A 
ATOM     12  C   UNL     1      11.672   3.618  -1.250  0.00  0.00    +0.002 A 
ATOM     13  C   UNL     1      10.400   3.124  -1.039  0.00  0.00    +0.024 A 
ENDBRANCH   4   8
BRANCH   7  14
ATOM     14  N   UNL     1       5.266   1.511  -1.650  0.00  0.00    -0.228 N 
ATOM     15  C   UNL     1       4.587   1.957  -2.725  0.00  0.00    +0.260 C 
ATOM     16  O   UNL     1       4.772   3.086  -3.137  0.00  0.00    -0.269 OA
ATOM     17  H   UNL     1       5.118   0.610  -1.322  0.00  0.00    +0.173 HD
BRANCH  15  18
ATOM     18  C   UNL     1       3.616   1.073  -3.405  0.00  0.00    +0.038 A 
ATOM     19  C   UNL     1       3.404  -0.226  -2.939  0.00  0.00    +0.013 A 
ATOM     20  C   UNL     1       2.493  -1.043  -3.574  0.00  0.00    +0.001 A 
ATOM     21  C   UNL     1       1.796  -0.582  -4.678  0.00  0.00    +0.000 A 
ATOM     22  C   UNL     1       2.006   0.702  -5.148  0.00  0.00    +0.001 A 
ATOM     23  C   UNL     1       2.911   1.532  -4.519  0.00  0.00    +0.013 A 
ENDBRANCH  15  18
ENDBRANCH   7  14
BRANCH   1  24
ATOM     24  C   UNL     1       4.820   4.012   0.204  0.00  0.00    +0.129 C 
BRANCH  24  26
ATOM     25  N   UNL     1       2.357   3.891   0.015  0.00  0.00    -0.285 N 
ATOM     26  C   UNL     1       3.533   3.237   0.097  0.00  0.00    +0.220 C 
ATOM     27  O   UNL     1       3.554   2.024   0.084  0.00  0.00    -0.275 OA
ATOM     28  H   UNL     1       2.344   4.858  -0.057  0.00  0.00    +0.155 HD
BRANCH  25  33
ATOM     29  C   UNL     1      -2.514   0.982   0.082  0.00  0.00    +0.044 C 
ATOM     30  C   UNL     1      -1.220   1.756   0.066  0.00  0.00    -0.050 A 
ATOM     31  C   UNL     1      -0.087   1.217   0.648  0.00  0.00    +0.005 A 
ATOM     32  C   UNL     1       1.101   1.921   0.630  0.00  0.00    +0.024 A 
ATOM     33  C   UNL     1       1.155   3.174   0.033  0.00  0.00    +0.036 A 
ATOM     34  C   UNL     1       0.014   3.715  -0.545  0.00  0.00    -0.029 A 
ATOM     35  C   UNL     1      -1.171   3.005  -0.524  0.00  0.00    +0.008 A 
ATOM     36  C   UNL     1       0.068   5.074  -1.193  0.00  0.00    +0.045 C 
ENDBRANCH  25  33
ENDBRANCH  24  26
ENDBRANCH   1  24
TORSDOF 6
