REMARK  Name = ZINC36202541
REMARK  12 active torsions:
REMARK  status: ('A' for Active; 'I' for Inactive)
REMARK    1  A    between atoms: C_1  and  C_2
REMARK    2  A    between atoms: C_5  and  C_7
REMARK    3  A    between atoms: C_7  and  N_8
REMARK    4  A    between atoms: N_8  and  C_9
REMARK    5  A    between atoms: N_8  and  C_17
REMARK    6  A    between atoms: C_9  and  C_10
REMARK    7  A    between atoms: C_10  and  N_11
REMARK    8  A    between atoms: C_17  and  C_18
REMARK    9  A    between atoms: C_21  and  C_23
REMARK   10  A    between atoms: C_23  and  C_24
REMARK   11  A    between atoms: C_23  and  C_31
REMARK   12  A    between atoms: C_23  and  O_38
REMARK                            x       y       z     vdW  Elec       q    Type
REMARK                         _______ _______ _______ _____ _____    ______ ____
ROOT
ATOM      1  C   UNL     1       0.957  -6.404  -1.307  0.00  0.00    +0.089 A 
ATOM      2  C   UNL     1       0.101  -7.380  -1.660  0.00  0.00    +0.043 A 
ATOM      3  C   UNL     1      -0.188  -8.115  -0.488  0.00  0.00    +0.048 A 
ATOM      4  C   UNL     1       0.510  -7.546   0.511  0.00  0.00    +0.146 A 
ATOM      5  O   UNL     1       1.206  -6.513   0.008  0.00  0.00    -0.463 OA
ENDROOT
BRANCH   1   6
ATOM      6  C   UNL     1       1.543  -5.369  -2.232  0.00  0.00    -0.003 C 
BRANCH   6   7
ATOM      7  N   UNL     1       0.669  -4.188  -2.262  0.00  0.00    +0.390 N 
ATOM      8  H   UNL     1      -0.267  -4.469  -2.514  0.00  0.00    -0.081 HD
BRANCH   7   9
ATOM      9  C   UNL     1       0.652  -3.559  -0.935  0.00  0.00    -0.003 C 
BRANCH   9  14
ATOM     10  C   UNL     1      -1.315   1.076  -1.238  0.00  0.00    +0.086 C 
ATOM     11  C   UNL     1      -1.203  -0.416  -1.059  0.00  0.00    +0.102 A 
ATOM     12  C   UNL     1      -2.220  -1.254  -0.788  0.00  0.00    +0.044 A 
ATOM     13  C   UNL     1      -1.669  -2.553  -0.704  0.00  0.00    +0.043 A 
ATOM     14  C   UNL     1      -0.348  -2.431  -0.927  0.00  0.00    +0.089 A 
ATOM     15  O   UNL     1      -0.073  -1.135  -1.148  0.00  0.00    -0.467 OA
ENDBRANCH   9  14
ENDBRANCH   7   9
BRANCH   7  16
ATOM     16  C   UNL     1       1.176  -3.229  -3.253  0.00  0.00    -0.062 C 
BRANCH  16  17
ATOM     17  C   UNL     1       1.057  -3.833  -4.654  0.00  0.00    +0.066 C 
BRANCH  17  18
ATOM     18  N   UNL     1       1.449  -2.830  -5.654  0.00  0.00    -0.300 NA
ATOM     19  C   UNL     1       0.495  -1.711  -5.680  0.00  0.00    +0.112 C 
ATOM     20  C   UNL     1       0.972  -0.664  -6.690  0.00  0.00    +0.175 C 
ATOM     21  O   UNL     1       1.120  -1.280  -7.972  0.00  0.00    -0.377 OA
ATOM     22  C   UNL     1       2.042  -2.373  -7.984  0.00  0.00    +0.175 C 
ATOM     23  C   UNL     1       1.576  -3.437  -6.987  0.00  0.00    +0.112 C 
ENDBRANCH  17  18
ENDBRANCH  16  17
ENDBRANCH   7  16
ENDBRANCH   6   7
ENDBRANCH   1   6
BRANCH   4  24
ATOM     24  C   UNL     1       0.514  -7.993   1.950  0.00  0.00    +0.174 C 
BRANCH  24  25
ATOM     25  C   UNL     1       1.847  -7.668   2.574  0.00  0.00    -0.002 A 
ATOM     26  C   UNL     1       2.689  -8.688   2.977  0.00  0.00    +0.007 A 
ATOM     27  C   UNL     1       3.912  -8.392   3.549  0.00  0.00    +0.003 A 
ATOM     28  C   UNL     1       4.295  -7.075   3.718  0.00  0.00    +0.038 A 
ATOM     29  C   UNL     1       3.453  -6.052   3.315  0.00  0.00    +0.124 A 
ATOM     30  C   UNL     1       2.231  -6.351   2.737  0.00  0.00    +0.045 A 
ATOM     31  F   UNL     1       3.826  -4.764   3.481  0.00  0.00    -0.205 F 
ENDBRANCH  24  25
BRANCH  24  32
ATOM     32  C   UNL     1      -0.579  -7.279   2.702  0.00  0.00    -0.002 A 
ATOM     33  C   UNL     1      -0.821  -5.939   2.461  0.00  0.00    +0.007 A 
ATOM     34  C   UNL     1      -1.824  -5.282   3.150  0.00  0.00    +0.003 A 
ATOM     35  C   UNL     1      -2.585  -5.964   4.080  0.00  0.00    +0.038 A 
ATOM     36  C   UNL     1      -2.344  -7.306   4.322  0.00  0.00    +0.124 A 
ATOM     37  C   UNL     1      -1.343  -7.964   3.627  0.00  0.00    +0.045 A 
ATOM     38  F   UNL     1      -3.087  -7.973   5.232  0.00  0.00    -0.205 F 
ENDBRANCH  24  32
BRANCH  24  39
ATOM     39  O   UNL     1       0.291  -9.403   2.011  0.00  0.00    -0.372 OA
ATOM     40  H   UNL     1       0.958  -9.928   1.548  0.00  0.00    +0.212 HD
ENDBRANCH  24  39
ENDBRANCH   4  24
TORSDOF 11
