REMARK  Name = ZINC06332829
REMARK  7 active torsions:
REMARK  status: ('A' for Active; 'I' for Inactive)
REMARK    1  A    between atoms: CZ_3  and  OH_21
REMARK    2  A    between atoms: CG_6  and  CB_7
REMARK    3  A    between atoms: CB_7  and  CA_8
REMARK    4  A    between atoms: CA_8  and  C_10
REMARK    5  A    between atoms: CA_8  and  N_39
REMARK    6  A    between atoms: C_12  and  N_39
REMARK    7  A    between atoms: C_18  and  O_20
REMARK                            x       y       z     vdW  Elec       q    Type
REMARK                         _______ _______ _______ _____ _____    ______ ____
ROOT
ATOM      1  CA  TYR A   1       1.279   2.109   0.001  0.00  0.00    +0.048 C 
ENDROOT
BRANCH   1   2
ATOM      2  C   TYR A   1      -0.016   1.338   0.009  0.00  0.00    +0.343 C 
ATOM      3  O   TYR A   1      -1.071   1.928   0.018  0.00  0.00    -0.248 OA
ATOM      4  OXT TYR A   1       0.002  -0.004   0.002  0.00  0.00    -0.248 OA
ENDBRANCH   1   2
BRANCH   1   5
ATOM      5  N   TYR A   1       0.990   3.556   0.021  0.00  0.00    +0.392 N 
ATOM      6  H1  TYR A   1       1.789   4.055   0.429  0.00  0.00    -0.084 HD
ATOM      7  H2  TYR A   1       0.153   3.727   0.589  0.00  0.00    -0.084 HD
BRANCH   5   8
ATOM      8  C   UNK A   0       0.757   4.050  -1.350  0.00  0.00    -0.042 C 
ATOM      9  C   UNK A   0      -0.708   3.826  -1.731  0.00  0.00    -0.013 C 
ATOM     10  C   UNK A   0      -0.951   4.347  -3.149  0.00  0.00    -0.001 C 
ATOM     11  C   UNK A   0      -0.632   5.843  -3.205  0.00  0.00    +0.002 C 
ATOM     12  C   UNK A   0       0.833   6.066  -2.823  0.00  0.00    +0.030 C 
ATOM     13  C   UNK A   0       1.076   5.545  -1.405  0.00  0.00    +0.101 C 
BRANCH  13  14
ATOM     14  O   UNK A   0       2.444   5.754  -1.049  0.00  0.00    -0.393 OA
ATOM     15  H   UNK A   0       2.717   6.681  -1.063  0.00  0.00    +0.210 HD
ENDBRANCH  13  14
ENDBRANCH   5   8
ENDBRANCH   1   5
BRANCH   1  16
ATOM     16  CB  TYR A   1       2.098   1.744   1.241  0.00  0.00    +0.030 C 
BRANCH  16  22
ATOM     17  CD1 TYR A   1       4.508   1.777   0.568  0.00  0.00    +0.007 A 
ATOM     18  CE1 TYR A   1       5.741   2.397   0.498  0.00  0.00    +0.045 A 
ATOM     19  CZ  TYR A   1       5.912   3.661   1.044  0.00  0.00    +0.117 A 
ATOM     20  CE2 TYR A   1       4.843   4.301   1.653  0.00  0.00    +0.045 A 
ATOM     21  CD2 TYR A   1       3.611   3.680   1.715  0.00  0.00    +0.007 A 
ATOM     22  CG  TYR A   1       3.443   2.420   1.171  0.00  0.00    -0.048 A 
BRANCH  19  23
ATOM     23  OH  TYR A   1       7.125   4.270   0.982  0.00  0.00    -0.507 OA
ATOM     24  HH  TYR A   1       7.699   4.082   1.737  0.00  0.00    +0.292 HD
ENDBRANCH  19  23
ENDBRANCH  16  22
ENDBRANCH   1  16
TORSDOF 7
