REMARK  Name = ZINC31174358
REMARK  8 active torsions:
REMARK  status: ('A' for Active; 'I' for Inactive)
REMARK    1  A    between atoms: C_1  and  C_2
REMARK    2  A    between atoms: C_2  and  N_3
REMARK    3  A    between atoms: N_3  and  C_4
REMARK    4  A    between atoms: N_3  and  C_16
REMARK    5  A    between atoms: C_4  and  C_5
REMARK    6  A    between atoms: C_16  and  C_17
REMARK    7  A    between atoms: N_19  and  N_20
REMARK    8  A    between atoms: C_26  and  C_29
REMARK                            x       y       z     vdW  Elec       q    Type
REMARK                         _______ _______ _______ _____ _____    ______ ____
ROOT
ATOM      1  C   UNL     1       0.398  10.050   2.022  0.00  0.00    +0.213 C 
ATOM      2  O   UNL     1       1.098   9.339   2.712  0.00  0.00    -0.276 OA
ATOM      3  N   UNL     1       0.292  11.364   2.299  0.00  0.00    -0.225 N 
ATOM      4  H   UNL     1      -0.343  12.009   1.672  0.00  0.00    +0.173 HD
ENDROOT
BRANCH   3   5
ATOM      5  N   UNL     1       0.988  11.910   3.385  0.00  0.00    -0.137 N 
ATOM      6  C   UNL     1       0.414  12.268   4.552  0.00  0.00    +0.263 C 
ATOM      7  O   UNL     1      -0.758  12.180   4.850  0.00  0.00    -0.271 OA
ATOM      8  C   UNL     1       1.539  12.797   5.410  0.00  0.00    +0.114 C 
ATOM      9  C   UNL     1       1.287  14.257   5.771  0.00  0.00    +0.035 C 
ATOM     10  C   UNL     1       0.027  14.362   6.633  0.00  0.00    +0.006 C 
ATOM     11  C   UNL     1       0.209  13.530   7.904  0.00  0.00    -0.014 C 
ATOM     12  C   UNL     1       0.437  12.065   7.527  0.00  0.00    +0.006 C 
ATOM     13  C   UNL     1       1.698  11.950   6.668  0.00  0.00    +0.035 C 
ATOM     14  C   UNL     1      -1.045  13.644   8.773  0.00  0.00    +0.007 C 
ATOM     15  N   UNL     1       2.727  12.676   4.556  0.00  0.00    -0.284 N 
ATOM     16  C   UNL     1       2.306  12.148   3.391  0.00  0.00    +0.326 C 
ATOM     17  O   UNL     1       3.039  11.912   2.451  0.00  0.00    -0.251 OA
ATOM     18  H   UNL     1       3.710  12.998   4.931  0.00  0.00    +0.151 HD
ENDBRANCH   3   5
BRANCH   1  19
ATOM     19  C   UNL     1      -0.351   9.463   0.854  0.00  0.00    +0.020 C 
BRANCH  19  20
ATOM     20  N   UNL     1      -0.139   8.009   0.816  0.00  0.00    +0.388 N 
ATOM     21  H   UNL     1      -0.267   7.623   1.838  0.00  0.00    -0.081 HD
BRANCH  20  23
ATOM     22  C   UNL     1       1.453   8.231  -1.032  0.00  0.00    -0.017 C 
ATOM     23  C   UNL     1       1.227   7.688   0.380  0.00  0.00    -0.081 C 
ENDBRANCH  20  23
BRANCH  20  24
ATOM     24  C   UNL     1      -1.133   7.354  -0.043  0.00  0.00    -0.030 C 
BRANCH  24  25
ATOM     25  C   UNL     1      -1.235   5.874   0.331  0.00  0.00    +0.195 C 
ATOM     26  C   UNL     1      -2.389   5.222  -0.443  0.00  0.00    +0.271 C 
ATOM     27  O   UNL     1      -2.446   3.838  -0.080  0.00  0.00    -0.485 OA
ATOM     28  C   UNL     1      -1.266   3.160  -0.065  0.00  0.00    +0.162 A 
ATOM     29  C   UNL     1      -1.277   1.774  -0.087  0.00  0.00    +0.049 A 
ATOM     30  C   UNL     1      -0.087   1.071  -0.063  0.00  0.00    +0.004 A 
ATOM     31  C   UNL     1       1.117   1.749  -0.027  0.00  0.00    +0.004 A 
ATOM     32  C   UNL     1       1.136   3.130  -0.011  0.00  0.00    +0.049 A 
ATOM     33  C   UNL     1      -0.055   3.841  -0.031  0.00  0.00    +0.162 A 
ATOM     34  O   UNL     1      -0.021   5.202  -0.022  0.00  0.00    -0.484 OA
ENDBRANCH  24  25
ENDBRANCH  20  24
ENDBRANCH  19  20
ENDBRANCH   1  19
TORSDOF 6
