REMARK  Name = ZINC45457631
REMARK  15 active torsions:
REMARK  status: ('A' for Active; 'I' for Inactive)
REMARK    1  A    between atoms: C_1  and  C_2
REMARK    2  A    between atoms: C_4  and  C_31
REMARK    3  A    between atoms: C_6  and  S_9
REMARK    4  A    between atoms: C_7  and  C_8
REMARK    5  A    between atoms: S_9  and  N_12
REMARK    6  A    between atoms: N_12  and  C_13
REMARK    7  A    between atoms: C_16  and  C_19
REMARK    8  A    between atoms: N_21  and  N_22
REMARK    9  A    between atoms: C_23  and  C_25
REMARK   10  A    between atoms: N_27  and  C_28
REMARK   11  A    between atoms: C_28  and  C_29
REMARK   12  A    between atoms: C_28  and  C_30
REMARK   13  A    between atoms: C_31  and  C_32
REMARK   14  A    between atoms: C_31  and  C_33
REMARK   15  A    between atoms: C_31  and  C_34
REMARK                            x       y       z     vdW  Elec       q    Type
REMARK                         _______ _______ _______ _____ _____    ______ ____
ROOT
ATOM      1  C   UNL     1       1.606  -1.151   3.852  0.00  0.00    +0.048 A 
ATOM      2  C   UNL     1       1.281  -0.096   3.003  0.00  0.00    +0.025 A 
ATOM      3  C   UNL     1       1.416   1.203   3.436  0.00  0.00    +0.015 A 
ATOM      4  C   UNL     1       1.878   1.464   4.729  0.00  0.00    +0.038 A 
ATOM      5  C   UNL     1       2.203   0.402   5.579  0.00  0.00    +0.015 A 
ATOM      6  C   UNL     1       2.061  -0.895   5.142  0.00  0.00    +0.025 A 
ENDROOT
BRANCH   4   7
ATOM      7  C   UNL     1       2.023   2.855   5.196  0.00  0.00    +0.260 C 
ATOM      8  O   UNL     1       1.741   3.778   4.455  0.00  0.00    -0.269 OA
ATOM      9  N   UNL     1       2.469   3.105   6.443  0.00  0.00    -0.230 N 
ATOM     10  H   UNL     1       2.695   2.369   7.034  0.00  0.00    +0.173 HD
BRANCH   9  11
ATOM     11  N   UNL     1       2.607   4.427   6.886  0.00  0.00    -0.226 N 
ATOM     12  C   UNL     1       3.053   4.676   8.133  0.00  0.00    +0.315 C 
ATOM     13  O   UNL     1       3.335   3.756   8.872  0.00  0.00    -0.264 OA
ATOM     14  H   UNL     1       2.382   5.162   6.295  0.00  0.00    +0.173 HD
BRANCH  12  15
ATOM     15  C   UNL     1       3.200   6.086   8.606  0.00  0.00    +0.301 C 
ATOM     16  O   UNL     1       2.919   7.006   7.867  0.00  0.00    -0.265 OA
ATOM     17  N   UNL     1       3.646   6.336   9.853  0.00  0.00    -0.305 N 
ATOM     18  H   UNL     1       3.872   5.600  10.444  0.00  0.00    +0.149 HD
BRANCH  17  19
ATOM     19  C   UNL     1       3.791   7.718  10.317  0.00  0.00    +0.067 C 
ATOM     20  C   UNL     1       3.693   7.757  11.843  0.00  0.00    +0.027 C 
ATOM     21  C   UNL     1       5.152   8.263   9.879  0.00  0.00    +0.027 C 
ENDBRANCH  17  19
ENDBRANCH  12  15
ENDBRANCH   9  11
ENDBRANCH   4   7
BRANCH   1  22
ATOM     22  N   UNL     1       1.469  -2.463   3.412  0.00  0.00    -0.216 N 
ATOM     23  H   UNL     1       2.180  -3.104   3.569  0.00  0.00    +0.174 HD
BRANCH  22  24
ATOM     24  S   UNL     1       0.093  -2.931   2.619  0.00  0.00    +0.073 S 
ATOM     25  O   UNL     1       0.207  -4.330   2.399  0.00  0.00    -0.150 OA
ATOM     26  O   UNL     1      -0.099  -2.006   1.557  0.00  0.00    -0.150 OA
BRANCH  24  32
ATOM     27  C   UNL     1      -2.476  -4.116   7.014  0.00  0.00    +0.044 C 
ATOM     28  C   UNL     1      -2.389  -3.287   5.758  0.00  0.00    -0.045 A 
ATOM     29  C   UNL     1      -3.366  -2.349   5.480  0.00  0.00    +0.008 A 
ATOM     30  C   UNL     1      -3.286  -1.589   4.329  0.00  0.00    -0.040 A 
ATOM     31  C   UNL     1      -2.230  -1.766   3.455  0.00  0.00    +0.033 A 
ATOM     32  C   UNL     1      -1.253  -2.704   3.733  0.00  0.00    +0.112 A 
ATOM     33  C   UNL     1      -1.331  -3.461   4.887  0.00  0.00    -0.021 A 
ATOM     34  C   UNL     1      -0.263  -4.480   5.193  0.00  0.00    +0.046 C 
BRANCH  30  35
ATOM     35  C   UNL     1      -4.351  -0.566   4.025  0.00  0.00    -0.013 C 
ATOM     36  C   UNL     1      -5.396  -0.571   5.143  0.00  0.00    +0.015 C 
ATOM     37  C   UNL     1      -3.714   0.821   3.929  0.00  0.00    +0.015 C 
ATOM     38  C   UNL     1      -5.025  -0.911   2.696  0.00  0.00    +0.015 C 
ENDBRANCH  30  35
ENDBRANCH  24  32
ENDBRANCH  22  24
ENDBRANCH   1  22
TORSDOF 8
