REMARK  Name = ZINC00647353
REMARK  11 active torsions:
REMARK  status: ('A' for Active; 'I' for Inactive)
REMARK    1  A    between atoms: C_1  and  C_2
REMARK    2  A    between atoms: C_5  and  S_9
REMARK    3  A    between atoms: C_6  and  C_8
REMARK    4  A    between atoms: S_9  and  N_12
REMARK    5  A    between atoms: N_12  and  C_13
REMARK    6  A    between atoms: N_21  and  S_22
REMARK    7  A    between atoms: S_22  and  C_25
REMARK    8  A    between atoms: C_28  and  C_32
REMARK    9  A    between atoms: C_30  and  C_31
REMARK   10  A    between atoms: C_34  and  C_38
REMARK   11  A    between atoms: C_34  and  C_39
REMARK                            x       y       z     vdW  Elec       q    Type
REMARK                         _______ _______ _______ _____ _____    ______ ____
ROOT
ATOM      1  C   UNL     1       3.655   3.015  -0.949  0.00  0.00    +0.049 A 
ATOM      2  C   UNL     1       4.708   3.602  -0.251  0.00  0.00    +0.026 A 
ATOM      3  C   UNL     1       5.287   4.765  -0.708  0.00  0.00    +0.030 A 
ATOM      4  C   UNL     1       4.822   5.365  -1.873  0.00  0.00    +0.073 A 
ATOM      5  C   UNL     1       3.760   4.774  -2.581  0.00  0.00    +0.014 A 
ATOM      6  C   UNL     1       3.185   3.595  -2.114  0.00  0.00    +0.035 A 
ATOM      7  C   UNL     1       3.526   5.645  -3.735  0.00  0.00    +0.048 A 
ATOM      8  C   UNL     1       4.442   6.684  -3.643  0.00  0.00    +0.055 A 
ATOM      9  N   UNL     1       5.200   6.511  -2.554  0.00  0.00    -0.214 N 
ATOM     10  C   UNL     1       4.490   7.797  -4.665  0.00  0.00    +0.062 C 
ATOM     11  C   UNL     1       3.093   7.935  -5.282  0.00  0.00    -0.022 C 
ATOM     12  C   UNL     1       2.634   6.602  -5.872  0.00  0.00    +0.086 C 
ATOM     13  C   UNL     1       2.589   5.544  -4.790  0.00  0.00    +0.166 C 
ATOM     14  O   UNL     1       1.778   4.641  -4.827  0.00  0.00    -0.292 OA
ATOM     15  C   UNL     1       2.104   8.376  -4.201  0.00  0.00    +0.011 C 
ATOM     16  C   UNL     1       3.132   8.990  -6.389  0.00  0.00    +0.011 C 
ENDROOT
BRANCH   9  17
ATOM     17  S   UNL     1       6.422   7.525  -2.086  0.00  0.00    +0.085 S 
ATOM     18  O   UNL     1       6.209   8.757  -2.762  0.00  0.00    -0.148 OA
ATOM     19  O   UNL     1       6.503   7.437  -0.670  0.00  0.00    -0.148 OA
BRANCH  17  20
ATOM     20  C   UNL     1       7.925   6.857  -2.719  0.00  0.00    +0.114 A 
ATOM     21  C   UNL     1       8.499   5.753  -2.116  0.00  0.00    +0.029 A 
ATOM     22  C   UNL     1       9.675   5.227  -2.614  0.00  0.00    +0.005 A 
ATOM     23  C   UNL     1      10.284   5.809  -3.711  0.00  0.00    -0.050 A 
ATOM     24  C   UNL     1       9.713   6.916  -4.310  0.00  0.00    +0.008 A 
ATOM     25  C   UNL     1       8.534   7.440  -3.814  0.00  0.00    -0.023 A 
ATOM     26  C   UNL     1       7.912   8.647  -4.468  0.00  0.00    +0.046 C 
ATOM     27  C   UNL     1      11.569   5.238  -4.251  0.00  0.00    +0.044 C 
ENDBRANCH  17  20
ENDBRANCH   9  17
BRANCH   1  28
ATOM     28  N   UNL     1       3.076   1.833  -0.474  0.00  0.00    -0.216 N 
ATOM     29  H   UNL     1       2.903   1.099  -1.084  0.00  0.00    +0.174 HD
BRANCH  28  30
ATOM     30  S   UNL     1       2.685   1.689   1.128  0.00  0.00    +0.073 S 
ATOM     31  O   UNL     1       3.854   2.022   1.863  0.00  0.00    -0.150 OA
ATOM     32  O   UNL     1       2.024   0.439   1.274  0.00  0.00    -0.150 OA
BRANCH  30  37
ATOM     33  C   UNL     1      -1.402   5.953   2.362  0.00  0.00    +0.044 C 
ATOM     34  C   UNL     1      -0.381   4.888   2.054  0.00  0.00    -0.050 A 
ATOM     35  C   UNL     1       0.873   4.944   2.633  0.00  0.00    +0.005 A 
ATOM     36  C   UNL     1       1.811   3.970   2.346  0.00  0.00    +0.029 A 
ATOM     37  C   UNL     1       1.492   2.934   1.488  0.00  0.00    +0.111 A 
ATOM     38  C   UNL     1       0.236   2.875   0.913  0.00  0.00    -0.024 A 
ATOM     39  C   UNL     1      -0.700   3.852   1.195  0.00  0.00    +0.008 A 
ATOM     40  C   UNL     1      -0.112   1.746  -0.022  0.00  0.00    +0.046 C 
ENDBRANCH  30  37
ENDBRANCH  28  30
ENDBRANCH   1  28
TORSDOF 5
