REMARK  Name = ZINC38905111
REMARK  9 active torsions:
REMARK  status: ('A' for Active; 'I' for Inactive)
REMARK    1  A    between atoms: C_1  and  C_2
REMARK    2  A    between atoms: C_2  and  O_3
REMARK    3  A    between atoms: O_3  and  C_4
REMARK    4  A    between atoms: C_4  and  C_6
REMARK    5  A    between atoms: C_11  and  N_12
REMARK    6  A    between atoms: C_13  and  C_15
REMARK    7  A    between atoms: N_20  and  C_22
REMARK    8  A    between atoms: C_22  and  C_23
REMARK    9  A    between atoms: C_25  and  C_28
REMARK                            x       y       z     vdW  Elec       q    Type
REMARK                         _______ _______ _______ _____ _____    ______ ____
ROOT
ATOM      1  C   UNL     1      -1.043  -7.007  -0.394  0.00  0.00    +0.059 C 
ATOM      2  C   UNL     1      -0.329  -6.955   0.960  0.00  0.00    +0.009 C 
ATOM      3  C   UNL     1       0.795  -7.995   0.973  0.00  0.00    -0.018 C 
ATOM      4  C   UNL     1       0.207  -9.377   0.680  0.00  0.00    -0.078 C 
ATOM      5  N   UNL     1      -0.438  -9.369  -0.639  0.00  0.00    +0.386 N 
ATOM      6  C   UNL     1      -1.562  -8.425  -0.638  0.00  0.00    -0.065 C 
ATOM      7  H   UNL     1       0.233  -9.089  -1.339  0.00  0.00    -0.081 HD
ENDROOT
BRANCH   1   9
ATOM      8  N   UNL     1      -1.980  -4.727  -0.190  0.00  0.00    -0.285 N 
ATOM      9  C   UNL     1      -2.200  -6.041  -0.390  0.00  0.00    +0.219 C 
ATOM     10  O   UNL     1      -3.329  -6.447  -0.567  0.00  0.00    -0.275 OA
ATOM     11  H   UNL     1      -1.072  -4.391  -0.125  0.00  0.00    +0.155 HD
BRANCH   8  17
ATOM     12  C   UNL     1      -2.956  -2.543  -0.578  0.00  0.00    +0.080 A 
ATOM     13  C   UNL     1      -4.045  -1.675  -0.463  0.00  0.00    +0.017 A 
ATOM     14  C   UNL     1      -5.205  -2.104   0.145  0.00  0.00    +0.001 A 
ATOM     15  C   UNL     1      -5.298  -3.394   0.644  0.00  0.00    +0.002 A 
ATOM     16  C   UNL     1      -4.230  -4.263   0.538  0.00  0.00    +0.024 A 
ATOM     17  C   UNL     1      -3.056  -3.850  -0.076  0.00  0.00    +0.047 A 
BRANCH  12  18
ATOM     18  C   UNL     1      -1.713  -2.091  -1.227  0.00  0.00    +0.341 C 
ATOM     19  O   UNL     1      -0.740  -2.818  -1.250  0.00  0.00    -0.245 OA
BRANCH  18  20
ATOM     20  O   UNL     1      -1.655  -0.870  -1.796  0.00  0.00    -0.461 OA
BRANCH  20  22
ATOM     21  C   UNL     1      -0.544   0.910  -2.994  0.00  0.00    +0.048 C 
ATOM     22  C   UNL     1      -0.419  -0.497  -2.407  0.00  0.00    +0.229 C 
ENDBRANCH  20  22
ENDBRANCH  18  20
ENDBRANCH  12  18
ENDBRANCH   8  17
ENDBRANCH   1   9
BRANCH   5  23
ATOM     23  C   UNL     1      -0.932 -10.717  -0.949  0.00  0.00    +0.022 C 
BRANCH  23  24
ATOM     24  C   UNL     1       0.235 -11.661  -1.082  0.00  0.00    +0.211 A 
ATOM     25  N   UNL     1       0.763 -12.359  -0.117  0.00  0.00    -0.193 NA
ATOM     26  C   UNL     1       1.787 -13.094  -0.587  0.00  0.00    +0.202 A 
ATOM     27  N   UNL     1       1.914 -12.863  -1.870  0.00  0.00    -0.056 NA
ATOM     28  O   UNL     1       0.901 -11.929  -2.213  0.00  0.00    -0.340 OA
BRANCH  26  29
ATOM     29  C   UNL     1       2.631 -14.014   0.215  0.00  0.00    +0.023 A 
ATOM     30  C   UNL     1       2.389 -14.177   1.577  0.00  0.00    +0.013 A 
ATOM     31  C   UNL     1       3.178 -15.033   2.318  0.00  0.00    +0.016 A 
ATOM     32  C   UNL     1       4.208 -15.730   1.710  0.00  0.00    +0.018 A 
ATOM     33  C   UNL     1       4.453 -15.571   0.357  0.00  0.00    +0.016 A 
ATOM     34  C   UNL     1       3.666 -14.722  -0.394  0.00  0.00    +0.013 A 
ATOM     35 BR   UNL     1       5.285 -16.902   2.732  0.00  0.00    -0.050 Br
ENDBRANCH  26  29
ENDBRANCH  23  24
ENDBRANCH   5  23
TORSDOF 8
