REMARK  Name = ZINC13524438
REMARK  9 active torsions:
REMARK  status: ('A' for Active; 'I' for Inactive)
REMARK    1  A    between atoms: C_1  and  C_2
REMARK    2  A    between atoms: C_3  and  C_19
REMARK    3  A    between atoms: C_4  and  C_10
REMARK    4  A    between atoms: C_14  and  N_16
REMARK    5  A    between atoms: N_21  and  C_22
REMARK    6  A    between atoms: C_24  and  O_30
REMARK    7  A    between atoms: C_27  and  O_28
REMARK    8  A    between atoms: O_28  and  C_29
REMARK    9  A    between atoms: O_30  and  C_31
REMARK                            x       y       z     vdW  Elec       q    Type
REMARK                         _______ _______ _______ _____ _____    ______ ____
ROOT
ATOM      1  C   UNL     1       5.954   3.791   0.255  0.00  0.00    +0.061 C 
ATOM      2  C   UNL     1       6.053   2.298   0.074  0.00  0.00    +0.017 C 
ATOM      3  C   UNL     1       4.925   1.561   0.001  0.00  0.00    +0.056 C 
ATOM      4  C   UNL     1       5.070   0.065  -0.188  0.00  0.00    +0.139 C 
ATOM      5  N   UNL     1       6.441  -0.467  -0.272  0.00  0.00    -0.315 N 
ATOM      6  C   UNL     1       7.471   0.397  -0.177  0.00  0.00    +0.135 C 
ATOM      7  S   UNL     1       9.070  -0.207  -0.273  0.00  0.00    -0.019 S 
ATOM      8  N   UNL     1       7.284   1.712  -0.010  0.00  0.00    -0.300 N 
ATOM      9  H   UNL     1       6.599  -1.416  -0.394  0.00  0.00    +0.149 HD
ATOM     10  H   UNL     1       8.067   2.282   0.051  0.00  0.00    +0.154 HD
ENDROOT
BRANCH   4  11
ATOM     11  C   UNL     1       4.377  -0.619   0.962  0.00  0.00    -0.020 A 
ATOM     12  C   UNL     1       4.958  -0.623   2.216  0.00  0.00    +0.006 A 
ATOM     13  C   UNL     1       4.322  -1.250   3.271  0.00  0.00    +0.003 A 
ATOM     14  C   UNL     1       3.104  -1.872   3.072  0.00  0.00    +0.033 A 
ATOM     15  C   UNL     1       2.522  -1.868   1.818  0.00  0.00    +0.127 A 
ATOM     16  C   UNL     1       3.156  -1.237   0.764  0.00  0.00    +0.038 A 
BRANCH  15  17
ATOM     17  N   UNL     1       1.218  -2.534   1.605  0.00  0.00    +0.056 N 
ATOM     18  O   UNL     1       0.617  -3.013   2.550  0.00  0.00    -0.126 OA
ATOM     19  O   UNL     1       0.745  -2.604   0.485  0.00  0.00    -0.126 OA
ENDBRANCH  15  17
ENDBRANCH   4  11
BRANCH   3  20
ATOM     20  C   UNL     1       3.648   2.167   0.094  0.00  0.00    +0.248 C 
ATOM     21  O   UNL     1       3.033   2.449  -0.919  0.00  0.00    -0.270 OA
ATOM     22  N   UNL     1       3.113   2.430   1.302  0.00  0.00    -0.279 N 
ATOM     23  H   UNL     1       3.554   2.116   2.107  0.00  0.00    +0.155 HD
BRANCH  22  24
ATOM     24  C   UNL     1       1.919   3.156   1.396  0.00  0.00    +0.079 A 
ATOM     25  C   UNL     1       0.988   3.100   0.369  0.00  0.00    +0.072 A 
ATOM     26  C   UNL     1      -0.192   3.820   0.465  0.00  0.00    +0.122 A 
ATOM     27  C   UNL     1      -0.443   4.597   1.586  0.00  0.00    +0.049 A 
ATOM     28  C   UNL     1       0.481   4.651   2.614  0.00  0.00    +0.051 A 
ATOM     29  C   UNL     1       1.664   3.938   2.521  0.00  0.00    +0.141 A 
BRANCH  29  30
ATOM     30  O   UNL     1       2.575   3.996   3.530  0.00  0.00    -0.493 OA
ATOM     31  C   UNL     1       2.298   4.898   4.603  0.00  0.00    +0.277 C 
ENDBRANCH  29  30
BRANCH  26  32
ATOM     32  O   UNL     1      -1.105   3.765  -0.541  0.00  0.00    -0.495 OA
ATOM     33  C   UNL     1      -2.299   4.532  -0.376  0.00  0.00    +0.277 C 
ENDBRANCH  26  32
ENDBRANCH  22  24
ENDBRANCH   3  20
TORSDOF 6
