REMARK  Name = ZINC43275008
REMARK  6 active torsions:
REMARK  status: ('A' for Active; 'I' for Inactive)
REMARK    1  A    between atoms: C_1  and  C_2
REMARK    2  A    between atoms: C_2  and  N_3
REMARK    3  A    between atoms: N_3  and  C_4
REMARK    4  A    between atoms: C_4  and  C_5
REMARK    5  A    between atoms: C_9  and  N_11
REMARK    6  A    between atoms: N_16  and  C_17
REMARK                            x       y       z     vdW  Elec       q    Type
REMARK                         _______ _______ _______ _____ _____    ______ ____
ROOT
ATOM      1  N   UNL     1       0.713  -0.473   1.193  0.00  0.00    -0.281 N 
ATOM      2  C   UNL     1       2.042  -0.691   1.143  0.00  0.00    +0.307 C 
ATOM      3  O   UNL     1       2.629  -1.101   2.126  0.00  0.00    -0.252 OA
ATOM      4  N   UNL     1       2.721  -0.456   0.003  0.00  0.00    -0.267 N 
ATOM      5  H   UNL     1       2.243  -0.207  -0.804  0.00  0.00    +0.156 HD
ENDROOT
BRANCH   4   6
ATOM      6  C   UNL     1       4.117  -0.569  -0.018  0.00  0.00    +0.070 A 
ATOM      7  C   UNL     1       4.845  -0.411   1.154  0.00  0.00    +0.027 A 
ATOM      8  C   UNL     1       6.222  -0.523   1.131  0.00  0.00    +0.022 A 
ATOM      9  C   UNL     1       6.877  -0.793  -0.057  0.00  0.00    +0.044 A 
ATOM     10  C   UNL     1       6.155  -0.951  -1.227  0.00  0.00    +0.060 A 
ATOM     11  C   UNL     1       4.777  -0.846  -1.210  0.00  0.00    +0.146 A 
ATOM     12  F   UNL     1       4.072  -1.006  -2.351  0.00  0.00    -0.203 F 
ATOM     13 CL   UNL     1       8.607  -0.932  -0.080  0.00  0.00    -0.083 Cl
ENDBRANCH   4   6
BRANCH   1  15
ATOM     14  C   UNL     1      -0.000   1.551   0.020  0.00  0.00    +0.024 C 
ATOM     15  C   UNL     1       0.006   0.021   0.009  0.00  0.00    +0.106 C 
ENDBRANCH   1  15
BRANCH   1  16
ATOM     16  C   UNL     1      -0.025  -0.729   2.433  0.00  0.00    +0.144 C 
BRANCH  16  17
ATOM     17  C   UNL     1      -0.514  -2.154   2.441  0.00  0.00    -0.028 A 
ATOM     18  C   UNL     1      -1.750  -2.464   1.907  0.00  0.00    +0.005 A 
ATOM     19  C   UNL     1      -2.199  -3.771   1.914  0.00  0.00    +0.003 A 
ATOM     20  C   UNL     1      -1.410  -4.770   2.456  0.00  0.00    +0.033 A 
ATOM     21  C   UNL     1      -0.173  -4.460   2.989  0.00  0.00    +0.127 A 
ATOM     22  C   UNL     1       0.277  -3.153   2.978  0.00  0.00    +0.038 A 
BRANCH  21  23
ATOM     23  N   UNL     1       0.671  -5.529   3.569  0.00  0.00    +0.056 N 
ATOM     24  O   UNL     1       0.279  -6.672   3.576  0.00  0.00    -0.126 OA
ATOM     25  O   UNL     1       1.753  -5.258   4.036  0.00  0.00    -0.126 OA
ENDBRANCH  21  23
ENDBRANCH  16  17
ENDBRANCH   1  16
TORSDOF 5
