REMARK  Name = ZINC39893042
REMARK  9 active torsions:
REMARK  status: ('A' for Active; 'I' for Inactive)
REMARK    1  A    between atoms: C_1  and  C_2
REMARK    2  A    between atoms: C_6  and  C_9
REMARK    3  A    between atoms: C_10  and  C_13
REMARK    4  A    between atoms: C_13  and  C_14
REMARK    5  A    between atoms: N_16  and  C_17
REMARK    6  A    between atoms: C_19  and  C_25
REMARK    7  A    between atoms: C_19  and  C_26
REMARK    8  A    between atoms: C_21  and  C_23
REMARK    9  A    between atoms: C_21  and  C_24
REMARK                            x       y       z     vdW  Elec       q    Type
REMARK                         _______ _______ _______ _____ _____    ______ ____
ROOT
ATOM      1  C   UNL     1      -1.960  -5.699   1.071  0.00  0.00    +0.218 C 
ATOM      2  O   UNL     1      -2.948  -5.131   0.656  0.00  0.00    -0.275 OA
ATOM      3  N   UNL     1      -2.087  -6.745   1.911  0.00  0.00    -0.312 N 
ATOM      4  H   UNL     1      -1.296  -7.199   2.242  0.00  0.00    +0.149 HD
ENDROOT
BRANCH   3   5
ATOM      5  C   UNL     1      -3.421  -7.197   2.324  0.00  0.00    +0.070 C 
ATOM      6  C   UNL     1      -3.956  -8.193   1.292  0.00  0.00    +0.009 C 
ATOM      7  C   UNL     1      -5.340  -8.683   1.715  0.00  0.00    -0.072 C 
ATOM      8  N   UNL     1      -5.341  -9.225   3.066  0.00  0.00    +0.386 N 
ATOM      9  C   UNL     1      -4.674  -8.454   4.103  0.00  0.00    -0.072 C 
ATOM     10  C   UNL     1      -3.316  -7.912   3.671  0.00  0.00    +0.009 C 
ATOM     11  C   UNL     1      -5.555  -7.310   4.613  0.00  0.00    -0.010 C 
ATOM     12  C   UNL     1      -4.429  -9.403   5.301  0.00  0.00    -0.010 C 
ATOM     13  C   UNL     1      -5.735  -9.827   0.752  0.00  0.00    -0.010 C 
ATOM     14  C   UNL     1      -6.371  -7.568   1.541  0.00  0.00    -0.010 C 
ATOM     15  H   UNL     1      -6.312  -9.376   3.350  0.00  0.00    -0.084 HD
ATOM     16  H   UNL     1      -4.922 -10.157   3.037  0.00  0.00    -0.084 HD
ENDBRANCH   3   5
BRANCH   1  17
ATOM     17  C   UNL     1      -0.590  -5.234   0.647  0.00  0.00    +0.134 C 
BRANCH  17  27
ATOM     18  C   UNL     1      -1.319   1.603   0.126  0.00  0.00    +0.045 C 
ATOM     19  C   UNL     1      -1.161   0.104   0.108  0.00  0.00    -0.028 A 
ATOM     20  C   UNL     1      -1.104  -0.561  -1.098  0.00  0.00    +0.051 A 
ATOM     21  C   UNL     1      -0.958  -1.942  -1.123  0.00  0.00    +0.136 A 
ATOM     22  C   UNL     1      -0.870  -2.647   0.090  0.00  0.00    +0.028 A 
ATOM     23  C   UNL     1      -0.929  -1.963   1.303  0.00  0.00    -0.021 A 
ATOM     24  C   UNL     1      -1.069  -0.592   1.306  0.00  0.00    +0.048 A 
ATOM     25 CL   UNL     1      -1.135   0.268   2.812  0.00  0.00    -0.083 Cl
ATOM     26  C   UNL     1      -0.835  -2.718   2.604  0.00  0.00    +0.046 C 
ATOM     27  C   UNL     1      -0.725  -4.058  -0.286  0.00  0.00    +0.007 A 
ATOM     28  C   UNL     1      -0.737  -4.091  -1.625  0.00  0.00    +0.200 A 
ATOM     29  O   UNL     1      -0.874  -2.848  -2.118  0.00  0.00    -0.463 OA
ENDBRANCH  17  27
ENDBRANCH   1  17
TORSDOF 3
