REMARK  Name = ZINC35863311
REMARK  8 active torsions:
REMARK  status: ('A' for Active; 'I' for Inactive)
REMARK    1  A    between atoms: C_1  and  C_2
REMARK    2  A    between atoms: C_2  and  C_3
REMARK    3  A    between atoms: C_11  and  O_23
REMARK    4  A    between atoms: C_14  and  C_16
REMARK    5  A    between atoms: O_23  and  C_24
REMARK    6  A    between atoms: C_24  and  C_25
REMARK    7  A    between atoms: C_28  and  C_30
REMARK    8  A    between atoms: C_36  and  C_39
REMARK                            x       y       z     vdW  Elec       q    Type
REMARK                         _______ _______ _______ _____ _____    ______ ____
ROOT
ATOM      1  C   UNL     1       1.653  -0.207  -1.316  0.00  0.00    +0.216 C 
ATOM      2  O   UNL     1       2.060   0.461  -2.243  0.00  0.00    -0.276 OA
ATOM      3  N   UNL     1       1.447  -1.529  -1.477  0.00  0.00    -0.290 N 
ATOM      4  C   UNL     1       1.038  -2.383  -0.349  0.00  0.00    +0.113 C 
ATOM      5  C   UNL     1      -0.357  -2.928  -0.655  0.00  0.00    +0.054 C 
ATOM      6  C   UNL     1      -0.425  -3.472  -2.058  0.00  0.00    -0.040 A 
ATOM      7  C   UNL     1      -1.447  -4.368  -2.352  0.00  0.00    +0.007 A 
ATOM      8  C   UNL     1      -1.575  -4.897  -3.617  0.00  0.00    +0.046 A 
ATOM      9  C   UNL     1      -0.676  -4.534  -4.610  0.00  0.00    +0.121 A 
ATOM     10  C   UNL     1       0.344  -3.644  -4.317  0.00  0.00    +0.051 A 
ATOM     11  C   UNL     1       0.472  -3.118  -3.040  0.00  0.00    -0.016 A 
ATOM     12  C   UNL     1       1.615  -2.174  -2.784  0.00  0.00    +0.137 C 
ENDROOT
BRANCH  12  13
ATOM     13  C   UNL     1       1.647  -1.121  -3.861  0.00  0.00    -0.020 A 
ATOM     14  C   UNL     1       0.648  -0.168  -3.926  0.00  0.00    +0.006 A 
ATOM     15  C   UNL     1       0.676   0.798  -4.915  0.00  0.00    +0.003 A 
ATOM     16  C   UNL     1       1.703   0.812  -5.839  0.00  0.00    +0.038 A 
ATOM     17  C   UNL     1       2.704  -0.142  -5.775  0.00  0.00    +0.124 A 
ATOM     18  C   UNL     1       2.678  -1.106  -4.781  0.00  0.00    +0.044 A 
ATOM     19  F   UNL     1       3.708  -0.130  -6.679  0.00  0.00    -0.205 F 
ENDBRANCH  12  13
BRANCH   1  21
ATOM     20  C   UNL     1       1.690   1.937  -0.070  0.00  0.00    +0.013 C 
ATOM     21  C   UNL     1       1.377   0.442   0.016  0.00  0.00    +0.092 C 
ENDBRANCH   1  21
BRANCH   9  22
ATOM     22  O   UNL     1      -0.797  -5.047  -5.863  0.00  0.00    -0.484 OA
BRANCH  22  23
ATOM     23  C   UNL     1      -1.874  -5.959  -6.089  0.00  0.00    +0.303 C 
BRANCH  23  24
ATOM     24  C   UNL     1      -1.849  -6.420  -7.524  0.00  0.00    +0.143 A 
ATOM     25  C   UNL     1      -1.189  -7.503  -7.990  0.00  0.00    +0.049 A 
ATOM     26  C   UNL     1      -1.429  -7.569  -9.372  0.00  0.00    +0.055 A 
ATOM     27  C   UNL     1      -2.233  -6.511  -9.682  0.00  0.00    +0.190 A 
ATOM     28  O   UNL     1      -2.481  -5.828  -8.545  0.00  0.00    -0.452 OA
BRANCH  27  29
ATOM     29  C   UNL     1      -2.743  -6.177 -11.016  0.00  0.00    +0.282 C 
ATOM     30  O   UNL     1      -2.513  -6.913 -11.957  0.00  0.00    -0.267 OA
ATOM     31  N   UNL     1      -3.465  -5.054 -11.200  0.00  0.00    -0.298 N 
ATOM     32  C   UNL     1      -3.864  -4.215 -10.059  0.00  0.00    +0.089 C 
ATOM     33  C   UNL     1      -5.369  -3.947 -10.155  0.00  0.00    -0.063 C 
ATOM     34  N   UNL     1      -5.678  -3.369 -11.470  0.00  0.00    +0.383 N 
ATOM     35  C   UNL     1      -5.383  -4.344 -12.527  0.00  0.00    -0.057 C 
ATOM     36  C   UNL     1      -3.873  -4.630 -12.548  0.00  0.00    +0.092 C 
ATOM     37  C   UNL     1      -5.812  -3.775 -13.880  0.00  0.00    -0.012 C 
ATOM     38  H   UNL     1      -6.656  -3.122 -11.505  0.00  0.00    -0.085 HD
ATOM     39  H   UNL     1      -5.120  -2.541 -11.612  0.00  0.00    -0.085 HD
ENDBRANCH  27  29
ENDBRANCH  23  24
ENDBRANCH  22  23
ENDBRANCH   9  22
TORSDOF 6
