REMARK  Name = ZINC13298520
REMARK  6 active torsions:
REMARK  status: ('A' for Active; 'I' for Inactive)
REMARK    1  A    between atoms: C_3  and  S_21
REMARK    2  A    between atoms: C_4  and  N_18
REMARK    3  A    between atoms: C_6  and  S_7
REMARK    4  A    between atoms: S_7  and  N_10
REMARK    5  A    between atoms: C_13  and  C_16
REMARK    6  A    between atoms: S_21  and  C_22
REMARK                            x       y       z     vdW  Elec       q    Type
REMARK                         _______ _______ _______ _____ _____    ______ ____
ROOT
ATOM      1  C   UNL     1       1.173   1.786   0.002  0.00  0.00    +0.030 A 
ATOM      2  C   UNL     1      -0.013   1.078   0.019  0.00  0.00    +0.019 A 
ATOM      3  C   UNL     1      -1.225   1.756   0.005  0.00  0.00    +0.039 A 
ATOM      4  C   UNL     1      -1.240   3.146  -0.016  0.00  0.00    +0.141 A 
ATOM      5  C   UNL     1      -0.051   3.847  -0.033  0.00  0.00    +0.062 A 
ATOM      6  C   UNL     1       1.154   3.168  -0.024  0.00  0.00    +0.108 A 
ENDROOT
BRANCH   6   7
ATOM      7  S   UNL     1       2.669   4.068  -0.047  0.00  0.00    +0.061 S 
ATOM      8  O   UNL     1       2.384   5.356   0.481  0.00  0.00    -0.153 OA
ATOM      9  O   UNL     1       3.656   3.215   0.517  0.00  0.00    -0.153 OA
BRANCH   7  10
ATOM     10  N   UNL     1       3.084   4.288  -1.635  0.00  0.00    -0.177 NA
ATOM     11  C   UNL     1       3.922   3.303  -2.333  0.00  0.00    +0.110 C 
ATOM     12  C   UNL     1       5.120   4.020  -2.954  0.00  0.00    +0.032 C 
ATOM     13  C   UNL     1       4.622   5.164  -3.841  0.00  0.00    +0.105 C 
ATOM     14  C   UNL     1       3.843   6.170  -2.990  0.00  0.00    +0.032 C 
ATOM     15  C   UNL     1       2.627   5.474  -2.371  0.00  0.00    +0.110 C 
BRANCH  13  16
ATOM     16  C   UNL     1       5.800   5.853  -4.479  0.00  0.00    +0.359 C 
ATOM     17  O   UNL     1       5.997   7.028  -4.275  0.00  0.00    -0.246 OA
ATOM     18  O   UNL     1       6.632   5.162  -5.275  0.00  0.00    -0.246 OA
ENDBRANCH  13  16
ENDBRANCH   7  10
ENDBRANCH   6   7
BRANCH   4  19
ATOM     19  N   UNL     1      -2.530   3.873  -0.027  0.00  0.00    +0.058 N 
ATOM     20  O   UNL     1      -2.542   5.090  -0.050  0.00  0.00    -0.126 OA
ATOM     21  O   UNL     1      -3.578   3.253  -0.012  0.00  0.00    -0.126 OA
ENDBRANCH   4  19
BRANCH   3  22
ATOM     22  S   UNL     1      -2.740   0.857   0.020  0.00  0.00    -0.116 S 
BRANCH  22  23
ATOM     23  C   UNL     1      -2.225  -0.875  -0.144  0.00  0.00    +0.022 C 
ATOM     24  C   UNL     1      -1.431  -1.291   1.096  0.00  0.00    +0.021 C 
ATOM     25  C   UNL     1      -0.996  -2.751   0.957  0.00  0.00    -0.009 C 
ATOM     26  C   UNL     1      -2.233  -3.641   0.821  0.00  0.00    +0.007 C 
ATOM     27  C   UNL     1      -3.027  -3.225  -0.420  0.00  0.00    -0.009 C 
ATOM     28  C   UNL     1      -3.462  -1.765  -0.281  0.00  0.00    +0.021 C 
ATOM     29  C   UNL     1      -2.148  -3.379  -1.663  0.00  0.00    +0.007 C 
ATOM     30  C   UNL     1      -0.911  -2.489  -1.526  0.00  0.00    -0.009 C 
ATOM     31  C   UNL     1      -0.118  -2.905  -0.286  0.00  0.00    +0.007 C 
ATOM     32  C   UNL     1      -1.346  -1.029  -1.387  0.00  0.00    +0.021 C 
ENDBRANCH  22  23
ENDBRANCH   3  22
TORSDOF 6
