REMARK  Name = ZINC04460485
REMARK  8 active torsions:
REMARK  status: ('A' for Active; 'I' for Inactive)
REMARK    1  A    between atoms: C_1  and  C_2
REMARK    2  A    between atoms: C_2  and  N_57
REMARK    3  A    between atoms: C_5  and  C_6
REMARK    4  A    between atoms: C_11  and  C_12
REMARK    5  A    between atoms: C_16  and  C_24
REMARK    6  A    between atoms: C_18  and  C_22
REMARK    7  A    between atoms: C_19  and  N_21
REMARK    8  A    between atoms: C_29  and  C_30
REMARK                            x       y       z     vdW  Elec       q    Type
REMARK                         _______ _______ _______ _____ _____    ______ ____
ROOT
ATOM      1  C   UNL     1      -1.275   6.034   0.096  0.00  0.00    -0.039 C 
ATOM      2  C   UNL     1      -2.554   5.223   0.120  0.00  0.00    -0.021 C 
ATOM      3  C   UNL     1      -2.533   3.883   0.015  0.00  0.00    +0.013 C 
ATOM      4  C   UNL     1      -3.827   5.961   0.258  0.00  0.00    +0.130 C 
ATOM      5  C   UNL     1      -3.807   7.258   0.574  0.00  0.00    -0.031 C 
ATOM      6  C   UNL     1      -2.510   7.999   0.772  0.00  0.00    -0.042 C 
ATOM      7  C   UNL     1      -5.099   8.023   0.735  0.00  0.00    +0.092 C 
ATOM      8  C   UNL     1      -6.230   7.282   0.066  0.00  0.00    +0.098 C 
ATOM      9  C   UNL     1      -6.115   5.963  -0.226  0.00  0.00    +0.199 C 
ATOM     10  O   UNL     1      -4.988   5.289   0.063  0.00  0.00    -0.441 OA
ATOM     11  N   UNL     1      -1.424   7.075   1.137  0.00  0.00    +0.385 N 
ATOM     12  H   UNL     1      -1.655   6.623   2.030  0.00  0.00    -0.081 HD
ENDROOT
BRANCH   3  13
ATOM     13  C   UNL     1      -1.269   3.188  -0.287  0.00  0.00    -0.022 A 
ATOM     14  C   UNL     1      -0.377   3.727  -1.218  0.00  0.00    +0.008 A 
ATOM     15  C   UNL     1       0.804   3.070  -1.496  0.00  0.00    +0.001 A 
ATOM     16  C   UNL     1       1.106   1.882  -0.855  0.00  0.00    +0.000 A 
ATOM     17  C   UNL     1       0.228   1.342   0.068  0.00  0.00    +0.004 A 
ATOM     18  C   UNL     1      -0.960   1.984   0.351  0.00  0.00    -0.043 A 
ATOM     19  C   UNL     1      -1.918   1.392   1.353  0.00  0.00    +0.044 C 
ENDBRANCH   3  13
BRANCH   7  20
ATOM     20  C   UNL     1      -5.395   8.199   2.202  0.00  0.00    -0.032 A 
ATOM     21  C   UNL     1      -5.480   7.093   3.027  0.00  0.00    +0.005 A 
ATOM     22  C   UNL     1      -5.747   7.254   4.374  0.00  0.00    +0.000 A 
ATOM     23  C   UNL     1      -5.939   8.521   4.893  0.00  0.00    +0.000 A 
ATOM     24  C   UNL     1      -5.859   9.626   4.067  0.00  0.00    +0.003 A 
ATOM     25  C   UNL     1      -5.587   9.465   2.721  0.00  0.00    -0.046 A 
ATOM     26  C   UNL     1      -5.501  10.670   1.820  0.00  0.00    +0.044 C 
ENDBRANCH   7  20
BRANCH   9  27
ATOM     27  N   UNL     1      -7.161   5.307  -0.826  0.00  0.00    -0.328 N 
ATOM     28  H   UNL     1      -7.085   4.364  -1.038  0.00  0.00    +0.145 HD
ATOM     29  H   UNL     1      -7.977   5.787  -1.038  0.00  0.00    +0.145 HD
ENDBRANCH   9  27
BRANCH  11  31
ATOM     30  C   UNL     1       0.903   6.888   1.878  0.00  0.00    -0.017 C 
ATOM     31  C   UNL     1      -0.155   7.823   1.291  0.00  0.00    -0.081 C 
ENDBRANCH  11  31
BRANCH   8  32
ATOM     32  C   UNL     1      -7.442   7.975  -0.253  0.00  0.00    +0.101 C 
ATOM     33  N   UNL     1      -8.403   8.525  -0.507  0.00  0.00    -0.191 NA
ENDBRANCH   8  32
TORSDOF 5
