REMARK  Name = ZINC63383785
REMARK  8 active torsions:
REMARK  status: ('A' for Active; 'I' for Inactive)
REMARK    1  A    between atoms: C_1  and  C_2
REMARK    2  A    between atoms: C_7  and  C_8
REMARK    3  A    between atoms: C_17  and  C_20
REMARK    4  A    between atoms: C_20  and  C_21
REMARK    5  A    between atoms: N_32  and  C_35
REMARK    6  A    between atoms: C_35  and  C_36
REMARK    7  A    between atoms: C_36  and  O_37
REMARK    8  A    between atoms: O_37  and  C_38
REMARK                            x       y       z     vdW  Elec       q    Type
REMARK                         _______ _______ _______ _____ _____    ______ ____
ROOT
ATOM      1  C   UNL     1       0.061   1.214   0.465  0.00  0.00    +0.044 C 
ATOM      2  C   UNL     1       0.049  -0.288   0.342  0.00  0.00    -0.046 A 
ATOM      3  C   UNL     1       0.056  -0.876  -0.910  0.00  0.00    +0.004 A 
ATOM      4  C   UNL     1       0.044  -2.255  -1.024  0.00  0.00    +0.008 A 
ATOM      5  C   UNL     1       0.026  -3.039   0.108  0.00  0.00    +0.004 A 
ATOM      6  C   UNL     1       0.019  -2.459   1.373  0.00  0.00    +0.042 A 
ATOM      7  C   UNL     1       0.036  -1.070   1.478  0.00  0.00    -0.026 A 
ATOM      8  C   UNL     1       0.035  -0.420   2.837  0.00  0.00    +0.046 C 
ATOM      9  N   UNL     1       0.001  -3.449   2.358  0.00  0.00    -0.283 N 
ATOM     10  C   UNL     1      -0.005  -4.689   1.832  0.00  0.00    +0.243 C 
ATOM     11  O   UNL     1      -0.019  -5.736   2.445  0.00  0.00    -0.273 OA
ATOM     12  C   UNL     1       0.010  -4.524   0.337  0.00  0.00    +0.136 C 
ATOM     13  C   UNL     1       1.233  -5.204  -0.290  0.00  0.00    +0.122 C 
ATOM     14  C   UNL     1       0.702  -6.577  -0.791  0.00  0.00    +0.107 C 
ATOM     15  C   UNL     1      -0.788  -6.596  -0.390  0.00  0.00    +0.072 C 
ATOM     16  N   UNL     1      -1.168  -5.156  -0.286  0.00  0.00    -0.295 NA
ATOM     17  C   UNL     1       0.829  -6.473  -2.294  0.00  0.00    +0.227 C 
ATOM     18  O   UNL     1       0.513  -7.336  -3.084  0.00  0.00    -0.275 OA
ATOM     19  N   UNL     1       1.344  -5.281  -2.615  0.00  0.00    -0.239 N 
ATOM     20  C   UNL     1       1.621  -4.480  -1.560  0.00  0.00    +0.228 C 
ATOM     21  O   UNL     1       2.097  -3.367  -1.614  0.00  0.00    -0.275 OA
ATOM     22  H   UNL     1      -0.005  -3.265   3.310  0.00  0.00    +0.155 HD
ATOM     23  H   UNL     1      -1.987  -5.044   0.293  0.00  0.00    +0.124 HD
ENDROOT
BRANCH  15  24
ATOM     24  C   UNL     1      -1.622  -7.277  -1.477  0.00  0.00    +0.052 C 
BRANCH  24  25
ATOM     25  C   UNL     1      -3.051  -7.395  -1.013  0.00  0.00    -0.040 C 
ATOM     26  C   UNL     1      -4.066  -6.542  -1.280  0.00  0.00    -0.001 A 
ATOM     27  C   UNL     1      -4.141  -5.297  -2.053  0.00  0.00    +0.010 A 
ATOM     28  C   UNL     1      -5.326  -4.650  -2.143  0.00  0.00    +0.001 A 
ATOM     29  C   UNL     1      -6.481  -5.139  -1.517  0.00  0.00    +0.002 A 
ATOM     30  C   UNL     1      -6.491  -6.276  -0.790  0.00  0.00    +0.026 A 
ATOM     31  C   UNL     1      -5.301  -7.037  -0.630  0.00  0.00    +0.043 A 
ATOM     32  N   UNL     1      -5.058  -8.153   0.015  0.00  0.00    -0.380 N 
ATOM     33  C   UNL     1      -3.642  -8.495  -0.159  0.00  0.00    +0.144 C 
ATOM     34  H   UNL     1      -5.707  -8.668   0.520  0.00  0.00    +0.160 HD
ENDBRANCH  24  25
ENDBRANCH  15  24
BRANCH  19  35
ATOM     35  C   UNL     1       1.595  -4.874  -4.000  0.00  0.00    +0.144 C 
BRANCH  35  36
ATOM     36  C   UNL     1       3.053  -5.167  -4.360  0.00  0.00    +0.179 C 
BRANCH  36  37
ATOM     37  O   UNL     1       3.273  -6.579  -4.345  0.00  0.00    -0.381 OA
ATOM     38  C   UNL     1       4.611  -6.962  -4.670  0.00  0.00    +0.194 C 
ENDBRANCH  36  37
ENDBRANCH  35  36
ENDBRANCH  19  35
TORSDOF 5
