REMARK  Name = ZINC63254205
REMARK  8 active torsions:
REMARK  status: ('A' for Active; 'I' for Inactive)
REMARK    1  A    between atoms: C_1  and  C_2
REMARK    2  A    between atoms: C_2  and  C_3
REMARK    3  A    between atoms: C_2  and  O_16
REMARK    4  A    between atoms: N_5  and  C_6
REMARK    5  A    between atoms: C_9  and  C_12
REMARK    6  A    between atoms: N_14  and  C_15
REMARK    7  A    between atoms: O_16  and  C_17
REMARK    8  A    between atoms: C_22  and  N_23
REMARK                            x       y       z     vdW  Elec       q    Type
REMARK                         _______ _______ _______ _____ _____    ______ ____
ROOT
ATOM      1  C   UNL     1       0.627  -0.284  -1.345  0.00  0.00    +0.254 C 
ATOM      2  O   UNL     1      -0.044  -0.757  -2.238  0.00  0.00    -0.272 OA
ATOM      3  N   UNL     1       1.928  -0.002  -1.555  0.00  0.00    -0.309 N 
ATOM      4  H   UNL     1       2.464   0.375  -0.841  0.00  0.00    +0.149 HD
ENDROOT
BRANCH   3   5
ATOM      5  C   UNL     1       2.532  -0.267  -2.864  0.00  0.00    +0.073 C 
ATOM      6  C   UNL     1       2.989  -1.725  -2.929  0.00  0.00    +0.023 C 
ATOM      7  C   UNL     1       4.019  -1.987  -1.829  0.00  0.00    +0.014 C 
ATOM      8  C   UNL     1       5.224  -1.066  -2.030  0.00  0.00    +0.075 C 
ATOM      9  C   UNL     1       4.768   0.393  -1.964  0.00  0.00    +0.014 C 
ATOM     10  C   UNL     1       3.737   0.655  -3.064  0.00  0.00    +0.023 C 
BRANCH   8  11
ATOM     11  C   UNL     1       6.240  -1.323  -0.947  0.00  0.00    +0.216 C 
ATOM     12  O   UNL     1       6.021  -2.161  -0.098  0.00  0.00    -0.276 OA
ATOM     13  N   UNL     1       7.391  -0.623  -0.921  0.00  0.00    -0.318 N 
ATOM     14  C   UNL     1       8.378  -0.873   0.132  0.00  0.00    +0.128 C 
ATOM     15  H   UNL     1       7.565   0.048  -1.600  0.00  0.00    +0.148 HD
ENDBRANCH   8  11
ENDBRANCH   3   5
BRANCH   1  17
ATOM     16  C   UNL     1       0.005   1.494   0.268  0.00  0.00    +0.062 C 
ATOM     17  C   UNL     1       0.005  -0.013   0.001  0.00  0.00    +0.256 C 
BRANCH  17  18
ATOM     18  O   UNL     1      -1.339  -0.499   0.012  0.00  0.00    -0.478 OA
BRANCH  18  19
ATOM     19  C   UNL     1      -1.869  -0.818   1.222  0.00  0.00    +0.152 A 
ATOM     20  C   UNL     1      -1.155  -0.561   2.384  0.00  0.00    +0.049 A 
ATOM     21  C   UNL     1      -1.696  -0.886   3.612  0.00  0.00    +0.024 A 
ATOM     22  C   UNL     1      -2.950  -1.468   3.685  0.00  0.00    +0.043 A 
ATOM     23  C   UNL     1      -3.663  -1.725   2.528  0.00  0.00    +0.056 A 
ATOM     24  C   UNL     1      -3.128  -1.395   1.298  0.00  0.00    +0.169 A 
ATOM     25 CL   UNL     1      -3.628  -1.876   5.230  0.00  0.00    -0.083 Cl
BRANCH  24  26
ATOM     26  N   UNL     1      -3.895  -1.664   0.060  0.00  0.00    +0.060 N 
ATOM     27  O   UNL     1      -4.992  -2.167   0.127  0.00  0.00    -0.126 OA
ATOM     28  O   UNL     1      -3.424  -1.381  -1.016  0.00  0.00    -0.126 OA
ENDBRANCH  24  26
ENDBRANCH  18  19
ENDBRANCH  17  18
ENDBRANCH   1  17
TORSDOF 6
