REMARK  Name = ZINC36586482
REMARK  17 active torsions:
REMARK  status: ('A' for Active; 'I' for Inactive)
REMARK    1  A    between atoms: C_1  and  C_2
REMARK    2  A    between atoms: C_2  and  C_3
REMARK    3  A    between atoms: C_2  and  C_4
REMARK    4  A    between atoms: C_2  and  C_5
REMARK    5  A    between atoms: C_5  and  C_6
REMARK    6  A    between atoms: C_6  and  C_7
REMARK    7  A    between atoms: C_6  and  C_8
REMARK    8  A    between atoms: C_6  and  N_9
REMARK    9  A    between atoms: C_10  and  C_12
REMARK   10  A    between atoms: C_12  and  C_14
REMARK   11  A    between atoms: C_12  and  N_22
REMARK   12  A    between atoms: N_22  and  C_32
REMARK   13  A    between atoms: C_23  and  C_25
REMARK   14  A    between atoms: C_28  and  O_31
REMARK   15  A    between atoms: C_32  and  C_33
REMARK   16  A    between atoms: C_32  and  C_34
REMARK   17  A    between atoms: C_32  and  C_35
REMARK                            x       y       z     vdW  Elec       q    Type
REMARK                         _______ _______ _______ _____ _____    ______ ____
ROOT
ATOM      1  C   UNL     1       5.875   0.994  -5.042  0.00  0.00    +0.196 C 
ENDROOT
BRANCH   1   2
ATOM      2  C   UNL     1       5.667   1.005  -6.534  0.00  0.00    +0.018 A 
ATOM      3  C   UNL     1       6.749   0.871  -7.386  0.00  0.00    +0.048 A 
ATOM      4  C   UNL     1       6.556   0.881  -8.756  0.00  0.00    +0.020 A 
ATOM      5  C   UNL     1       5.283   1.025  -9.274  0.00  0.00    +0.003 A 
ATOM      6  C   UNL     1       4.201   1.159  -8.424  0.00  0.00    +0.020 A 
ATOM      7  C   UNL     1       4.392   1.143  -7.054  0.00  0.00    +0.048 A 
ATOM      8 CL   UNL     1       3.032   1.302  -5.986  0.00  0.00    -0.083 Cl
ATOM      9 CL   UNL     1       8.348   0.692  -6.735  0.00  0.00    -0.083 Cl
ENDBRANCH   1   2
BRANCH   1  11
ATOM     10  N   UNL     1       6.528  -1.375  -4.754  0.00  0.00    -0.308 N 
ATOM     11  C   UNL     1       6.876  -0.074  -4.683  0.00  0.00    +0.239 C 
ATOM     12  O   UNL     1       7.994   0.236  -4.329  0.00  0.00    -0.273 OA
ATOM     13  H   UNL     1       5.634  -1.623  -5.037  0.00  0.00    +0.149 HD
BRANCH  10  14
ATOM     14  C   UNL     1       7.500  -2.413  -4.405  0.00  0.00    +0.030 C 
ATOM     15  C   UNL     1       8.134  -2.084  -3.051  0.00  0.00    +0.031 C 
ATOM     16  C   UNL     1       8.590  -2.473  -5.477  0.00  0.00    +0.031 C 
BRANCH  14  17
ATOM     17  C   UNL     1       6.793  -3.767  -4.321  0.00  0.00    +0.031 C 
BRANCH  17  19
ATOM     18  C   UNL     1       4.376  -3.154  -4.476  0.00  0.00    +0.010 C 
ATOM     19  C   UNL     1       5.490  -3.613  -3.534  0.00  0.00    -0.036 C 
ATOM     20  C   UNL     1       5.682  -2.575  -2.427  0.00  0.00    +0.010 C 
ATOM     21  C   UNL     1       5.109  -4.958  -2.911  0.00  0.00    +0.010 C 
ENDBRANCH  17  19
ENDBRANCH  14  17
ENDBRANCH  10  14
ENDBRANCH   1  11
BRANCH   1  22
ATOM     22  N   UNL     1       6.379   2.300  -4.610  0.00  0.00    -0.277 N 
ATOM     23  C   UNL     1       6.789   3.201  -5.525  0.00  0.00    +0.248 C 
ATOM     24  O   UNL     1       6.301   3.201  -6.638  0.00  0.00    -0.270 OA
BRANCH  23  25
ATOM     25  C   UNL     1       7.830   4.187  -5.175  0.00  0.00    +0.037 A 
ATOM     26  C   UNL     1       7.911   4.688  -3.873  0.00  0.00    +0.016 A 
ATOM     27  C   UNL     1       8.884   5.608  -3.551  0.00  0.00    +0.046 A 
ATOM     28  C   UNL     1       9.784   6.038  -4.519  0.00  0.00    +0.117 A 
ATOM     29  C   UNL     1       9.707   5.542  -5.815  0.00  0.00    +0.046 A 
ATOM     30  C   UNL     1       8.740   4.617  -6.144  0.00  0.00    +0.016 A 
BRANCH  28  31
ATOM     31  O   UNL     1      10.741   6.945  -4.197  0.00  0.00    -0.507 OA
ATOM     32  H   UNL     1      11.567   6.551  -3.885  0.00  0.00    +0.292 HD
ENDBRANCH  28  31
ENDBRANCH  23  25
BRANCH  22  33
ATOM     33  C   UNL     1       6.438   2.627  -3.183  0.00  0.00    +0.030 C 
ATOM     34  C   UNL     1       5.798   1.497  -2.374  0.00  0.00    +0.031 C 
ATOM     35  C   UNL     1       7.898   2.794  -2.758  0.00  0.00    +0.031 C 
ATOM     36  C   UNL     1       5.679   3.930  -2.927  0.00  0.00    +0.031 C 
ENDBRANCH  22  33
ENDBRANCH   1  22
TORSDOF 9
