REMARK  Name = ZINC01378275
REMARK  11 active torsions:
REMARK  status: ('A' for Active; 'I' for Inactive)
REMARK    1  A    between atoms: C_1  and  C_2
REMARK    2  A    between atoms: C_12  and  C_14
REMARK    3  A    between atoms: C_14  and  N_15
REMARK    4  A    between atoms: N_15  and  C_16
REMARK    5  A    between atoms: C_16  and  C_17
REMARK    6  A    between atoms: C_17  and  C_18
REMARK    7  A    between atoms: C_21  and  O_26
REMARK    8  A    between atoms: C_22  and  O_24
REMARK    9  A    between atoms: O_24  and  C_25
REMARK   10  A    between atoms: O_26  and  C_27
REMARK   11  A    between atoms: N_30  and  C_31
REMARK                            x       y       z     vdW  Elec       q    Type
REMARK                         _______ _______ _______ _____ _____    ______ ____
ROOT
ATOM      1  N   UNL     1       1.235  -3.065   5.740  0.00  0.00    -0.281 N 
ATOM      2  C   UNL     1       1.641  -2.122   6.613  0.00  0.00    +0.307 C 
ATOM      3  O   UNL     1       2.601  -2.331   7.330  0.00  0.00    -0.252 OA
ATOM      4  N   UNL     1       0.984  -0.948   6.691  0.00  0.00    -0.269 N 
ATOM      5  H   UNL     1       0.237  -0.770   6.099  0.00  0.00    +0.156 HD
ENDROOT
BRANCH   4   6
ATOM      6  C   UNL     1       1.379   0.015   7.628  0.00  0.00    +0.035 A 
ATOM      7  C   UNL     1       2.700   0.070   8.053  0.00  0.00    +0.025 A 
ATOM      8  C   UNL     1       3.089   1.024   8.973  0.00  0.00    +0.022 A 
ATOM      9  C   UNL     1       2.161   1.917   9.480  0.00  0.00    +0.041 A 
ATOM     10  C   UNL     1       0.843   1.860   9.062  0.00  0.00    +0.022 A 
ATOM     11  C   UNL     1       0.450   0.911   8.138  0.00  0.00    +0.025 A 
ATOM     12 CL   UNL     1       2.651   3.111  10.641  0.00  0.00    -0.084 Cl
ENDBRANCH   4   6
BRANCH   1  13
ATOM     13  C   UNL     1       0.214  -2.745   4.739  0.00  0.00    +0.150 C 
BRANCH  13  25
ATOM     14  C   UNL     1      -5.398  -5.544   6.706  0.00  0.00    +0.046 C 
ATOM     15  C   UNL     1      -4.916  -4.119   6.785  0.00  0.00    -0.026 A 
ATOM     16  C   UNL     1      -5.717  -3.148   7.347  0.00  0.00    +0.005 A 
ATOM     17  C   UNL     1      -5.281  -1.833   7.432  0.00  0.00    +0.001 A 
ATOM     18  C   UNL     1      -4.055  -1.473   6.948  0.00  0.00    +0.010 A 
ATOM     19  C   UNL     1      -3.228  -2.441   6.369  0.00  0.00    -0.001 A 
ATOM     20  C   UNL     1      -3.663  -3.777   6.287  0.00  0.00    +0.052 A 
ATOM     21  N   UNL     1      -2.844  -4.727   5.715  0.00  0.00    -0.322 N 
ATOM     22  H   UNL     1      -3.145  -5.647   5.660  0.00  0.00    +0.169 HD
ATOM     23  C   UNL     1      -1.633  -4.396   5.233  0.00  0.00    +0.254 A 
ATOM     24  O   UNL     1      -0.935  -5.262   4.734  0.00  0.00    -0.268 OA
ATOM     25  C   UNL     1      -1.149  -3.071   5.291  0.00  0.00    +0.035 A 
ATOM     26  C   UNL     1      -1.907  -2.091   5.841  0.00  0.00    +0.020 A 
ENDBRANCH  13  25
ENDBRANCH   1  13
BRANCH   1  27
ATOM     27  C   UNL     1       1.815  -4.409   5.791  0.00  0.00    +0.114 C 
BRANCH  27  28
ATOM     28  C   UNL     1       3.048  -4.468   4.888  0.00  0.00    +0.054 C 
BRANCH  28  29
ATOM     29  C   UNL     1       3.644  -5.851   4.941  0.00  0.00    -0.042 A 
ATOM     30  C   UNL     1       4.612  -6.149   5.882  0.00  0.00    +0.007 A 
ATOM     31  C   UNL     1       5.158  -7.418   5.938  0.00  0.00    +0.049 A 
ATOM     32  C   UNL     1       4.744  -8.391   5.043  0.00  0.00    +0.161 A 
ATOM     33  C   UNL     1       3.774  -8.089   4.091  0.00  0.00    +0.162 A 
ATOM     34  C   UNL     1       3.227  -6.817   4.044  0.00  0.00    +0.053 A 
BRANCH  33  35
ATOM     35  O   UNL     1       3.364  -9.040   3.210  0.00  0.00    -0.491 OA
ATOM     36  C   UNL     1       2.365  -8.659   2.262  0.00  0.00    +0.277 C 
ENDBRANCH  33  35
BRANCH  32  37
ATOM     37  O   UNL     1       5.283  -9.638   5.093  0.00  0.00    -0.491 OA
ATOM     38  C   UNL     1       6.273  -9.876   6.096  0.00  0.00    +0.277 C 
ENDBRANCH  32  37
ENDBRANCH  28  29
ENDBRANCH  27  28
ENDBRANCH   1  27
TORSDOF 8
