REMARK  Name = ZINC51384279
REMARK  7 active torsions:
REMARK  status: ('A' for Active; 'I' for Inactive)
REMARK    1  A    between atoms: C_3  and  C_8
REMARK    2  A    between atoms: C_8  and  C_10
REMARK    3  A    between atoms: C_8  and  O_28
REMARK    4  A    between atoms: C_10  and  N_11
REMARK    5  A    between atoms: C_12  and  C_14
REMARK    6  A    between atoms: C_17  and  C_19
REMARK    7  A    between atoms: C_22  and  N_25
REMARK                            x       y       z     vdW  Elec       q    Type
REMARK                         _______ _______ _______ _____ _____    ______ ____
ROOT
ATOM      1  N   UNL     1       5.444   3.075   1.410  0.00  0.00    -0.307 N 
ATOM      2  C   UNL     1       6.126   3.259   2.558  0.00  0.00    +0.263 C 
ATOM      3  O   UNL     1       5.751   2.718   3.581  0.00  0.00    -0.269 OA
ATOM      4  H   UNL     1       5.743   3.506   0.594  0.00  0.00    +0.149 HD
ENDROOT
BRANCH   2   5
ATOM      5  C   UNL     1       7.325   4.114   2.574  0.00  0.00    +0.133 A 
ATOM      6  C   UNL     1       8.028   4.303   3.734  0.00  0.00    +0.080 A 
ATOM      7  S   UNL     1       9.271   5.326   3.244  0.00  0.00    -0.075 S 
ATOM      8  C   UNL     1       8.819   5.470   1.524  0.00  0.00    +0.109 A 
ATOM      9  N   UNL     1       7.742   4.707   1.464  0.00  0.00    -0.234 NA
BRANCH   8  10
ATOM     10  C   UNL     1       9.481   6.237   0.446  0.00  0.00    +0.007 A 
ATOM     11  C   UNL     1       8.958   6.221  -0.847  0.00  0.00    +0.013 A 
ATOM     12  C   UNL     1       9.579   6.939  -1.848  0.00  0.00    +0.033 A 
ATOM     13  C   UNL     1      10.719   7.673  -1.571  0.00  0.00    +0.126 A 
ATOM     14  C   UNL     1      11.242   7.692  -0.291  0.00  0.00    +0.033 A 
ATOM     15  C   UNL     1      10.627   6.983   0.720  0.00  0.00    +0.013 A 
BRANCH  13  16
ATOM     16  N   UNL     1      11.381   8.441  -2.650  0.00  0.00    +0.056 N 
ATOM     17  O   UNL     1      10.926   8.425  -3.770  0.00  0.00    -0.126 OA
ATOM     18  O   UNL     1      12.377   9.083  -2.411  0.00  0.00    -0.126 OA
ENDBRANCH  13  16
ENDBRANCH   8  10
ENDBRANCH   2   5
BRANCH   1  19
ATOM     19  C   UNL     1       4.251   2.225   1.394  0.00  0.00    +0.140 C 
BRANCH  19  20
ATOM     20  C   UNL     1       3.672   2.186  -0.021  0.00  0.00    +0.162 C 
BRANCH  20  23
ATOM     21  C   UNL     1      -0.017   1.377   0.010  0.00  0.00    +0.003 A 
ATOM     22  C   UNL     1       1.171   2.086   0.002  0.00  0.00    +0.006 A 
ATOM     23  C   UNL     1       2.378   1.413  -0.013  0.00  0.00    -0.015 A 
ATOM     24  C   UNL     1       2.399   0.030  -0.021  0.00  0.00    +0.044 A 
ATOM     25  C   UNL     1       1.211  -0.679  -0.013  0.00  0.00    +0.124 A 
ATOM     26  C   UNL     1       0.002  -0.004   0.002  0.00  0.00    +0.038 A 
ATOM     27  F   UNL     1       1.230  -2.030  -0.022  0.00  0.00    -0.205 F 
ENDBRANCH  20  23
BRANCH  20  28
ATOM     28  O   UNL     1       4.602   1.549  -0.899  0.00  0.00    -0.386 OA
ATOM     29  H   UNL     1       4.815   0.638  -0.653  0.00  0.00    +0.210 HD
ENDBRANCH  20  28
ENDBRANCH  19  20
ENDBRANCH   1  19
TORSDOF 7
