REMARK  Name = ZINC18118266
REMARK  9 active torsions:
REMARK  status: ('A' for Active; 'I' for Inactive)
REMARK    1  A    between atoms: C_1  and  O_2
REMARK    2  A    between atoms: O_2  and  C_3
REMARK    3  A    between atoms: C_6  and  N_9
REMARK    4  A    between atoms: C_10  and  P_22
REMARK    5  A    between atoms: N_11  and  N_12
REMARK    6  A    between atoms: N_12  and  C_13
REMARK    7  A    between atoms: C_16  and  N_19
REMARK    8  A    between atoms: P_22  and  N_24
REMARK    9  A    between atoms: P_22  and  N_30
REMARK                            x       y       z     vdW  Elec       q    Type
REMARK                         _______ _______ _______ _____ _____    ______ ____
ROOT
ATOM      1  N   UNL     1      -4.814  -2.544   0.415  0.00  0.00    -0.295 N 
ATOM      2  C   UNL     1      -4.947  -3.863   0.432  0.00  0.00    +0.180 C 
ATOM      3  N   UNL     1      -6.134  -4.423   0.142  0.00  0.00    -0.289 N 
ATOM      4  H   UNL     1      -3.980  -2.144   0.123  0.00  0.00    +0.154 HD
ATOM      5  H   UNL     1      -6.897  -3.862  -0.065  0.00  0.00    +0.186 HD
ENDROOT
BRANCH   1   9
ATOM      6  C   UNL     1      -7.959  -0.135   1.610  0.00  0.00    +0.120 A 
ATOM      7  C   UNL     1      -6.961   0.383   0.787  0.00  0.00    +0.047 A 
ATOM      8  C   UNL     1      -5.921  -0.410   0.391  0.00  0.00    +0.027 A 
ATOM      9  C   UNL     1      -5.860  -1.743   0.813  0.00  0.00    +0.033 A 
ATOM     10  C   UNL     1      -6.864  -2.260   1.640  0.00  0.00    +0.027 A 
ATOM     11  C   UNL     1      -7.898  -1.460   2.036  0.00  0.00    +0.047 A 
BRANCH   6  13
ATOM     12  C   UNL     1      -8.991   2.003   1.527  0.00  0.00    +0.277 C 
ATOM     13  O   UNL     1      -8.990   0.655   2.001  0.00  0.00    -0.495 OA
ENDBRANCH   6  13
ENDBRANCH   1   9
BRANCH   3  14
ATOM     14  N   UNL     1      -6.259  -5.707   0.141  0.00  0.00    -0.259 N 
ATOM     15  H   UNL     1      -5.479  -6.270   0.269  0.00  0.00    +0.172 HD
BRANCH  14  16
ATOM     16  C   UNL     1      -7.493  -6.276  -0.041  0.00  0.00    +0.046 A 
ATOM     17  C   UNL     1      -8.620  -5.467  -0.231  0.00  0.00    +0.027 A 
ATOM     18  C   UNL     1      -9.856  -6.046  -0.413  0.00  0.00    +0.034 A 
ATOM     19  C   UNL     1      -9.987  -7.426  -0.408  0.00  0.00    +0.126 A 
ATOM     20  C   UNL     1      -8.876  -8.234  -0.220  0.00  0.00    +0.034 A 
ATOM     21  C   UNL     1      -7.632  -7.670  -0.043  0.00  0.00    +0.027 A 
BRANCH  19  22
ATOM     22  N   UNL     1     -11.319  -8.040  -0.605  0.00  0.00    +0.056 N 
ATOM     23  O   UNL     1     -12.377  -7.276  -0.783  0.00  0.00    -0.126 OA
ATOM     24  O   UNL     1     -11.447  -9.351  -0.601  0.00  0.00    -0.126 OA
ENDBRANCH  19  22
ENDBRANCH  14  16
ENDBRANCH   3  14
BRANCH   2  25
ATOM     25  P   UNL     1      -3.526  -4.913   0.844  0.00  0.00    +0.279 P 
ATOM     26  O   UNL     1      -3.988  -6.090   1.613  0.00  0.00    -0.279 OA
BRANCH  25  27
ATOM     27  N   UNL     1      -2.797  -5.414  -0.537  0.00  0.00    -0.231 NA
ATOM     28  C   UNL     1      -1.366  -5.755  -0.558  0.00  0.00    +0.121 C 
ATOM     29  C   UNL     1      -1.206  -7.133  -1.210  0.00  0.00    +0.175 C 
ATOM     30  O   UNL     1      -1.878  -7.137  -2.472  0.00  0.00    -0.377 OA
ATOM     31  C   UNL     1      -3.289  -6.925  -2.384  0.00  0.00    +0.175 C 
ATOM     32  C   UNL     1      -3.557  -5.542  -1.791  0.00  0.00    +0.121 C 
ENDBRANCH  25  27
BRANCH  25  33
ATOM     33  N   UNL     1      -2.457  -4.056   1.746  0.00  0.00    -0.231 NA
ATOM     34  C   UNL     1      -2.037  -4.528   3.075  0.00  0.00    +0.121 C 
ATOM     35  C   UNL     1      -0.505  -4.508   3.133  0.00  0.00    +0.175 C 
ATOM     36  O   UNL     1      -0.036  -3.215   2.741  0.00  0.00    -0.377 OA
ATOM     37  C   UNL     1      -0.365  -2.855   1.397  0.00  0.00    +0.175 C 
ATOM     38  C   UNL     1      -1.885  -2.795   1.248  0.00  0.00    +0.121 C 
ENDBRANCH  25  33
ENDBRANCH   2  25
TORSDOF 8
