REMARK  Name = ZINC32114779
REMARK  7 active torsions:
REMARK  status: ('A' for Active; 'I' for Inactive)
REMARK    1  A    between atoms: C_6  and  O_7
REMARK    2  A    between atoms: O_7  and  C_8
REMARK    3  A    between atoms: C_8  and  C_9
REMARK    4  A    between atoms: N_11  and  C_12
REMARK    5  A    between atoms: C_12  and  N_14
REMARK    6  A    between atoms: N_14  and  C_15
REMARK    7  A    between atoms: C_22  and  C_24
REMARK                            x       y       z     vdW  Elec       q    Type
REMARK                         _______ _______ _______ _____ _____    ______ ____
ROOT
ATOM      1  C   UNL     1      -1.233   1.649   0.044  0.00  0.00    +0.035 A 
ATOM      2  C   UNL     1      -1.253   3.040  -0.026  0.00  0.00    +0.027 A 
ATOM      3  C   UNL     1      -2.450   3.724   0.004  0.00  0.00    +0.050 A 
ATOM      4  C   UNL     1      -3.643   3.027   0.116  0.00  0.00    +0.156 A 
ATOM      5  C   UNL     1      -3.632   1.625   0.193  0.00  0.00    +0.112 A 
ATOM      6  C   UNL     1      -2.415   0.940   0.156  0.00  0.00    +0.054 A 
ATOM      7  N   UNL     1      -4.927   1.229   0.295  0.00  0.00    -0.209 NA
ATOM      8  C   UNL     1      -5.694   2.290   0.283  0.00  0.00    +0.230 A 
ATOM      9  O   UNL     1      -4.941   3.402   0.175  0.00  0.00    -0.435 OA
ENDROOT
BRANCH   8  10
ATOM     10  C   UNL     1      -7.168   2.271   0.375  0.00  0.00    +0.058 A 
ATOM     11  C   UNL     1      -7.847   1.055   0.478  0.00  0.00    +0.056 A 
ATOM     12  C   UNL     1      -9.225   1.044   0.569  0.00  0.00    +0.159 A 
ATOM     13  C   UNL     1      -9.934   2.237   0.547  0.00  0.00    +0.160 A 
ATOM     14  C   UNL     1      -9.265   3.445   0.440  0.00  0.00    +0.062 A 
ATOM     15  C   UNL     1      -7.887   3.468   0.353  0.00  0.00    +0.056 A 
ATOM     16 CL   UNL     1      -7.050   4.983   0.219  0.00  0.00    -0.083 Cl
ATOM     17  F   UNL     1     -11.283   2.220   0.631  0.00  0.00    -0.202 F 
ATOM     18  F   UNL     1      -9.884  -0.131   0.673  0.00  0.00    -0.202 F 
ENDBRANCH   8  10
BRANCH   1  19
ATOM     19  N   UNL     1      -0.011   0.966   0.007  0.00  0.00    -0.297 N 
ATOM     20  H   UNL     1       0.164   0.114   0.681  0.00  0.00    +0.154 HD
BRANCH  19  21
ATOM     21  C   UNL     1       0.951   1.352  -0.854  0.00  0.00    +0.141 C 
ATOM     22  S   UNL     1       0.631   2.585  -1.998  0.00  0.00    -0.018 S 
BRANCH  21  25
ATOM     23  C   UNL     1       3.126   1.153  -1.677  0.00  0.00    +0.256 C 
ATOM     24  O   UNL     1       2.900   2.026  -2.487  0.00  0.00    -0.272 OA
ATOM     25  N   UNL     1       2.164   0.767  -0.816  0.00  0.00    -0.265 N 
ATOM     26  H   UNL     1       2.370  -0.026  -0.081  0.00  0.00    +0.157 HD
BRANCH  23  27
ATOM     27  C   UNL     1       4.483   0.498  -1.634  0.00  0.00    +0.324 C 
BRANCH  27  28
ATOM     28  O   UNL     1       5.322   1.075  -2.637  0.00  0.00    -0.483 OA
BRANCH  28  34
ATOM     29  C   UNL     1       7.018  -0.409  -1.876  0.00  0.00    +0.047 A 
ATOM     30  C   UNL     1       8.305  -0.900  -1.978  0.00  0.00    +0.023 A 
ATOM     31  C   UNL     1       9.170  -0.386  -2.928  0.00  0.00    +0.041 A 
ATOM     32  C   UNL     1       8.745   0.618  -3.781  0.00  0.00    +0.023 A 
ATOM     33  C   UNL     1       7.457   1.108  -3.685  0.00  0.00    +0.047 A 
ATOM     34  C   UNL     1       6.589   0.594  -2.733  0.00  0.00    +0.121 A 
ATOM     35 CL   UNL     1      10.789  -1.001  -3.050  0.00  0.00    -0.084 Cl
ENDBRANCH  28  34
ENDBRANCH  27  28
ENDBRANCH  23  27
ENDBRANCH  21  25
ENDBRANCH  19  21
ENDBRANCH   1  19
TORSDOF 7
