REMARK  Name = ZINC04309038
REMARK  9 active torsions:
REMARK  status: ('A' for Active; 'I' for Inactive)
REMARK    1  A    between atoms: C_1  and  C_2
REMARK    2  A    between atoms: C_2  and  N_3
REMARK    3  A    between atoms: C_4  and  C_23
REMARK    4  A    between atoms: C_7  and  S_8
REMARK    5  A    between atoms: S_8  and  C_9
REMARK    6  A    between atoms: C_9  and  C_10
REMARK    7  A    between atoms: N_12  and  C_13
REMARK    8  A    between atoms: C_15  and  N_20
REMARK    9  A    between atoms: C_18  and  C_19
REMARK                            x       y       z     vdW  Elec       q    Type
REMARK                         _______ _______ _______ _____ _____    ______ ____
ROOT
ATOM      1  C   UNL     1       2.733   9.582  -0.023  0.00  0.00    +0.173 C 
ENDROOT
BRANCH   1   2
ATOM      2  C   UNL     1       3.731  10.699  -0.192  0.00  0.00    +0.227 C 
ATOM      3  O   UNL     1       4.871  10.449  -0.521  0.00  0.00    -0.275 OA
ATOM      4  N   UNL     1       3.356  11.976   0.023  0.00  0.00    -0.285 N 
ATOM      5  H   UNL     1       2.427  12.184   0.208  0.00  0.00    +0.155 HD
BRANCH   4   6
ATOM      6  C   UNL     1       4.308  13.001  -0.020  0.00  0.00    +0.038 A 
ATOM      7  C   UNL     1       5.644  12.721   0.232  0.00  0.00    +0.056 A 
ATOM      8  C   UNL     1       6.581  13.734   0.185  0.00  0.00    +0.128 A 
ATOM      9  C   UNL     1       6.189  15.028  -0.104  0.00  0.00    +0.033 A 
ATOM     10  C   UNL     1       4.858  15.311  -0.351  0.00  0.00    +0.007 A 
ATOM     11  C   UNL     1       3.916  14.301  -0.309  0.00  0.00    -0.029 A 
ATOM     12  C   UNL     1       2.466  14.611  -0.579  0.00  0.00    +0.045 C 
BRANCH   8  13
ATOM     13  N   UNL     1       8.007  13.435   0.449  0.00  0.00    +0.056 N 
ATOM     14  O   UNL     1       8.833  14.329   0.412  0.00  0.00    -0.126 OA
ATOM     15  O   UNL     1       8.354  12.296   0.703  0.00  0.00    -0.126 OA
ENDBRANCH   8  13
ENDBRANCH   4   6
ENDBRANCH   1   2
BRANCH   1  16
ATOM     16  S   UNL     1       3.534   7.999  -0.381  0.00  0.00    -0.077 S 
BRANCH  16  21
ATOM     17  N   UNL     1       2.201   5.542  -0.236  0.00  0.00    -0.302 N 
ATOM     18  C   UNL     1       0.924   5.122   0.065  0.00  0.00    +0.171 A 
ATOM     19  N   UNL     1       0.223   6.197   0.350  0.00  0.00    -0.128 NA
ATOM     20  N   UNL     1       0.962   7.244   0.244  0.00  0.00    -0.122 NA
ATOM     21  C   UNL     1       2.179   6.904  -0.114  0.00  0.00    +0.192 A 
BRANCH  18  22
ATOM     22  C   UNL     1       0.439   3.733   0.073  0.00  0.00    +0.056 A 
ATOM     23  C   UNL     1      -0.852   3.268   0.093  0.00  0.00    +0.019 A 
ATOM     24  C   UNL     1      -1.065   1.908   0.090  0.00  0.00    +0.008 A 
ATOM     25  C   UNL     1       0.004   1.071   0.078  0.00  0.00    +0.046 A 
ATOM     26  S   UNL     1       1.376   2.213   0.057  0.00  0.00    -0.094 S 
ENDBRANCH  18  22
BRANCH  17  28
ATOM     27  C   UNL     1       3.374   4.534  -2.131  0.00  0.00    +0.027 C 
ATOM     28  C   UNL     1       3.343   4.705  -0.611  0.00  0.00    +0.122 C 
ENDBRANCH  17  28
ENDBRANCH  16  21
ENDBRANCH   1  16
TORSDOF 7
