REMARK  Name = ZINC40383575
REMARK  4 active torsions:
REMARK  status: ('A' for Active; 'I' for Inactive)
REMARK    1  A    between atoms: C_1  and  C_2
REMARK    2  A    between atoms: C_5  and  C_37
REMARK    3  A    between atoms: C_22  and  C_24
REMARK    4  A    between atoms: N_26  and  C_27
REMARK                            x       y       z     vdW  Elec       q    Type
REMARK                         _______ _______ _______ _____ _____    ______ ____
ROOT
ATOM      1  C   UNL     1       2.530  -2.189   0.392  0.00  0.00    +0.009 C 
ATOM      2  C   UNL     1       1.933  -1.260  -0.667  0.00  0.00    +0.004 C 
ATOM      3  C   UNL     1       0.414  -1.441  -0.709  0.00  0.00    +0.009 C 
ATOM      4  C   UNL     1      -0.176  -1.135   0.669  0.00  0.00    +0.004 C 
ATOM      5  C   UNL     1       0.127   0.321   1.038  0.00  0.00    +0.111 C 
ATOM      6  N   UNL     1       1.577   0.542   0.939  0.00  0.00    -0.301 N 
ATOM      7  C   UNL     1       2.261   0.194  -0.314  0.00  0.00    +0.111 C 
ATOM      8  C   UNL     1       2.276   1.062   1.995  0.00  0.00    +0.200 A 
ATOM      9  N   UNL     1       1.601   1.477   3.101  0.00  0.00    -0.295 N 
ATOM     10  H   UNL     1       0.635   1.391   3.140  0.00  0.00    +0.172 HD
ATOM     11  C   UNL     1       2.273   2.009   4.144  0.00  0.00    +0.258 A 
ATOM     12  O   UNL     1       1.677   2.400   5.136  0.00  0.00    -0.267 OA
ATOM     13  C   UNL     1       3.666   2.102   4.066  0.00  0.00    +0.069 A 
ATOM     14  C   UNL     1       4.309   1.647   2.929  0.00  0.00    +0.138 A 
ATOM     15  N   UNL     1       3.588   1.144   1.919  0.00  0.00    -0.200 NA
ATOM     16  N   UNL     1       5.690   1.688   2.845  0.00  0.00    -0.270 N 
ATOM     17  C   UNL     1       6.442   1.917   3.934  0.00  0.00    +0.219 C 
ATOM     18  O   UNL     1       7.641   2.055   3.816  0.00  0.00    -0.275 OA
ATOM     19  C   UNL     1       5.814   2.004   5.300  0.00  0.00    +0.114 C 
ATOM     20  C   UNL     1       4.455   2.700   5.200  0.00  0.00    +0.122 C 
ATOM     21  C   UNL     1      -1.690  -1.348   0.635  0.00  0.00    +0.009 C 
ATOM     22  H   UNL     1       6.120   1.549   1.986  0.00  0.00    +0.156 HD
ENDROOT
BRANCH  20  23
ATOM     23  C   UNL     1       3.700   2.513   6.490  0.00  0.00    +0.225 C 
ATOM     24  O   UNL     1       3.525   1.399   6.935  0.00  0.00    -0.275 OA
ATOM     25  N   UNL     1       3.219   3.585   7.151  0.00  0.00    -0.285 N 
ATOM     26  H   UNL     1       3.294   4.470   6.759  0.00  0.00    +0.155 HD
BRANCH  25  27
ATOM     27  C   UNL     1       2.612   3.423   8.403  0.00  0.00    +0.037 A 
ATOM     28  C   UNL     1       1.561   4.249   8.777  0.00  0.00    +0.027 A 
ATOM     29  C   UNL     1       0.962   4.089  10.012  0.00  0.00    +0.051 A 
ATOM     30  C   UNL     1       1.409   3.104  10.881  0.00  0.00    +0.162 A 
ATOM     31  C   UNL     1       2.459   2.274  10.508  0.00  0.00    +0.164 A 
ATOM     32  C   UNL     1       3.057   2.432   9.267  0.00  0.00    +0.072 A 
ATOM     33  O   UNL     1       2.906   1.297  11.343  0.00  0.00    -0.485 OA
ATOM     34  C   UNL     1       2.529   1.406  12.720  0.00  0.00    +0.270 C 
ATOM     35  C   UNL     1       1.030   1.729  12.784  0.00  0.00    +0.270 C 
ATOM     36  O   UNL     1       0.809   2.964  12.095  0.00  0.00    -0.485 OA
ENDBRANCH  25  27
ENDBRANCH  20  23
TORSDOF 2
