REMARK  Name = ZINC33032963
REMARK  5 active torsions:
REMARK  status: ('A' for Active; 'I' for Inactive)
REMARK    1  A    between atoms: C_3  and  S_8
REMARK    2  A    between atoms: S_8  and  N_11
REMARK    3  A    between atoms: N_11  and  C_12
REMARK    4  A    between atoms: C_14  and  C_24
REMARK    5  A    between atoms: C_17  and  N_18
REMARK                            x       y       z     vdW  Elec       q    Type
REMARK                         _______ _______ _______ _____ _____    ______ ____
ROOT
ATOM      1  C   UNL     1      -3.479   1.666   0.092  0.00  0.00    +0.070 A 
ATOM      2  C   UNL     1      -2.235   1.266   0.541  0.00  0.00    +0.039 A 
ATOM      3  C   UNL     1      -1.150   2.145   0.458  0.00  0.00    +0.039 A 
ATOM      4  C   UNL     1      -1.329   3.425  -0.074  0.00  0.00    +0.015 A 
ATOM      5  C   UNL     1      -2.571   3.817  -0.525  0.00  0.00    +0.026 A 
ATOM      6  C   UNL     1      -3.650   2.945  -0.444  0.00  0.00    +0.052 A 
ENDROOT
BRANCH   6   7
ATOM      7  N   UNL     1      -4.905   3.348  -0.897  0.00  0.00    -0.332 N 
ATOM      8  C   UNL     1      -4.929   4.792  -1.167  0.00  0.00    +0.086 C 
ATOM      9  C   UNL     1      -6.342   5.207  -1.585  0.00  0.00    -0.063 C 
ATOM     10  N   UNL     1      -6.741   4.445  -2.776  0.00  0.00    +0.381 N 
ATOM     11  C   UNL     1      -6.716   3.000  -2.507  0.00  0.00    -0.063 C 
ATOM     12  C   UNL     1      -5.304   2.586  -2.089  0.00  0.00    +0.086 C 
ATOM     13  H   UNL     1      -7.761   4.732  -3.071  0.00  0.00    -0.086 HD
ATOM     14  H   UNL     1      -6.046   4.662  -3.601  0.00  0.00    -0.086 HD
ENDBRANCH   6   7
BRANCH   3  15
ATOM     15  C   UNL     1       0.180   1.724   0.936  0.00  0.00    +0.247 C 
ATOM     16  O   UNL     1       0.528   0.564   0.823  0.00  0.00    -0.270 OA
ATOM     17  N   UNL     1       1.012   2.625   1.494  0.00  0.00    -0.293 N 
ATOM     18  C   UNL     1       0.649   4.050   1.565  0.00  0.00    +0.136 C 
ATOM     19  C   UNL     1       0.851   4.525   3.013  0.00  0.00    +0.179 C 
ATOM     20  O   UNL     1       2.173   4.186   3.437  0.00  0.00    -0.377 OA
ATOM     21  C   UNL     1       2.437   2.781   3.465  0.00  0.00    +0.179 C 
ATOM     22  C   UNL     1       2.314   2.216   2.046  0.00  0.00    +0.136 C 
ENDBRANCH   3  15
BRANCH   1  23
ATOM     23  N   UNL     1      -4.568   0.788   0.173  0.00  0.00    -0.214 N 
ATOM     24  H   UNL     1      -5.032   0.402  -0.747  0.00  0.00    +0.174 HD
BRANCH  23  25
ATOM     25  S   UNL     1      -5.156   0.334   1.652  0.00  0.00    +0.072 S 
ATOM     26  O   UNL     1      -6.242  -0.549   1.404  0.00  0.00    -0.150 OA
ATOM     27  O   UNL     1      -4.033  -0.042   2.438  0.00  0.00    -0.150 OA
BRANCH  25  30
ATOM     28  C   UNL     1      -7.706   3.221   2.794  0.00  0.00    +0.040 A 
ATOM     29  C   UNL     1      -7.169   2.093   2.204  0.00  0.00    +0.031 A 
ATOM     30  C   UNL     1      -5.840   1.772   2.406  0.00  0.00    +0.109 A 
ATOM     31  C   UNL     1      -5.047   2.577   3.203  0.00  0.00    +0.031 A 
ATOM     32  C   UNL     1      -5.581   3.709   3.790  0.00  0.00    +0.040 A 
ATOM     33  C   UNL     1      -6.912   4.030   3.589  0.00  0.00    +0.124 A 
ATOM     34  F   UNL     1      -7.436   5.133   4.167  0.00  0.00    -0.205 F 
ENDBRANCH  25  30
ENDBRANCH  23  25
ENDBRANCH   1  23
TORSDOF 5
