REMARK  Name = ZINC13036098
REMARK  8 active torsions:
REMARK  status: ('A' for Active; 'I' for Inactive)
REMARK    1  A    between atoms: C_1  and  C_2
REMARK    2  A    between atoms: C_2  and  C_3
REMARK    3  A    between atoms: C_2  and  C_4
REMARK    4  A    between atoms: C_4  and  N_5
REMARK    5  A    between atoms: C_9  and  S_11
REMARK    6  A    between atoms: S_11  and  C_12
REMARK    7  A    between atoms: C_12  and  C_13
REMARK    8  A    between atoms: C_21  and  C_25
REMARK                            x       y       z     vdW  Elec       q    Type
REMARK                         _______ _______ _______ _____ _____    ______ ____
ROOT
ATOM      1  C   UNL     1      -0.016   1.354   0.009  0.00  0.00    +0.121 A 
ATOM      2  N   UNL     1       0.002  -0.004   0.002  0.00  0.00    -0.310 N 
ATOM      3  H   UNL     1      -0.834  -0.496   0.007  0.00  0.00    +0.170 HD
ATOM      4  C   UNL     1       1.176  -0.677  -0.013  0.00  0.00    +0.259 A 
ATOM      5  O   UNL     1       1.207  -1.894  -0.020  0.00  0.00    -0.267 OA
ATOM      6  C   UNL     1       2.414   0.120  -0.020  0.00  0.00    +0.065 A 
ATOM      7  C   UNL     1       3.673  -0.479  -0.036  0.00  0.00    +0.016 A 
ATOM      8  C   UNL     1       4.796   0.298  -0.043  0.00  0.00    +0.016 A 
ATOM      9  C   UNL     1       4.695   1.695  -0.035  0.00  0.00    +0.065 A 
ATOM     10  C   UNL     1       3.450   2.312  -0.019  0.00  0.00    +0.043 A 
ATOM     11  C   UNL     1       2.296   1.527  -0.012  0.00  0.00    +0.079 A 
ATOM     12  N   UNL     1       1.058   2.083   0.003  0.00  0.00    -0.233 NA
ENDROOT
BRANCH   9  13
ATOM     13  C   UNL     1       5.924   2.520  -0.042  0.00  0.00    +0.387 C 
ATOM     14  O   UNL     1       5.841   3.731  -0.035  0.00  0.00    -0.241 OA
ATOM     15  O   UNL     1       7.133   1.927  -0.057  0.00  0.00    -0.241 OA
ENDBRANCH   9  13
BRANCH   1  16
ATOM     16  C   UNL     1      -1.353   2.051   0.019  0.00  0.00    +0.150 C 
BRANCH  16  17
ATOM     17  S   UNL     1      -1.098   3.847   0.028  0.00  0.00    -0.089 S 
BRANCH  17  22
ATOM     18  N   UNL     1      -6.070   6.828   0.069  0.00  0.00    -0.322 N 
ATOM     19  C   UNL     1      -5.022   5.915   0.059  0.00  0.00    +0.182 A 
ATOM     20  N   UNL     1      -5.061   4.597   0.052  0.00  0.00    -0.125 NA
ATOM     21  N   UNL     1      -3.889   3.877   0.042  0.00  0.00    -0.133 NA
ATOM     22  C   UNL     1      -2.731   4.509   0.039  0.00  0.00    +0.160 A 
ATOM     23  S   UNL     1      -3.261   6.215   0.058  0.00  0.00    -0.025 S 
ATOM     24  H   UNL     1      -5.885   7.780   0.074  0.00  0.00    +0.148 HD
BRANCH  18  25
ATOM     25  C   UNL     1      -7.456   6.352   0.073  0.00  0.00    +0.106 C 
BRANCH  25  27
ATOM     26  C   UNL     1      -8.253   8.336  -1.219  0.00  0.00    +0.009 C 
ATOM     27  C   UNL     1      -8.407   7.550   0.085  0.00  0.00    -0.000 C 
ATOM     28  C   UNL     1      -9.849   7.055   0.215  0.00  0.00    +0.009 C 
ENDBRANCH  25  27
ENDBRANCH  18  25
ENDBRANCH  17  22
ENDBRANCH  16  17
ENDBRANCH   1  16
TORSDOF 6
