REMARK  Name = ZINC39691317
REMARK  11 active torsions:
REMARK  status: ('A' for Active; 'I' for Inactive)
REMARK    1  A    between atoms: C_1  and  C_2
REMARK    2  A    between atoms: C_2  and  C_3
REMARK    3  A    between atoms: C_3  and  C_4
REMARK    4  A    between atoms: C_4  and  C_6
REMARK    5  A    between atoms: C_4  and  C_7
REMARK    6  A    between atoms: C_11  and  C_20
REMARK    7  A    between atoms: N_22  and  C_23
REMARK    8  A    between atoms: C_23  and  C_24
REMARK    9  A    between atoms: C_24  and  N_25
REMARK   10  A    between atoms: C_26  and  C_28
REMARK   11  A    between atoms: C_28  and  C_29
REMARK                            x       y       z     vdW  Elec       q    Type
REMARK                         _______ _______ _______ _____ _____    ______ ____
ROOT
ATOM      1  C   UNL     1      -1.037  -5.878  -2.929  0.00  0.00    +0.218 C 
ATOM      2  O   UNL     1      -1.560  -4.810  -2.690  0.00  0.00    -0.275 OA
ATOM      3  N   UNL     1      -1.797  -6.941  -3.259  0.00  0.00    -0.314 N 
ATOM      4  H   UNL     1      -1.379  -7.795  -3.450  0.00  0.00    +0.149 HD
ENDROOT
BRANCH   1   9
ATOM      5  C   UNL     1       1.315  -2.550  -2.248  0.00  0.00    +0.218 C 
ATOM      6  O   UNL     1       1.689  -1.681  -3.007  0.00  0.00    -0.275 OA
ATOM      7  N   UNL     1       1.443  -3.847  -2.594  0.00  0.00    -0.300 N 
ATOM      8  C   UNL     1       1.043  -5.039  -1.810  0.00  0.00    +0.121 C 
ATOM      9  C   UNL     1       0.462  -6.017  -2.857  0.00  0.00    +0.100 C 
ATOM     10  C   UNL     1       1.106  -5.595  -4.188  0.00  0.00    -0.004 C 
ATOM     11  C   UNL     1       2.010  -4.402  -3.846  0.00  0.00    +0.115 C 
ATOM     12  C   UNL     1       0.031  -5.166  -5.182  0.00  0.00    -0.010 C 
ATOM     13  C   UNL     1       0.691  -4.806  -6.516  0.00  0.00    -0.082 C 
ATOM     14  N   UNL     1       1.426  -5.968  -7.030  0.00  0.00    +0.379 N 
ATOM     15  C   UNL     1       2.517  -6.316  -6.112  0.00  0.00    -0.082 C 
ATOM     16  C   UNL     1       1.934  -6.740  -4.761  0.00  0.00    -0.010 C 
ATOM     17  H   UNL     1       0.797  -6.751  -7.115  0.00  0.00    -0.086 HD
ATOM     18  H   UNL     1       1.809  -5.747  -7.937  0.00  0.00    -0.086 HD
BRANCH   5  19
ATOM     19  C   UNL     1       0.708  -2.181  -0.920  0.00  0.00    +0.072 C 
ATOM     20  C   UNL     1       1.547  -2.783   0.209  0.00  0.00    +0.017 C 
BRANCH  19  21
ATOM     21  C   UNL     1       0.680  -0.658  -0.778  0.00  0.00    +0.012 C 
BRANCH  21  23
ATOM     22  C   UNL     1      -0.076   1.244   0.656  0.00  0.00    +0.004 C 
ATOM     23  C   UNL     1      -0.048  -0.279   0.514  0.00  0.00    -0.003 C 
ENDBRANCH  21  23
ENDBRANCH  19  21
ENDBRANCH   5  19
ENDBRANCH   1   9
BRANCH   3  24
ATOM     24  C   UNL     1      -3.254  -6.806  -3.330  0.00  0.00    +0.123 C 
BRANCH  24  25
ATOM     25  C   UNL     1      -3.872  -8.150  -3.722  0.00  0.00    +0.123 C 
BRANCH  25  26
ATOM     26  N   UNL     1      -5.329  -8.015  -3.793  0.00  0.00    -0.314 N 
ATOM     27  C   UNL     1      -6.089  -9.078  -4.123  0.00  0.00    +0.217 C 
ATOM     28  O   UNL     1      -5.567 -10.146  -4.362  0.00  0.00    -0.275 OA
ATOM     29  H   UNL     1      -5.747  -7.161  -3.601  0.00  0.00    +0.149 HD
BRANCH  27  30
ATOM     30  C   UNL     1      -7.588  -8.939  -4.195  0.00  0.00    +0.131 C 
BRANCH  30  31
ATOM     31  C   UNL     1      -8.197 -10.262  -4.582  0.00  0.00    -0.031 A 
ATOM     32  C   UNL     1      -8.480 -10.530  -5.886  0.00  0.00    +0.005 A 
ATOM     33  C   UNL     1      -9.043 -11.748  -6.263  0.00  0.00    +0.001 A 
ATOM     34  C   UNL     1      -9.327 -12.705  -5.337  0.00  0.00    +0.008 A 
ATOM     35  C   UNL     1      -9.049 -12.465  -3.981  0.00  0.00    -0.018 A 
ATOM     36  C   UNL     1      -8.470 -11.228  -3.599  0.00  0.00    -0.014 A 
ATOM     37  C   UNL     1      -8.186 -10.991  -2.243  0.00  0.00    +0.009 A 
ATOM     38  C   UNL     1      -8.465 -11.950  -1.319  0.00  0.00    +0.001 A 
ATOM     39  C   UNL     1      -9.027 -13.168  -1.695  0.00  0.00    +0.001 A 
ATOM     40  C   UNL     1      -9.328 -13.428  -2.997  0.00  0.00    +0.008 A 
ENDBRANCH  30  31
ENDBRANCH  27  30
ENDBRANCH  25  26
ENDBRANCH  24  25
ENDBRANCH   3  24
TORSDOF 9
