REMARK  Name = ZINC36220523
REMARK  8 active torsions:
REMARK  status: ('A' for Active; 'I' for Inactive)
REMARK    1  A    between atoms: C_1  and  C_2
REMARK    2  A    between atoms: C_7  and  C_8
REMARK    3  A    between atoms: C_8  and  N_9
REMARK    4  A    between atoms: C_10  and  C_32
REMARK    5  A    between atoms: C_12  and  C_17
REMARK    6  A    between atoms: C_20  and  N_23
REMARK    7  A    between atoms: C_24  and  C_26
REMARK    8  A    between atoms: N_34  and  C_35
REMARK                            x       y       z     vdW  Elec       q    Type
REMARK                         _______ _______ _______ _____ _____    ______ ____
ROOT
ATOM      1  N   UNL     1      -1.304   0.336   2.503  0.00  0.00    -0.248 N 
ATOM      2  C   UNL     1      -2.286   1.413   2.271  0.00  0.00    +0.211 C 
ATOM      3  C   UNL     1      -3.610   0.752   2.722  0.00  0.00    +0.238 C 
ATOM      4  O   UNL     1      -3.143  -0.261   3.635  0.00  0.00    -0.440 OA
ATOM      5  C   UNL     1      -1.892  -0.595   3.277  0.00  0.00    +0.405 C 
ATOM      6  O   UNL     1      -1.348  -1.627   3.619  0.00  0.00    -0.226 OA
ENDROOT
BRANCH   3   7
ATOM      7  C   UNL     1      -4.329   0.132   1.551  0.00  0.00    -0.005 A 
ATOM      8  C   UNL     1      -4.007  -1.149   1.144  0.00  0.00    +0.009 A 
ATOM      9  C   UNL     1      -4.664  -1.720   0.071  0.00  0.00    +0.024 A 
ATOM     10  C   UNL     1      -5.648  -1.005  -0.598  0.00  0.00    +0.034 A 
ATOM     11  C   UNL     1      -5.969   0.282  -0.186  0.00  0.00    +0.024 A 
ATOM     12  C   UNL     1      -5.312   0.845   0.890  0.00  0.00    +0.009 A 
BRANCH  10  13
ATOM     13  N   UNL     1      -6.315  -1.580  -1.685  0.00  0.00    -0.282 N 
ATOM     14  C   UNL     1      -6.525  -2.911  -1.720  0.00  0.00    +0.248 C 
ATOM     15  O   UNL     1      -6.223  -3.599  -0.764  0.00  0.00    -0.270 OA
ATOM     16  H   UNL     1      -6.626  -1.021  -2.414  0.00  0.00    +0.155 HD
BRANCH  14  17
ATOM     17  C   UNL     1      -7.122  -3.534  -2.920  0.00  0.00    +0.037 A 
ATOM     18  C   UNL     1      -7.464  -2.747  -4.021  0.00  0.00    +0.013 A 
ATOM     19  C   UNL     1      -8.021  -3.335  -5.138  0.00  0.00    +0.001 A 
ATOM     20  C   UNL     1      -8.240  -4.701  -5.168  0.00  0.00    +0.000 A 
ATOM     21  C   UNL     1      -7.903  -5.486  -4.080  0.00  0.00    +0.001 A 
ATOM     22  C   UNL     1      -7.340  -4.912  -2.959  0.00  0.00    +0.013 A 
ENDBRANCH  14  17
ENDBRANCH  10  13
ENDBRANCH   3   7
BRANCH   2  23
ATOM     23  C   UNL     1      -1.969   2.620   3.115  0.00  0.00    +0.242 C 
ATOM     24  O   UNL     1      -1.244   2.511   4.082  0.00  0.00    -0.273 OA
ATOM     25  N   UNL     1      -2.491   3.821   2.797  0.00  0.00    -0.284 N 
ATOM     26  H   UNL     1      -3.127   3.896   2.069  0.00  0.00    +0.155 HD
BRANCH  25  27
ATOM     27  C   UNL     1      -2.116   4.960   3.518  0.00  0.00    +0.033 A 
ATOM     28  C   UNL     1      -3.033   5.982   3.732  0.00  0.00    +0.023 A 
ATOM     29  C   UNL     1      -2.659   7.105   4.444  0.00  0.00    +0.002 A 
ATOM     30  C   UNL     1      -1.375   7.213   4.944  0.00  0.00    +0.000 A 
ATOM     31  C   UNL     1      -0.460   6.198   4.732  0.00  0.00    +0.002 A 
ATOM     32  C   UNL     1      -0.829   5.070   4.026  0.00  0.00    +0.023 A 
ENDBRANCH  25  27
ENDBRANCH   2  23
BRANCH   1  33
ATOM     33  C   UNL     1       0.064   0.287   1.981  0.00  0.00    +0.147 C 
BRANCH  33  40
ATOM     34  C   UNL     1       2.546  -0.327   0.636  0.00  0.00    +0.044 C 
ATOM     35  C   UNL     1       1.233  -0.551  -0.068  0.00  0.00    -0.046 A 
ATOM     36  C   UNL     1       1.216  -1.055  -1.355  0.00  0.00    +0.003 A 
ATOM     37  C   UNL     1       0.011  -1.260  -2.001  0.00  0.00    +0.000 A 
ATOM     38  C   UNL     1      -1.177  -0.961  -1.359  0.00  0.00    +0.000 A 
ATOM     39  C   UNL     1      -1.160  -0.458  -0.072  0.00  0.00    +0.005 A 
ATOM     40  C   UNL     1       0.045  -0.257   0.575  0.00  0.00    -0.027 A 
ENDBRANCH  33  40
ENDBRANCH   1  33
TORSDOF 7
