REMARK  Name = ZINC39736979
REMARK  8 active torsions:
REMARK  status: ('A' for Active; 'I' for Inactive)
REMARK    1  A    between atoms: C_1  and  C_2
REMARK    2  A    between atoms: C_4  and  C_21
REMARK    3  A    between atoms: C_5  and  C_20
REMARK    4  A    between atoms: C_6  and  C_8
REMARK    5  A    between atoms: N_10  and  N_11
REMARK    6  A    between atoms: C_12  and  C_14
REMARK    7  A    between atoms: N_18  and  C_19
REMARK    8  A    between atoms: C_21  and  C_23
REMARK                            x       y       z     vdW  Elec       q    Type
REMARK                         _______ _______ _______ _____ _____    ______ ____
ROOT
ATOM      1  C   UNL     1       2.218  -2.780   1.627  0.00  0.00    +0.278 C 
ATOM      2  O   UNL     1       3.167  -3.343   1.121  0.00  0.00    -0.267 OA
ATOM      3  N   UNL     1       2.201  -2.548   2.954  0.00  0.00    -0.229 N 
ATOM      4  H   UNL     1       1.442  -2.098   3.358  0.00  0.00    +0.173 HD
ENDROOT
BRANCH   1   9
ATOM      5  C   UNL     1      -1.103   0.027  -0.062  0.00  0.00    +0.038 C 
ATOM      6  C   UNL     1      -0.881  -1.478   0.099  0.00  0.00    +0.137 C 
ATOM      7  C   UNL     1      -0.180  -2.037  -1.120  0.00  0.00    +0.024 C 
ATOM      8  C   UNL     1       0.988  -2.549  -0.671  0.00  0.00    -0.012 C 
ATOM      9  C   UNL     1       1.073  -2.346   0.781  0.00  0.00    +0.125 C 
ATOM     10  N   UNL     1       0.017  -1.741   1.230  0.00  0.00    -0.271 NA
ATOM     11  C   UNL     1       2.034  -3.219  -1.524  0.00  0.00    +0.046 C 
BRANCH   7  12
ATOM     12  C   UNL     1      -0.666  -2.025  -2.499  0.00  0.00    +0.159 C 
ATOM     13  O   UNL     1       0.007  -2.513  -3.383  0.00  0.00    -0.293 OA
ATOM     14  C   UNL     1      -2.002  -1.408  -2.822  0.00  0.00    +0.091 C 
ENDBRANCH   7  12
ENDBRANCH   1   9
BRANCH   3  15
ATOM     15  N   UNL     1       3.279  -2.956   3.750  0.00  0.00    -0.229 N 
ATOM     16  C   UNL     1       3.262  -2.724   5.078  0.00  0.00    +0.277 C 
ATOM     17  O   UNL     1       2.361  -2.070   5.570  0.00  0.00    -0.267 OA
ATOM     18  H   UNL     1       4.038  -3.405   3.346  0.00  0.00    +0.173 HD
BRANCH  16  19
ATOM     19  C   UNL     1       4.330  -3.258   5.930  0.00  0.00    +0.106 A 
ATOM     20  C   UNL     1       5.449  -3.940   5.502  0.00  0.00    +0.032 A 
ATOM     21  C   UNL     1       6.194  -4.263   6.640  0.00  0.00    +0.020 A 
ATOM     22  C   UNL     1       5.532  -3.783   7.720  0.00  0.00    +0.086 A 
ATOM     23  N   UNL     1       4.400  -3.166   7.301  0.00  0.00    -0.346 N 
ATOM     24  C   UNL     1       3.414  -2.512   8.165  0.00  0.00    +0.149 C 
ENDBRANCH  16  19
ENDBRANCH   3  15
TORSDOF 4
