REMARK  Name = ZINC45417211
REMARK  8 active torsions:
REMARK  status: ('A' for Active; 'I' for Inactive)
REMARK    1  A    between atoms: C_1  and  C_2
REMARK    2  A    between atoms: C_2  and  C_4
REMARK    3  A    between atoms: C_2  and  O_8
REMARK    4  A    between atoms: N_6  and  C_7
REMARK    5  A    between atoms: O_8  and  C_9
REMARK    6  A    between atoms: C_9  and  C_11
REMARK    7  A    between atoms: C_25  and  C_26
REMARK    8  A    between atoms: C_30  and  N_32
REMARK                            x       y       z     vdW  Elec       q    Type
REMARK                         _______ _______ _______ _____ _____    ______ ____
ROOT
ATOM      1  C   UNL     1       0.736  -1.108  -3.401  0.00  0.00    +0.073 A 
ATOM      2  C   UNL     1       0.631  -2.515  -3.787  0.00  0.00    +0.015 A 
ATOM      3  C   UNL     1       0.096  -3.474  -2.921  0.00  0.00    +0.011 A 
ATOM      4  C   UNL     1       0.015  -4.775  -3.322  0.00  0.00    +0.001 A 
ATOM      5  C   UNL     1       0.460  -5.162  -4.585  0.00  0.00    +0.002 A 
ATOM      6  C   UNL     1       0.986  -4.255  -5.452  0.00  0.00    +0.028 A 
ATOM      7  C   UNL     1       1.085  -2.902  -5.073  0.00  0.00    +0.072 A 
ATOM      8  N   UNL     1       1.597  -1.992  -5.899  0.00  0.00    -0.247 NA
ATOM      9  C   UNL     1       1.704  -0.714  -5.574  0.00  0.00    +0.072 A 
ATOM     10  C   UNL     1       1.273  -0.225  -4.329  0.00  0.00    -0.007 A 
ATOM     11  C   UNL     1       1.375   1.232  -3.968  0.00  0.00    +0.038 C 
ATOM     12  C   UNL     1       2.436   1.937  -4.808  0.00  0.00    +0.009 C 
ATOM     13  C   UNL     1       2.141   1.707  -6.296  0.00  0.00    +0.037 C 
ATOM     14  C   UNL     1       2.293   0.222  -6.559  0.00  0.00    -0.021 C 
ATOM     15  C   UNL     1       2.926  -0.231  -7.655  0.00  0.00    +0.013 C 
ENDROOT
BRANCH  15  16
ATOM     16  C   UNL     1       3.352   0.714  -8.702  0.00  0.00    -0.023 A 
ATOM     17  C   UNL     1       4.518   0.473  -9.434  0.00  0.00    +0.008 A 
ATOM     18  C   UNL     1       4.909   1.361 -10.413  0.00  0.00    +0.003 A 
ATOM     19  C   UNL     1       4.151   2.490 -10.672  0.00  0.00    +0.033 A 
ATOM     20  C   UNL     1       2.995   2.736  -9.952  0.00  0.00    +0.127 A 
ATOM     21  C   UNL     1       2.588   1.853  -8.973  0.00  0.00    +0.040 A 
BRANCH  20  22
ATOM     22  N   UNL     1       2.191   3.945 -10.236  0.00  0.00    +0.056 N 
ATOM     23  O   UNL     1       2.545   4.718 -11.096  0.00  0.00    -0.126 OA
ATOM     24  O   UNL     1       1.181   4.161  -9.607  0.00  0.00    -0.126 OA
ENDBRANCH  20  22
ENDBRANCH  15  16
BRANCH   1  25
ATOM     25  C   UNL     1       0.281  -0.642  -2.074  0.00  0.00    +0.341 C 
ATOM     26  O   UNL     1      -0.866  -0.277  -1.919  0.00  0.00    -0.245 OA
BRANCH  25  27
ATOM     27  O   UNL     1       1.140  -0.623  -1.036  0.00  0.00    -0.449 OA
BRANCH  27  29
ATOM     28  C   UNL     1       0.835   1.352   0.323  0.00  0.00    +0.062 C 
ATOM     29  C   UNL     1       0.633  -0.161   0.217  0.00  0.00    +0.259 C 
BRANCH  29  30
ATOM     30  C   UNL     1       1.369  -0.846   1.340  0.00  0.00    +0.253 C 
ATOM     31  O   UNL     1       2.302  -1.581   1.094  0.00  0.00    -0.272 OA
ATOM     32  N   UNL     1       0.991  -0.641   2.617  0.00  0.00    -0.315 N 
ATOM     33  C   UNL     1       1.706  -1.307   3.709  0.00  0.00    +0.128 C 
ATOM     34  H   UNL     1       0.245  -0.053   2.814  0.00  0.00    +0.148 HD
ENDBRANCH  29  30
ENDBRANCH  27  29
ENDBRANCH  25  27
ENDBRANCH   1  25
TORSDOF 6
