REMARK  Name = ZINC12565969
REMARK  11 active torsions:
REMARK  status: ('A' for Active; 'I' for Inactive)
REMARK    1  A    between atoms: C_1  and  N_2
REMARK    2  A    between atoms: N_2  and  C_3
REMARK    3  A    between atoms: N_2  and  C_4
REMARK    4  A    between atoms: C_4  and  C_6
REMARK    5  A    between atoms: C_4  and  C_29
REMARK    6  A    between atoms: C_6  and  N_7
REMARK    7  A    between atoms: N_7  and  C_8
REMARK    8  A    between atoms: C_8  and  C_10
REMARK    9  A    between atoms: C_8  and  C_16
REMARK   10  A    between atoms: N_18  and  C_19
REMARK   11  A    between atoms: C_22  and  N_26
REMARK                            x       y       z     vdW  Elec       q    Type
REMARK                         _______ _______ _______ _____ _____    ______ ____
ROOT
ATOM      1  C   UNL     1      -2.752   1.758  -2.542  0.00  0.00    +0.171 C 
ENDROOT
BRANCH   1   2
ATOM      2  C   UNL     1      -1.976   1.502  -3.808  0.00  0.00    -0.022 A 
ATOM      3  C   UNL     1      -0.619   1.762  -3.850  0.00  0.00    +0.005 A 
ATOM      4  C   UNL     1       0.093   1.528  -5.012  0.00  0.00    +0.000 A 
ATOM      5  C   UNL     1      -0.551   1.033  -6.130  0.00  0.00    +0.000 A 
ATOM      6  C   UNL     1      -1.908   0.773  -6.087  0.00  0.00    +0.000 A 
ATOM      7  C   UNL     1      -2.620   1.003  -4.925  0.00  0.00    +0.005 A 
ENDBRANCH   1   2
BRANCH   1   8
ATOM      8  C   UNL     1      -3.074   3.226  -2.437  0.00  0.00    +0.239 C 
ATOM      9  O   UNL     1      -2.672   3.869  -1.490  0.00  0.00    -0.273 OA
ATOM     10  N   UNL     1      -3.808   3.825  -3.396  0.00  0.00    -0.283 N 
ATOM     11  H   UNL     1      -4.067   3.330  -4.189  0.00  0.00    +0.155 HD
BRANCH  10  12
ATOM     12  C   UNL     1      -4.197   5.161  -3.247  0.00  0.00    +0.048 A 
ATOM     13  C   UNL     1      -3.368   6.058  -2.587  0.00  0.00    +0.026 A 
ATOM     14  C   UNL     1      -3.755   7.376  -2.441  0.00  0.00    +0.034 A 
ATOM     15  C   UNL     1      -4.967   7.803  -2.952  0.00  0.00    +0.127 A 
ATOM     16  C   UNL     1      -5.795   6.913  -3.611  0.00  0.00    +0.049 A 
ATOM     17  C   UNL     1      -5.412   5.594  -3.765  0.00  0.00    +0.041 A 
ATOM     18 BR   UNL     1      -6.542   4.380  -4.672  0.00  0.00    -0.048 Br
BRANCH  15  19
ATOM     19  N   UNL     1      -5.378   9.216  -2.794  0.00  0.00    +0.056 N 
ATOM     20  O   UNL     1      -4.655   9.995  -2.218  0.00  0.00    -0.126 OA
ATOM     21  O   UNL     1      -6.437   9.591  -3.240  0.00  0.00    -0.126 OA
ENDBRANCH  15  19
ENDBRANCH  10  12
ENDBRANCH   1   8
BRANCH   1  22
ATOM     22  N   UNL     1      -1.947   1.349  -1.383  0.00  0.00    -0.303 NA
ATOM     23  H   UNL     1      -2.182   1.897  -0.568  0.00  0.00    +0.123 HD
BRANCH  22  24
ATOM     24  C   UNL     1      -2.103  -0.087  -1.114  0.00  0.00    +0.071 C 
BRANCH  24  25
ATOM     25  C   UNL     1      -1.251  -0.474   0.097  0.00  0.00    -0.024 C 
BRANCH  25  26
ATOM     26  C   UNL     1      -1.435  -1.940   0.392  0.00  0.00    -0.060 A 
ATOM     27  C   UNL     1      -0.745  -2.885  -0.344  0.00  0.00    +0.002 A 
ATOM     28  C   UNL     1      -0.913  -4.230  -0.074  0.00  0.00    +0.000 A 
ATOM     29  C   UNL     1      -1.771  -4.630   0.934  0.00  0.00    +0.000 A 
ATOM     30  C   UNL     1      -2.460  -3.686   1.671  0.00  0.00    +0.000 A 
ATOM     31  C   UNL     1      -2.288  -2.340   1.403  0.00  0.00    +0.002 A 
ENDBRANCH  25  26
BRANCH  25  33
ATOM     32  C   UNL     1       0.366   1.241  -0.350  0.00  0.00    -0.096 C 
ATOM     33  N   UNL     1       0.164  -0.206  -0.193  0.00  0.00    +0.381 N 
ATOM     34  C   UNL     1       0.993  -0.698   0.915  0.00  0.00    -0.096 C 
ATOM     35  H   UNL     1       0.427  -0.677  -1.046  0.00  0.00    -0.082 HD
ENDBRANCH  25  33
ENDBRANCH  24  25
ENDBRANCH  22  24
ENDBRANCH   1  22
TORSDOF 9
