REMARK  Name = ZINC15947509
REMARK  9 active torsions:
REMARK  status: ('A' for Active; 'I' for Inactive)
REMARK    1  A    between atoms: C_1  and  C_2
REMARK    2  A    between atoms: C_2  and  O_3
REMARK    3  A    between atoms: O_3  and  C_4
REMARK    4  A    between atoms: C_6  and  C_18
REMARK    5  A    between atoms: C_9  and  O_10
REMARK    6  A    between atoms: O_10  and  C_11
REMARK    7  A    between atoms: C_11  and  C_13
REMARK    8  A    between atoms: C_27  and  C_31
REMARK    9  A    between atoms: C_32  and  O_34
REMARK                            x       y       z     vdW  Elec       q    Type
REMARK                         _______ _______ _______ _____ _____    ______ ____
ROOT
ATOM      1  C   UNL     1       0.828  -1.810   1.288  0.00  0.00    +0.163 A 
ATOM      2  C   UNL     1       0.285  -2.651   0.330  0.00  0.00    +0.056 A 
ATOM      3  C   UNL     1       0.368  -4.022   0.487  0.00  0.00    -0.002 A 
ATOM      4  C   UNL     1       0.993  -4.557   1.598  0.00  0.00    +0.011 A 
ATOM      5  C   UNL     1       1.536  -3.724   2.558  0.00  0.00    +0.050 A 
ATOM      6  C   UNL     1       1.461  -2.349   2.405  0.00  0.00    +0.173 A 
ENDROOT
BRANCH   3   7
ATOM      7  C   UNL     1      -0.223  -4.935  -0.556  0.00  0.00    +0.224 C 
ATOM      8  N   UNL     1       0.536  -6.199  -0.575  0.00  0.00    -0.313 N 
ATOM      9  C   UNL     1       1.694  -6.203  -1.321  0.00  0.00    +0.080 A 
ATOM     10  C   UNL     1       1.887  -5.324  -2.393  0.00  0.00    +0.068 A 
ATOM     11  C   UNL     1       3.162  -5.438  -3.076  0.00  0.00    -0.023 A 
ATOM     12  C   UNL     1       3.984  -6.389  -2.578  0.00  0.00    -0.004 A 
ATOM     13  S   UNL     1       3.079  -7.110  -1.236  0.00  0.00    -0.078 S 
ATOM     14  C   UNL     1       5.354  -6.742  -3.065  0.00  0.00    +0.046 C 
ATOM     15  C   UNL     1       5.847  -5.612  -3.982  0.00  0.00    -0.009 C 
ATOM     16  C   UNL     1       4.740  -5.270  -4.984  0.00  0.00    +0.008 C 
ATOM     17  C   UNL     1       3.581  -4.579  -4.261  0.00  0.00    +0.037 C 
ATOM     18  C   UNL     1       7.098  -6.071  -4.734  0.00  0.00    +0.008 C 
ATOM     19  C   UNL     1       0.781  -4.388  -2.719  0.00  0.00    +0.220 C 
ATOM     20  N   UNL     1      -0.184  -4.266  -1.851  0.00  0.00    -0.223 NA
ATOM     21  H   UNL     1       0.236  -6.983  -0.090  0.00  0.00    +0.149 HD
BRANCH  19  22
ATOM     22  O   UNL     1       0.775  -3.686  -3.876  0.00  0.00    -0.492 OA
ATOM     23  H   UNL     1       0.007  -3.108  -3.982  0.00  0.00    +0.294 HD
ENDBRANCH  19  22
ENDBRANCH   3   7
BRANCH   1  24
ATOM     24  O   UNL     1       0.748  -0.461   1.136  0.00  0.00    -0.489 OA
BRANCH  24  26
ATOM     25  C   UNL     1       0.093   1.551  -0.032  0.00  0.00    +0.048 C 
ATOM     26  C   UNL     1       0.084   0.021  -0.034  0.00  0.00    +0.226 C 
ENDBRANCH  24  26
ENDBRANCH   1  24
BRANCH   6  27
ATOM     27  O   UNL     1       2.000  -1.528   3.345  0.00  0.00    -0.416 OA
BRANCH  27  28
ATOM     28  C   UNL     1       1.174  -0.991   4.266  0.00  0.00    +0.380 C 
ATOM     29  O   UNL     1       0.004  -1.323   4.300  0.00  0.00    -0.241 OA
BRANCH  28  30
ATOM     30  C   UNL     1       1.685  -0.010   5.225  0.00  0.00    +0.212 A 
ATOM     31  C   UNL     1       0.962   0.605   6.208  0.00  0.00    +0.056 A 
ATOM     32  C   UNL     1       1.845   1.460   6.884  0.00  0.00    +0.042 A 
ATOM     33  C   UNL     1       3.054   1.333   6.292  0.00  0.00    +0.196 A 
ATOM     34  O   UNL     1       2.954   0.443   5.297  0.00  0.00    -0.456 OA
ENDBRANCH  28  30
ENDBRANCH  27  28
ENDBRANCH   6  27
TORSDOF 7
