REMARK  Name = ZINC10644970
REMARK  10 active torsions:
REMARK  status: ('A' for Active; 'I' for Inactive)
REMARK    1  A    between atoms: C_1  and  C_2
REMARK    2  A    between atoms: C_4  and  C_31
REMARK    3  A    between atoms: C_8  and  N_30
REMARK    4  A    between atoms: C_9  and  C_11
REMARK    5  A    between atoms: C_11  and  O_13
REMARK    6  A    between atoms: O_13  and  C_14
REMARK    7  A    between atoms: C_14  and  C_16
REMARK    8  A    between atoms: C_14  and  C_17
REMARK    9  A    between atoms: N_19  and  C_20
REMARK   10  A    between atoms: C_23  and  N_27
REMARK                            x       y       z     vdW  Elec       q    Type
REMARK                         _______ _______ _______ _____ _____    ______ ____
ROOT
ATOM      1  O   UNL     1       3.300   6.674   2.074  0.00  0.00    -0.448 OA
ENDROOT
BRANCH   1   2
ATOM      2  C   UNL     1       2.001   6.305   2.077  0.00  0.00    +0.348 C 
ATOM      3  O   UNL     1       1.129   7.147   1.962  0.00  0.00    -0.244 OA
BRANCH   2  12
ATOM      4  C   UNL     1      -2.244   2.766   2.339  0.00  0.00    +0.044 C 
ATOM      5  C   UNL     1      -0.880   2.135   2.445  0.00  0.00    -0.037 A 
ATOM      6  C   UNL     1      -0.750   0.774   2.591  0.00  0.00    +0.027 A 
ATOM      7  C   UNL     1       0.506   0.196   2.694  0.00  0.00    +0.040 A 
ATOM      8  N   UNL     1       1.592   0.943   2.644  0.00  0.00    -0.245 NA
ATOM      9  C   UNL     1       1.520   2.249   2.500  0.00  0.00    +0.111 A 
ATOM     10  C   UNL     1       0.289   2.935   2.392  0.00  0.00    +0.032 A 
ATOM     11  C   UNL     1       0.396   4.378   2.239  0.00  0.00    +0.056 A 
ATOM     12  C   UNL     1       1.654   4.941   2.214  0.00  0.00    +0.119 A 
ATOM     13  S   UNL     1       2.737   3.538   2.396  0.00  0.00    -0.060 S 
ATOM     14  C   UNL     1       0.632  -1.297   2.858  0.00  0.00    +0.065 C 
BRANCH  11  15
ATOM     15  N   UNL     1      -0.739   5.166   2.121  0.00  0.00    -0.356 N 
ATOM     16  H   UNL     1      -1.567   4.780   1.794  0.00  0.00    +0.142 HD
ATOM     17  H   UNL     1      -0.705   6.104   2.366  0.00  0.00    +0.142 HD
ENDBRANCH  11  15
ENDBRANCH   2  12
ENDBRANCH   1   2
BRANCH   1  18
ATOM     18  C   UNL     1       3.578   8.069   1.932  0.00  0.00    +0.259 C 
ATOM     19  C   UNL     1       3.637   8.720   3.315  0.00  0.00    +0.062 C 
BRANCH  18  20
ATOM     20  C   UNL     1       4.902   8.248   1.235  0.00  0.00    +0.258 C 
ATOM     21  O   UNL     1       5.544   7.278   0.894  0.00  0.00    -0.271 OA
ATOM     22  N   UNL     1       5.372   9.488   0.992  0.00  0.00    -0.281 N 
ATOM     23  H   UNL     1       4.898  10.262   1.332  0.00  0.00    +0.155 HD
BRANCH  22  24
ATOM     24  C   UNL     1       6.545   9.657   0.247  0.00  0.00    +0.052 A 
ATOM     25  C   UNL     1       7.452   8.612   0.129  0.00  0.00    +0.027 A 
ATOM     26  C   UNL     1       8.609   8.782  -0.606  0.00  0.00    +0.034 A 
ATOM     27  C   UNL     1       8.865   9.992  -1.226  0.00  0.00    +0.128 A 
ATOM     28  C   UNL     1       7.965  11.035  -1.111  0.00  0.00    +0.054 A 
ATOM     29  C   UNL     1       6.803  10.869  -0.381  0.00  0.00    +0.064 A 
ATOM     30 CL   UNL     1       5.669  12.177  -0.244  0.00  0.00    -0.082 Cl
BRANCH  27  31
ATOM     31  N   UNL     1      10.106  10.170  -2.013  0.00  0.00    +0.056 N 
ATOM     32  O   UNL     1      10.899   9.252  -2.115  0.00  0.00    -0.126 OA
ATOM     33  O   UNL     1      10.333  11.235  -2.559  0.00  0.00    -0.126 OA
ENDBRANCH  27  31
ENDBRANCH  22  24
ENDBRANCH  18  20
ENDBRANCH   1  18
TORSDOF 7
