REMARK  Name = ZINC11769999
REMARK  5 active torsions:
REMARK  status: ('A' for Active; 'I' for Inactive)
REMARK    1  A    between atoms: C_4  and  N_7
REMARK    2  A    between atoms: C_9  and  C_12
REMARK    3  A    between atoms: C_12  and  N_56
REMARK    4  A    between atoms: C_25  and  C_27
REMARK    5  A    between atoms: C_31  and  O_33
REMARK                            x       y       z     vdW  Elec       q    Type
REMARK                         _______ _______ _______ _____ _____    ______ ____
ROOT
ATOM      1  C   UNL     1       3.587  -1.000   0.706  0.00  0.00    -0.072 C 
ATOM      2  C   UNL     1       3.551  -1.694  -0.663  0.00  0.00    +0.019 C 
ATOM      3  C   UNL     1       3.273  -0.645  -1.710  0.00  0.00    -0.022 A 
ATOM      4  C   UNL     1       3.442  -0.715  -3.144  0.00  0.00    +0.003 A 
ATOM      5  C   UNL     1       3.890  -1.724  -4.002  0.00  0.00    +0.010 A 
ATOM      6  C   UNL     1       3.920  -1.432  -5.343  0.00  0.00    +0.001 A 
ATOM      7  C   UNL     1       3.527  -0.199  -5.837  0.00  0.00    +0.002 A 
ATOM      8  C   UNL     1       3.078   0.818  -5.013  0.00  0.00    +0.026 A 
ATOM      9  C   UNL     1       3.037   0.550  -3.646  0.00  0.00    +0.047 A 
ATOM     10  N   UNL     1       2.655   1.310  -2.576  0.00  0.00    -0.359 N 
ATOM     11  H   UNL     1       2.332   2.223  -2.627  0.00  0.00    +0.166 HD
ATOM     12  C   UNL     1       2.799   0.588  -1.423  0.00  0.00    +0.011 A 
ATOM     13  C   UNL     1       2.490   1.045  -0.016  0.00  0.00    +0.011 C 
ATOM     14  N   UNL     1       2.377  -0.157   0.843  0.00  0.00    +0.391 N 
ATOM     15  H   UNL     1       1.558  -0.701   0.547  0.00  0.00    -0.080 HD
ENDROOT
BRANCH  13  16
ATOM     16  C   UNL     1       1.176   1.782   0.000  0.00  0.00    -0.052 A 
ATOM     17  C   UNL     1      -0.013   1.076   0.008  0.00  0.00    +0.002 A 
ATOM     18  C   UNL     1      -1.220   1.750   0.017  0.00  0.00    +0.004 A 
ATOM     19  C   UNL     1      -1.241   3.131   0.031  0.00  0.00    +0.045 A 
ATOM     20  C   UNL     1      -0.050   3.842   0.024  0.00  0.00    +0.117 A 
ATOM     21  C   UNL     1       1.160   3.163   0.008  0.00  0.00    +0.047 A 
BRANCH  20  22
ATOM     22  O   UNL     1      -0.069   5.201   0.032  0.00  0.00    -0.507 OA
ATOM     23  H   UNL     1      -0.082   5.599  -0.849  0.00  0.00    +0.292 HD
ENDBRANCH  20  22
ENDBRANCH  13  16
BRANCH  14  24
ATOM     24  C   UNL     1       2.201   0.245   2.253  0.00  0.00    -0.038 C 
BRANCH  24  27
ATOM     25  N   UNL     1       0.766  -2.571   4.076  0.00  0.00    -0.240 N 
ATOM     26  C   UNL     1       0.632  -1.466   3.309  0.00  0.00    +0.116 A 
ATOM     27  C   UNL     1       1.872  -0.979   3.069  0.00  0.00    -0.026 A 
ATOM     28  C   UNL     1       2.793  -1.808   3.718  0.00  0.00    +0.136 A 
ATOM     29  N   UNL     1       2.132  -2.762   4.322  0.00  0.00    -0.175 NA
BRANCH  25  33
ATOM     30  C   UNL     1      -2.337  -4.976   5.477  0.00  0.00    +0.000 A 
ATOM     31  C   UNL     1      -1.028  -5.283   5.798  0.00  0.00    +0.002 A 
ATOM     32  C   UNL     1       0.003  -4.488   5.335  0.00  0.00    +0.028 A 
ATOM     33  C   UNL     1      -0.278  -3.380   4.547  0.00  0.00    +0.065 A 
ATOM     34  C   UNL     1      -1.594  -3.071   4.231  0.00  0.00    +0.028 A 
ATOM     35  C   UNL     1      -2.619  -3.873   4.693  0.00  0.00    +0.002 A 
ENDBRANCH  25  33
ENDBRANCH  24  27
ENDBRANCH  14  24
TORSDOF 5
