REMARK  Name = ZINC03434007
REMARK  10 active torsions:
REMARK  status: ('A' for Active; 'I' for Inactive)
REMARK    1  A    between atoms: C_1  and  C_2
REMARK    2  A    between atoms: C_2  and  C_3
REMARK    3  A    between atoms: C_4  and  C_34
REMARK    4  A    between atoms: N_10  and  C_26
REMARK    5  A    between atoms: C_11  and  S_13
REMARK    6  A    between atoms: S_13  and  C_14
REMARK    7  A    between atoms: C_14  and  C_15
REMARK    8  A    between atoms: N_17  and  C_18
REMARK    9  A    between atoms: C_29  and  O_33
REMARK   10  A    between atoms: C_31  and  C_32
REMARK                            x       y       z     vdW  Elec       q    Type
REMARK                         _______ _______ _______ _____ _____    ______ ____
ROOT
ATOM      1  C   UNL     1      -0.669   1.534   1.288  0.00  0.00    -0.023 A 
ATOM      2  C   UNL     1      -0.327   2.704   1.848  0.00  0.00    -0.007 A 
ATOM      3  S   UNL     1      -1.433   2.836   3.240  0.00  0.00    -0.073 S 
ATOM      4  C   UNL     1      -2.317   1.310   3.036  0.00  0.00    +0.117 A 
ATOM      5  C   UNL     1      -1.730   0.743   1.889  0.00  0.00    +0.076 A 
ATOM      6  C   UNL     1      -2.258  -0.522   1.480  0.00  0.00    +0.268 A 
ATOM      7  O   UNL     1      -1.812  -1.088   0.497  0.00  0.00    -0.267 OA
ATOM      8  N   UNL     1      -3.253  -1.078   2.194  0.00  0.00    -0.255 N 
ATOM      9  C   UNL     1      -3.766  -0.458   3.299  0.00  0.00    +0.178 A 
ATOM     10  N   UNL     1      -3.298   0.708   3.697  0.00  0.00    -0.215 NA
ATOM     11  C   UNL     1       0.736   3.676   1.405  0.00  0.00    +0.052 C 
ENDROOT
BRANCH   8  12
ATOM     12  C   UNL     1      -3.774  -2.319   1.798  0.00  0.00    +0.055 A 
ATOM     13  C   UNL     1      -3.223  -3.494   2.293  0.00  0.00    +0.030 A 
ATOM     14  C   UNL     1      -3.736  -4.714   1.903  0.00  0.00    +0.047 A 
ATOM     15  C   UNL     1      -4.803  -4.768   1.017  0.00  0.00    +0.117 A 
ATOM     16  C   UNL     1      -5.354  -3.595   0.523  0.00  0.00    +0.050 A 
ATOM     17  C   UNL     1      -4.844  -2.373   0.916  0.00  0.00    -0.023 A 
ATOM     18  C   UNL     1      -5.447  -1.098   0.383  0.00  0.00    +0.046 C 
BRANCH  15  19
ATOM     19  O   UNL     1      -5.309  -5.970   0.634  0.00  0.00    -0.507 OA
ATOM     20  H   UNL     1      -6.020  -6.297   1.202  0.00  0.00    +0.292 HD
ENDBRANCH  15  19
ENDBRANCH   8  12
BRANCH   1  22
ATOM     21  C   UNL     1      -0.686   1.549  -1.191  0.00  0.00    +0.009 C 
ATOM     22  C   UNL     1       0.043   1.042   0.055  0.00  0.00    +0.033 C 
ENDBRANCH   1  22
BRANCH   9  23
ATOM     23  S   UNL     1      -5.069  -1.226   4.201  0.00  0.00    -0.078 S 
BRANCH  23  24
ATOM     24  C   UNL     1      -5.322   0.009   5.500  0.00  0.00    +0.173 C 
BRANCH  24  25
ATOM     25  C   UNL     1      -6.425  -0.448   6.420  0.00  0.00    +0.228 C 
ATOM     26  O   UNL     1      -6.985  -1.504   6.218  0.00  0.00    -0.275 OA
ATOM     27  N   UNL     1      -6.789   0.318   7.468  0.00  0.00    -0.283 N 
ATOM     28  H   UNL     1      -6.299   1.131   7.668  0.00  0.00    +0.155 HD
BRANCH  27  29
ATOM     29  C   UNL     1      -7.875  -0.061   8.269  0.00  0.00    +0.069 A 
ATOM     30  C   UNL     1      -8.127  -1.405   8.509  0.00  0.00    +0.029 A 
ATOM     31  C   UNL     1      -9.197  -1.776   9.298  0.00  0.00    +0.040 A 
ATOM     32  C   UNL     1     -10.020  -0.809   9.851  0.00  0.00    +0.126 A 
ATOM     33  C   UNL     1      -9.773   0.532   9.614  0.00  0.00    +0.078 A 
ATOM     34  C   UNL     1      -8.699   0.909   8.828  0.00  0.00    +0.147 A 
ATOM     35  F   UNL     1      -8.454   2.218   8.601  0.00  0.00    -0.203 F 
ATOM     36  F   UNL     1     -11.067  -1.176  10.623  0.00  0.00    -0.205 F 
ENDBRANCH  27  29
ENDBRANCH  24  25
ENDBRANCH  23  24
ENDBRANCH   9  23
TORSDOF 7
