REMARK  Name = ZINC53225336
REMARK  8 active torsions:
REMARK  status: ('A' for Active; 'I' for Inactive)
REMARK    1  A    between atoms: C_1  and  C_2
REMARK    2  A    between atoms: C_4  and  C_7
REMARK    3  A    between atoms: C_7  and  S_8
REMARK    4  A    between atoms: S_8  and  C_9
REMARK    5  A    between atoms: C_12  and  C_15
REMARK    6  A    between atoms: N_13  and  N_14
REMARK    7  A    between atoms: C_15  and  O_16
REMARK    8  A    between atoms: O_16  and  C_17
REMARK                            x       y       z     vdW  Elec       q    Type
REMARK                         _______ _______ _______ _____ _____    ______ ____
ROOT
ATOM      1  C   UNL     1      -3.043  -5.108  -1.553  0.00  0.00    +0.209 A 
ATOM      2  N   UNL     1      -3.458  -5.644  -0.428  0.00  0.00    -0.121 NA
ATOM      3  N   UNL     1      -4.231  -6.640  -0.679  0.00  0.00    -0.128 NA
ATOM      4  C   UNL     1      -4.356  -6.797  -1.966  0.00  0.00    +0.189 A 
ATOM      5  N   UNL     1      -3.609  -5.823  -2.569  0.00  0.00    -0.225 N 
ENDROOT
BRANCH   5   6
ATOM      6  N   UNL     1      -3.457  -5.612  -3.910  0.00  0.00    -0.295 N 
ATOM      7  H   UNL     1      -2.673  -6.135  -4.272  0.00  0.00    +0.163 HD
ATOM      8  H   UNL     1      -4.304  -5.838  -4.410  0.00  0.00    +0.163 HD
ENDBRANCH   5   6
BRANCH   1   9
ATOM      9  S   UNL     1      -1.967  -3.723  -1.719  0.00  0.00    -0.077 S 
BRANCH   9  10
ATOM     10  C   UNL     1      -1.588  -3.254  -0.008  0.00  0.00    +0.157 C 
BRANCH  10  14
ATOM     11  C   UNL     1      -0.018   1.503   0.010  0.00  0.00    +0.112 C 
ATOM     12  C   UNL     1       0.002  -0.004   0.002  0.00  0.00    +0.224 A 
ATOM     13  N   UNL     1      -1.044  -0.783   0.003  0.00  0.00    -0.195 NA
ATOM     14  C   UNL     1      -0.663  -2.065  -0.006  0.00  0.00    +0.182 A 
ATOM     15  N   UNL     1       0.638  -2.118  -0.012  0.00  0.00    -0.060 NA
ATOM     16  O   UNL     1       1.097  -0.774  -0.013  0.00  0.00    -0.338 OA
ENDBRANCH  10  14
ENDBRANCH   9  10
ENDBRANCH   1   9
BRANCH   4  17
ATOM     17  C   UNL     1      -5.177  -7.852  -2.662  0.00  0.00    +0.306 C 
BRANCH  17  18
ATOM     18  O   UNL     1      -6.501  -7.358  -2.880  0.00  0.00    -0.481 OA
BRANCH  18  19
ATOM     19  C   UNL     1      -7.376  -8.193  -3.501  0.00  0.00    +0.158 A 
ATOM     20  C   UNL     1      -7.480  -8.185  -4.885  0.00  0.00    +0.084 A 
ATOM     21  C   UNL     1      -8.371  -9.034  -5.515  0.00  0.00    +0.024 A 
ATOM     22  C   UNL     1      -9.157  -9.891  -4.767  0.00  0.00    +0.003 A 
ATOM     23  C   UNL     1      -9.056  -9.901  -3.388  0.00  0.00    +0.024 A 
ATOM     24  C   UNL     1      -8.162  -9.058  -2.754  0.00  0.00    +0.084 A 
ATOM     25 CL   UNL     1      -8.029  -9.077  -1.023  0.00  0.00    -0.080 Cl
ATOM     26 CL   UNL     1      -6.494  -7.109  -5.825  0.00  0.00    -0.080 Cl
ENDBRANCH  18  19
ENDBRANCH  17  18
ENDBRANCH   4  17
TORSDOF 7
