REMARK  Name = ZINC36548663
REMARK  7 active torsions:
REMARK  status: ('A' for Active; 'I' for Inactive)
REMARK    1  A    between atoms: C_5  and  N_7
REMARK    2  A    between atoms: N_7  and  C_8
REMARK    3  A    between atoms: C_8  and  C_10
REMARK    4  A    between atoms: C_8  and  C_15
REMARK    5  A    between atoms: N_17  and  C_18
REMARK    6  A    between atoms: C_24  and  C_26
REMARK    7  A    between atoms: C_30  and  N_32
REMARK                            x       y       z     vdW  Elec       q    Type
REMARK                         _______ _______ _______ _____ _____    ______ ____
ROOT
ATOM      1  N   UNL     1       0.774  -2.084  -0.029  0.00  0.00    -0.247 N 
ATOM      2  C   UNL     1       1.391  -2.576   1.064  0.00  0.00    +0.252 C 
ATOM      3  O   UNL     1       1.934  -3.662   1.019  0.00  0.00    -0.270 OA
ENDROOT
BRANCH   1   8
ATOM      4  C   UNL     1       0.416   1.546  -0.489  0.00  0.00    +0.002 A 
ATOM      5  C   UNL     1      -0.843   1.755   0.043  0.00  0.00    +0.002 A 
ATOM      6  C   UNL     1      -1.568   0.693   0.551  0.00  0.00    +0.022 A 
ATOM      7  C   UNL     1      -1.035  -0.583   0.529  0.00  0.00    +0.062 A 
ATOM      8  C   UNL     1       0.231  -0.795  -0.005  0.00  0.00    +0.056 A 
ATOM      9  C   UNL     1       0.955   0.275  -0.514  0.00  0.00    +0.025 A 
ATOM     10 CL   UNL     1      -1.944  -1.916   1.168  0.00  0.00    -0.082 Cl
ENDBRANCH   1   8
BRANCH   2  11
ATOM     11  C   UNL     1       1.406  -1.794   2.319  0.00  0.00    +0.039 A 
ATOM     12  C   UNL     1       1.716  -0.433   2.293  0.00  0.00    +0.013 A 
ATOM     13  C   UNL     1       1.728   0.291   3.467  0.00  0.00    +0.003 A 
ATOM     14  C   UNL     1       1.435  -0.329   4.669  0.00  0.00    +0.033 A 
ATOM     15  C   UNL     1       1.127  -1.678   4.702  0.00  0.00    +0.127 A 
ATOM     16  C   UNL     1       1.105  -2.412   3.534  0.00  0.00    +0.045 A 
BRANCH  15  17
ATOM     17  N   UNL     1       0.815  -2.333   5.992  0.00  0.00    +0.056 N 
ATOM     18  O   UNL     1       0.829  -1.690   7.015  0.00  0.00    -0.126 OA
ATOM     19  O   UNL     1       0.546  -3.511   6.022  0.00  0.00    -0.126 OA
ENDBRANCH  15  17
ENDBRANCH   2  11
BRANCH   1  20
ATOM     20  C   UNL     1       0.673  -2.900  -1.242  0.00  0.00    +0.233 C 
BRANCH  20  21
ATOM     21  C   UNL     1      -0.763  -2.947  -1.696  0.00  0.00    +0.135 A 
ATOM     22  C   UNL     1      -1.399  -4.029  -2.181  0.00  0.00    +0.047 A 
ATOM     23  C   UNL     1      -2.721  -3.626  -2.481  0.00  0.00    +0.041 A 
ATOM     24  C   UNL     1      -2.813  -2.323  -2.162  0.00  0.00    +0.195 A 
ATOM     25  O   UNL     1      -1.626  -1.918  -1.682  0.00  0.00    -0.465 OA
ENDBRANCH  20  21
BRANCH  20  26
ATOM     26  C   UNL     1       1.524  -2.293  -2.327  0.00  0.00    +0.242 C 
ATOM     27  O   UNL     1       2.114  -1.253  -2.125  0.00  0.00    -0.273 OA
ATOM     28  N   UNL     1       1.630  -2.907  -3.522  0.00  0.00    -0.311 N 
ATOM     29  H   UNL     1       1.158  -3.739  -3.684  0.00  0.00    +0.149 HD
BRANCH  28  30
ATOM     30  C   UNL     1       2.458  -2.317  -4.578  0.00  0.00    +0.073 C 
ATOM     31  C   UNL     1       1.639  -1.279  -5.348  0.00  0.00    +0.022 C 
ATOM     32  C   UNL     1       2.503  -0.663  -6.450  0.00  0.00    +0.002 C 
ATOM     33  C   UNL     1       2.965  -1.762  -7.409  0.00  0.00    +0.000 C 
ATOM     34  C   UNL     1       3.784  -2.800  -6.639  0.00  0.00    +0.002 C 
ATOM     35  C   UNL     1       2.920  -3.416  -5.537  0.00  0.00    +0.022 C 
ENDBRANCH  28  30
ENDBRANCH  20  26
ENDBRANCH   1  20
TORSDOF 7
