REMARK  Name = ZINC13500650
REMARK  11 active torsions:
REMARK  status: ('A' for Active; 'I' for Inactive)
REMARK    1  A    between atoms: C_1  and  C_2
REMARK    2  A    between atoms: C_9  and  C_14
REMARK    3  A    between atoms: C_14  and  N_73
REMARK    4  A    between atoms: C_15  and  N_73
REMARK    5  A    between atoms: C_21  and  C_23
REMARK    6  A    between atoms: C_21  and  C_35
REMARK    7  A    between atoms: C_21  and  N_73
REMARK    8  A    between atoms: N_27  and  C_28
REMARK    9  A    between atoms: C_28  and  C_29
REMARK   10  A    between atoms: C_35  and  C_36
REMARK   11  A    between atoms: C_35  and  C_37
REMARK                            x       y       z     vdW  Elec       q    Type
REMARK                         _______ _______ _______ _____ _____    ______ ____
ROOT
ATOM      1  N   UNL     1      -1.246   3.939   3.023  0.00  0.00    +0.391 N 
ATOM      2  H   UNL     1      -1.392   4.952   2.944  0.00  0.00    -0.080 HD
ENDROOT
BRANCH   1   3
ATOM      3  C   UNL     1      -0.064   3.561   2.219  0.00  0.00    -0.067 C 
ATOM      4  C   UNL     1      -0.119   2.076   1.853  0.00  0.00    -0.015 C 
ATOM      5  C   UNL     1       1.107   1.712   1.014  0.00  0.00    -0.002 C 
ATOM      6  C   UNL     1       1.119   2.553  -0.264  0.00  0.00    -0.000 C 
ATOM      7  C   UNL     1       1.174   4.037   0.102  0.00  0.00    -0.002 C 
ATOM      8  C   UNL     1      -0.053   4.402   0.941  0.00  0.00    -0.015 C 
ENDBRANCH   1   3
BRANCH   1   9
ATOM      9  C   UNL     1      -2.445   3.240   2.517  0.00  0.00    -0.036 C 
BRANCH   9  18
ATOM     10  C   UNL     1      -4.697   3.227  -4.593  0.00  0.00    +0.044 C 
ATOM     11  C   UNL     1      -4.384   3.962  -3.315  0.00  0.00    -0.050 A 
ATOM     12  C   UNL     1      -4.538   5.340  -3.258  0.00  0.00    +0.005 A 
ATOM     13  C   UNL     1      -4.257   6.033  -2.100  0.00  0.00    +0.026 A 
ATOM     14  C   UNL     1      -3.814   5.344  -0.975  0.00  0.00    +0.049 A 
ATOM     15  C   UNL     1      -3.659   3.947  -1.037  0.00  0.00    -0.001 A 
ATOM     16  C   UNL     1      -3.950   3.265  -2.223  0.00  0.00    +0.013 A 
ATOM     17  C   UNL     1      -3.188   3.232   0.151  0.00  0.00    +0.017 A 
ATOM     18  C   UNL     1      -2.927   3.945   1.275  0.00  0.00    +0.001 A 
ATOM     19  C   UNL     1      -3.099   5.346   1.284  0.00  0.00    +0.251 A 
ATOM     20  O   UNL     1      -2.853   5.968   2.303  0.00  0.00    -0.268 OA
ATOM     21  N   UNL     1      -3.526   6.011   0.197  0.00  0.00    -0.322 N 
ATOM     22  H   UNL     1      -3.634   6.974   0.237  0.00  0.00    +0.169 HD
ENDBRANCH   9  18
ENDBRANCH   1   9
BRANCH   1  23
ATOM     23  C   UNL     1      -1.022   3.595   4.443  0.00  0.00    +0.006 C 
BRANCH  23  24
ATOM     24  C   UNL     1       0.428   3.817   4.788  0.00  0.00    +0.138 A 
ATOM     25  N   UNL     1       1.156   4.861   4.476  0.00  0.00    -0.115 NA
ATOM     26  N   UNL     1       2.339   4.678   4.950  0.00  0.00    -0.023 NA
ATOM     27  N   UNL     1       2.388   3.540   5.551  0.00  0.00    -0.044 NA
ATOM     28  N   UNL     1       1.228   2.979   5.473  0.00  0.00    -0.228 N 
BRANCH  28  29
ATOM     29  C   UNL     1       0.854   1.675   6.026  0.00  0.00    +0.178 C 
BRANCH  29  30
ATOM     30  C   UNL     1       1.264   0.570   5.050  0.00  0.00    +0.140 C 
ATOM     31  C   UNL     1       0.869  -0.808   5.622  0.00  0.00    +0.035 C 
ATOM     32  C   UNL     1       2.082  -1.692   5.221  0.00  0.00    +0.031 C 
ATOM     33  C   UNL     1       3.240  -0.669   5.333  0.00  0.00    +0.160 C 
ATOM     34  O   UNL     1       2.687   0.576   4.880  0.00  0.00    -0.375 OA
ENDBRANCH  29  30
ENDBRANCH  28  29
ENDBRANCH  23  24
BRANCH  23  35
ATOM     35  C   UNL     1      -1.898   4.503   5.309  0.00  0.00    -0.024 C 
ATOM     36  C   UNL     1      -3.372   4.193   5.044  0.00  0.00    +0.006 C 
ATOM     37  C   UNL     1      -1.583   4.257   6.786  0.00  0.00    +0.006 C 
ENDBRANCH  23  35
ENDBRANCH   1  23
TORSDOF 8
