REMARK  Name = ZINC64002203
REMARK  10 active torsions:
REMARK  status: ('A' for Active; 'I' for Inactive)
REMARK    1  A    between atoms: C_1  and  C_2
REMARK    2  A    between atoms: C_7  and  C_12
REMARK    3  A    between atoms: N_14  and  C_15
REMARK    4  A    between atoms: C_15  and  C_16
REMARK    5  A    between atoms: C_18  and  C_24
REMARK    6  A    between atoms: C_21  and  C_23
REMARK    7  A    between atoms: C_28  and  N_30
REMARK    8  A    between atoms: C_31  and  C_33
REMARK    9  A    between atoms: C_35  and  C_39
REMARK   10  A    between atoms: C_37  and  C_38
REMARK                            x       y       z     vdW  Elec       q    Type
REMARK                         _______ _______ _______ _____ _____    ______ ____
ROOT
ATOM      1  C   UNL     1       2.388  -7.286   4.711  0.00  0.00    +0.062 C 
ATOM      2  N   UNL     1       1.325  -7.222   5.420  0.00  0.00    -0.253 NA
ATOM      3  C   UNL     1       1.507  -7.991   6.657  0.00  0.00    +0.267 C 
ATOM      4  O   UNL     1       2.639  -8.853   6.432  0.00  0.00    -0.342 OA
ATOM      5  C   UNL     1       3.402  -8.140   5.439  0.00  0.00    +0.164 C 
ATOM      6  C   UNL     1       4.455  -7.260   6.114  0.00  0.00    +0.044 C 
ENDROOT
BRANCH   3   7
ATOM      7  C   UNL     1       0.277  -8.813   6.942  0.00  0.00    +0.005 A 
ATOM      8  C   UNL     1       0.401 -10.072   7.501  0.00  0.00    +0.008 A 
ATOM      9  C   UNL     1      -0.725 -10.829   7.764  0.00  0.00    +0.002 A 
ATOM     10  C   UNL     1      -1.979 -10.330   7.470  0.00  0.00    +0.023 A 
ATOM     11  C   UNL     1      -2.108  -9.066   6.910  0.00  0.00    +0.034 A 
ATOM     12  C   UNL     1      -0.974  -8.306   6.651  0.00  0.00    +0.031 A 
BRANCH  11  13
ATOM     13  N   UNL     1      -3.376  -8.557   6.612  0.00  0.00    -0.281 N 
ATOM     14  C   UNL     1      -4.349  -9.384   6.181  0.00  0.00    +0.252 C 
ATOM     15  O   UNL     1      -4.151 -10.583   6.132  0.00  0.00    -0.270 OA
ATOM     16  H   UNL     1      -3.555  -7.609   6.715  0.00  0.00    +0.155 HD
BRANCH  14  17
ATOM     17  C   UNL     1      -5.653  -8.835   5.769  0.00  0.00    +0.078 A 
ATOM     18  C   UNL     1      -6.060  -7.422   5.759  0.00  0.00    +0.057 A 
ATOM     19  C   UNL     1      -7.324  -7.406   5.311  0.00  0.00    +0.103 A 
ATOM     20  O   UNL     1      -7.716  -8.663   5.053  0.00  0.00    -0.464 OA
ATOM     21  C   UNL     1      -6.734  -9.532   5.313  0.00  0.00    +0.114 A 
ATOM     22  C   UNL     1      -6.809 -11.026   5.136  0.00  0.00    +0.087 C 
ATOM     23  C   UNL     1      -8.170  -6.172   5.128  0.00  0.00    +0.086 C 
ENDBRANCH  14  17
ENDBRANCH  11  13
ENDBRANCH   3   7
BRANCH   1  24
ATOM     24  C   UNL     1       2.594  -6.625   3.373  0.00  0.00    +0.157 C 
BRANCH  24  27
ATOM     25  C   UNL     1       1.338  -5.210   1.837  0.00  0.00    +0.240 C 
ATOM     26  O   UNL     1       2.297  -5.216   1.094  0.00  0.00    -0.273 OA
ATOM     27  N   UNL     1       1.385  -5.885   3.002  0.00  0.00    -0.308 N 
ATOM     28  H   UNL     1       0.618  -5.880   3.596  0.00  0.00    +0.149 HD
BRANCH  25  35
ATOM     29  C   UNL     1       0.029   1.453  -0.041  0.00  0.00    +0.044 C 
ATOM     30  C   UNL     1       0.046  -0.054  -0.040  0.00  0.00    -0.050 A 
ATOM     31  C   UNL     1       0.052  -0.738  -1.264  0.00  0.00    +0.005 A 
ATOM     32  C   UNL     1       0.067  -2.085  -1.346  0.00  0.00    +0.026 A 
ATOM     33  C   UNL     1       0.077  -2.877  -0.166  0.00  0.00    +0.043 A 
ATOM     34  N   UNL     1       0.090  -4.176   0.014  0.00  0.00    -0.370 N 
ATOM     35  C   UNL     1       0.095  -4.449   1.456  0.00  0.00    +0.190 C 
ATOM     36  C   UNL     1       0.082  -3.097   2.134  0.00  0.00    +0.016 C 
ATOM     37  C   UNL     1       0.071  -2.179   1.140  0.00  0.00    -0.003 A 
ATOM     38  C   UNL     1       0.061  -0.712   1.142  0.00  0.00    +0.013 A 
ATOM     39  H   UNL     1       0.097  -4.845  -0.688  0.00  0.00    +0.161 HD
ENDBRANCH  25  35
ENDBRANCH  24  27
ENDBRANCH   1  24
TORSDOF 6
