REMARK  Name = ZINC29805887
REMARK  9 active torsions:
REMARK  status: ('A' for Active; 'I' for Inactive)
REMARK    1  A    between atoms: C_1  and  C_2
REMARK    2  A    between atoms: C_2  and  N_3
REMARK    3  A    between atoms: N_6  and  S_9
REMARK    4  A    between atoms: S_9  and  C_12
REMARK    5  A    between atoms: C_16  and  N_18
REMARK    6  A    between atoms: C_19  and  C_21
REMARK    7  A    between atoms: C_21  and  C_23
REMARK    8  A    between atoms: C_21  and  O_24
REMARK    9  A    between atoms: O_24  and  C_25
REMARK                            x       y       z     vdW  Elec       q    Type
REMARK                         _______ _______ _______ _____ _____    ______ ____
ROOT
ATOM      1  C   UNL     1       0.205  -0.158   4.031  0.00  0.00    +0.107 A 
ATOM      2  C   UNL     1       1.155  -1.163   4.062  0.00  0.00    +0.028 A 
ATOM      3  C   UNL     1       2.182  -1.120   4.987  0.00  0.00    +0.004 A 
ATOM      4  C   UNL     1       2.255  -0.078   5.891  0.00  0.00    +0.023 A 
ATOM      5  C   UNL     1       1.300   0.930   5.866  0.00  0.00    +0.035 A 
ATOM      6  C   UNL     1       0.273   0.887   4.932  0.00  0.00    +0.051 A 
ENDROOT
BRANCH   5   7
ATOM      7  N   UNL     1       1.372   1.987   6.781  0.00  0.00    -0.282 N 
ATOM      8  C   UNL     1       0.241   2.555   7.244  0.00  0.00    +0.258 C 
ATOM      9  O   UNL     1      -0.838   2.093   6.939  0.00  0.00    -0.271 OA
ATOM     10  H   UNL     1       2.351   2.353   7.122  0.00  0.00    +0.155 HD
BRANCH   8  11
ATOM     11  C   UNL     1       0.318   3.765   8.139  0.00  0.00    +0.256 C 
ATOM     12  C   UNL     1       1.100   3.413   9.406  0.00  0.00    +0.062 C 
BRANCH  11  13
ATOM     13  O   UNL     1      -1.003   4.179   8.494  0.00  0.00    -0.480 OA
BRANCH  13  14
ATOM     14  C   UNL     1      -1.170   5.485   8.832  0.00  0.00    +0.122 A 
ATOM     15  C   UNL     1      -2.443   5.983   9.069  0.00  0.00    +0.047 A 
ATOM     16  C   UNL     1      -2.610   7.309   9.419  0.00  0.00    +0.019 A 
ATOM     17  C   UNL     1      -1.510   8.143   9.521  0.00  0.00    +0.018 A 
ATOM     18  C   UNL     1      -0.241   7.649   9.280  0.00  0.00    +0.019 A 
ATOM     19  C   UNL     1      -0.069   6.322   8.936  0.00  0.00    +0.047 A 
ATOM     20 BR   UNL     1      -1.743   9.959   9.993  0.00  0.00    -0.050 Br
ENDBRANCH  13  14
ENDBRANCH  11  13
ENDBRANCH   8  11
ENDBRANCH   5   7
BRANCH   1  21
ATOM     21  S   UNL     1      -1.097  -0.214   2.846  0.00  0.00    +0.061 S 
ATOM     22  O   UNL     1      -2.168   0.552   3.382  0.00  0.00    -0.153 OA
ATOM     23  O   UNL     1      -1.248  -1.577   2.473  0.00  0.00    -0.153 OA
BRANCH  21  27
ATOM     24  N   UNL     1      -0.599   1.672  -1.072  0.00  0.00    +0.381 N 
ATOM     25  C   UNL     1      -0.534   0.213  -0.912  0.00  0.00    -0.061 C 
ATOM     26  C   UNL     1       0.138  -0.122   0.423  0.00  0.00    +0.091 C 
ATOM     27  N   UNL     1      -0.569   0.590   1.499  0.00  0.00    -0.180 NA
ATOM     28  C   UNL     1      -0.798   2.035   1.342  0.00  0.00    +0.091 C 
ATOM     29  C   UNL     1      -1.434   2.285  -0.030  0.00  0.00    -0.061 C 
ATOM     30  H   UNL     1       0.421   2.067  -0.959  0.00  0.00    -0.082 HD
BRANCH  24  32
ATOM     31  C   UNL     1      -1.372   3.535  -2.461  0.00  0.00    -0.017 C 
ATOM     32  C   UNL     1      -1.080   2.034  -2.412  0.00  0.00    -0.082 C 
ENDBRANCH  24  32
ENDBRANCH  21  27
ENDBRANCH   1  21
TORSDOF 7
