REMARK  Name = ZINC44546638
REMARK  11 active torsions:
REMARK  status: ('A' for Active; 'I' for Inactive)
REMARK    1  A    between atoms: C_1  and  C_2
REMARK    2  A    between atoms: C_2  and  C_3
REMARK    3  A    between atoms: C_2  and  C_4
REMARK    4  A    between atoms: C_2  and  C_5
REMARK    5  A    between atoms: C_8  and  C_11
REMARK    6  A    between atoms: C_11  and  C_13
REMARK    7  A    between atoms: C_11  and  N_17
REMARK    8  A    between atoms: C_13  and  C_14
REMARK    9  A    between atoms: C_18  and  O_20
REMARK   10  A    between atoms: O_20  and  C_21
REMARK   11  A    between atoms: C_21  and  C_22
REMARK                            x       y       z     vdW  Elec       q    Type
REMARK                         _______ _______ _______ _____ _____    ______ ____
ROOT
ATOM      1  N   UNL     1       3.392  -0.777  -5.435  0.00  0.00    -0.274 N 
ATOM      2  C   UNL     1       3.462  -0.837  -6.780  0.00  0.00    +0.401 C 
ATOM      3  O   UNL     1       2.889  -1.726  -7.379  0.00  0.00    -0.226 OA
ATOM      4  H   UNL     1       3.906  -0.111  -4.952  0.00  0.00    +0.153 HD
ENDROOT
BRANCH   1   5
ATOM      5  C   UNL     1       2.540  -1.717  -4.703  0.00  0.00    +0.117 C 
BRANCH   5   9
ATOM      6  C   UNL     1       1.207   0.097  -1.073  0.00  0.00    -0.042 A 
ATOM      7  C   UNL     1       0.339  -0.681  -1.816  0.00  0.00    +0.004 A 
ATOM      8  C   UNL     1       0.770  -1.268  -2.990  0.00  0.00    +0.006 A 
ATOM      9  C   UNL     1       2.069  -1.076  -3.423  0.00  0.00    -0.027 A 
ATOM     10  C   UNL     1       2.937  -0.297  -2.681  0.00  0.00    +0.006 A 
ATOM     11  C   UNL     1       2.505   0.293  -1.508  0.00  0.00    +0.004 A 
BRANCH   6  13
ATOM     12  C   UNL     1       0.863   2.258   0.095  0.00  0.00    +0.015 C 
ATOM     13  C   UNL     1       0.737   0.737   0.208  0.00  0.00    -0.013 C 
ATOM     14  C   UNL     1       1.597   0.240   1.372  0.00  0.00    +0.015 C 
ATOM     15  C   UNL     1      -0.725   0.364   0.458  0.00  0.00    +0.015 C 
ENDBRANCH   6  13
ENDBRANCH   5   9
BRANCH   5  16
ATOM     16  C   UNL     1       3.337  -2.982  -4.378  0.00  0.00    +0.152 C 
BRANCH  16  17
ATOM     17  C   UNL     1       2.419  -4.013  -3.775  0.00  0.00    +0.358 C 
ATOM     18  O   UNL     1       1.218  -3.808  -3.729  0.00  0.00    -0.246 OA
ATOM     19  O   UNL     1       2.877  -5.053  -3.332  0.00  0.00    -0.246 OA
ENDBRANCH  16  17
ENDBRANCH   5  16
ENDBRANCH   1   5
BRANCH   2  20
ATOM     20  O   UNL     1       4.167   0.087  -7.459  0.00  0.00    -0.449 OA
BRANCH  20  21
ATOM     21  C   UNL     1       4.198  -0.038  -8.883  0.00  0.00    +0.246 C 
BRANCH  21  22
ATOM     22  C   UNL     1       5.041   1.093  -9.476  0.00  0.00    +0.088 C 
ATOM     23  C   UNL     1       6.493   0.906  -9.107  0.00  0.00    -0.029 A 
ATOM     24  C   UNL     1       7.141   0.860  -7.891  0.00  0.00    +0.005 A 
ATOM     25  C   UNL     1       8.511   0.674  -7.843  0.00  0.00    +0.000 A 
ATOM     26  C   UNL     1       9.233   0.534  -9.014  0.00  0.00    +0.001 A 
ATOM     27  C   UNL     1       8.594   0.579 -10.235  0.00  0.00    +0.009 A 
ATOM     28  C   UNL     1       7.211   0.767 -10.292  0.00  0.00    -0.014 A 
ATOM     29  C   UNL     1       6.283   0.853 -11.446  0.00  0.00    -0.014 A 
ATOM     30  C   UNL     1       4.984   1.047 -10.983  0.00  0.00    -0.029 A 
ATOM     31  C   UNL     1       3.938   1.160 -11.873  0.00  0.00    +0.005 A 
ATOM     32  C   UNL     1       4.175   1.080 -13.234  0.00  0.00    +0.000 A 
ATOM     33  C   UNL     1       5.461   0.886 -13.704  0.00  0.00    +0.001 A 
ATOM     34  C   UNL     1       6.514   0.773 -12.820  0.00  0.00    +0.009 A 
ENDBRANCH  21  22
ENDBRANCH  20  21
ENDBRANCH   2  20
TORSDOF 8
