REMARK  Name = ZINC15427875
REMARK  6 active torsions:
REMARK  status: ('A' for Active; 'I' for Inactive)
REMARK    1  A    between atoms: C_4  and  N_21
REMARK    2  A    between atoms: C_5  and  C_7
REMARK    3  A    between atoms: N_9  and  N_10
REMARK    4  A    between atoms: C_11  and  C_13
REMARK    5  A    between atoms: N_21  and  S_22
REMARK    6  A    between atoms: S_22  and  C_25
REMARK                            x       y       z     vdW  Elec       q    Type
REMARK                         _______ _______ _______ _____ _____    ______ ____
ROOT
ATOM      1  C   UNL     1       1.277   3.268  -0.505  0.00  0.00    +0.001 A 
ATOM      2  C   UNL     1       0.132   4.042  -0.392  0.00  0.00    +0.002 A 
ATOM      3  C   UNL     1      -1.099   3.445  -0.215  0.00  0.00    +0.025 A 
ATOM      4  C   UNL     1      -1.199   2.060  -0.152  0.00  0.00    +0.060 A 
ATOM      5  C   UNL     1      -0.041   1.275  -0.261  0.00  0.00    +0.060 A 
ATOM      6  C   UNL     1       1.198   1.895  -0.441  0.00  0.00    +0.015 A 
ENDROOT
BRANCH   5   7
ATOM      7  C   UNL     1      -0.133  -0.195  -0.192  0.00  0.00    +0.262 C 
ATOM      8  O   UNL     1      -1.213  -0.730  -0.035  0.00  0.00    -0.269 OA
ATOM      9  N   UNL     1       0.982  -0.945  -0.302  0.00  0.00    -0.230 N 
ATOM     10  H   UNL     1       1.843  -0.518  -0.427  0.00  0.00    +0.173 HD
BRANCH   9  11
ATOM     11  N   UNL     1       0.895  -2.342  -0.237  0.00  0.00    -0.230 N 
ATOM     12  C   UNL     1       2.009  -3.092  -0.347  0.00  0.00    +0.263 C 
ATOM     13  O   UNL     1       3.089  -2.557  -0.504  0.00  0.00    -0.269 OA
ATOM     14  H   UNL     1       0.033  -2.769  -0.112  0.00  0.00    +0.173 HD
BRANCH  12  15
ATOM     15  C   UNL     1       1.917  -4.564  -0.278  0.00  0.00    +0.073 A 
ATOM     16  C   UNL     1       0.678  -5.183  -0.098  0.00  0.00    +0.017 A 
ATOM     17  C   UNL     1       0.599  -6.557  -0.035  0.00  0.00    +0.016 A 
ATOM     18  C   UNL     1       1.745  -7.327  -0.149  0.00  0.00    +0.021 A 
ATOM     19  C   UNL     1       2.977  -6.724  -0.328  0.00  0.00    +0.054 A 
ATOM     20  C   UNL     1       3.071  -5.346  -0.398  0.00  0.00    +0.137 A 
ATOM     21  F   UNL     1       4.273  -4.757  -0.578  0.00  0.00    -0.205 F 
ATOM     22 BR   UNL     1       1.625  -9.213  -0.060  0.00  0.00    -0.050 Br
ENDBRANCH  12  15
ENDBRANCH   9  11
ENDBRANCH   5   7
BRANCH   4  23
ATOM     23  N   UNL     1      -2.438   1.457   0.022  0.00  0.00    -0.215 N 
ATOM     24  H   UNL     1      -2.514   0.650   0.555  0.00  0.00    +0.174 HD
BRANCH  23  25
ATOM     25  S   UNL     1      -3.785   2.115  -0.681  0.00  0.00    +0.079 S 
ATOM     26  O   UNL     1      -4.854   1.210  -0.438  0.00  0.00    -0.149 OA
ATOM     27  O   UNL     1      -3.832   3.476  -0.273  0.00  0.00    -0.149 OA
BRANCH  25  28
ATOM     28  C   UNL     1      -3.515   2.120  -2.422  0.00  0.00    +0.146 A 
ATOM     29  C   UNL     1      -3.816   1.164  -3.335  0.00  0.00    +0.036 A 
ATOM     30  C   UNL     1      -3.510   1.387  -4.664  0.00  0.00    +0.010 A 
ATOM     31  C   UNL     1      -2.918   2.555  -5.016  0.00  0.00    +0.047 A 
ATOM     32  S   UNL     1      -2.782   3.388  -3.442  0.00  0.00    -0.077 S 
ENDBRANCH  25  28
ENDBRANCH  23  25
ENDBRANCH   4  23
TORSDOF 6
