REMARK  Name = ZINC09646892
REMARK  4 active torsions:
REMARK  status: ('A' for Active; 'I' for Inactive)
REMARK    1  A    between atoms: C_3  and  N_22
REMARK    2  A    between atoms: C_4  and  C_18
REMARK    3  A    between atoms: C_6  and  N_7
REMARK    4  A    between atoms: N_7  and  C_8
REMARK                            x       y       z     vdW  Elec       q    Type
REMARK                         _______ _______ _______ _____ _____    ______ ____
ROOT
ATOM      1  C   UNL     1       2.591  -2.724   0.671  0.00  0.00    +0.025 A 
ATOM      2  C   UNL     1       2.609  -4.103   0.759  0.00  0.00    +0.035 A 
ATOM      3  C   UNL     1       3.675  -4.816   0.241  0.00  0.00    +0.138 A 
ATOM      4  C   UNL     1       4.722  -4.153  -0.371  0.00  0.00    +0.087 A 
ATOM      5  C   UNL     1       4.708  -2.776  -0.468  0.00  0.00    +0.038 A 
ATOM      6  C   UNL     1       3.639  -2.056   0.051  0.00  0.00    +0.032 A 
ENDROOT
BRANCH   4   7
ATOM      7  C   UNL     1       5.881  -4.935  -0.934  0.00  0.00    +0.420 C 
ATOM      8  F   UNL     1       6.808  -4.052  -1.499  0.00  0.00    -0.166 F 
ATOM      9  F   UNL     1       6.495  -5.662   0.091  0.00  0.00    -0.166 F 
ATOM     10  F   UNL     1       5.417  -5.815  -1.917  0.00  0.00    -0.166 F 
ENDBRANCH   4   7
BRANCH   3  11
ATOM     11  N   UNL     1       3.694  -6.293   0.343  0.00  0.00    +0.057 N 
ATOM     12  O   UNL     1       2.772  -6.878   0.883  0.00  0.00    -0.126 OA
ATOM     13  O   UNL     1       4.632  -6.922  -0.112  0.00  0.00    -0.126 OA
ENDBRANCH   3  11
BRANCH   6  14
ATOM     14  N   UNL     1       3.620  -0.662  -0.045  0.00  0.00    -0.314 N 
ATOM     15  H   UNL     1       4.453  -0.171  -0.124  0.00  0.00    +0.152 HD
BRANCH  14  16
ATOM     16  C   UNL     1       2.401   0.025  -0.028  0.00  0.00    +0.035 A 
ATOM     17  C   UNL     1       1.265  -0.562  -0.571  0.00  0.00    +0.027 A 
ATOM     18  C   UNL     1       0.062   0.116  -0.556  0.00  0.00    +0.051 A 
ATOM     19  C   UNL     1      -0.016   1.384   0.002  0.00  0.00    +0.162 A 
ATOM     20  C   UNL     1       1.118   1.973   0.548  0.00  0.00    +0.164 A 
ATOM     21  C   UNL     1       2.326   1.292   0.531  0.00  0.00    +0.072 A 
ATOM     22  O   UNL     1       1.058   3.212   1.107  0.00  0.00    -0.485 OA
ATOM     23  C   UNL     1      -0.079   4.016   0.773  0.00  0.00    +0.270 C 
ATOM     24  C   UNL     1      -1.336   3.146   0.902  0.00  0.00    +0.270 C 
ATOM     25  O   UNL     1      -1.210   2.040   0.000  0.00  0.00    -0.485 OA
ENDBRANCH  14  16
ENDBRANCH   6  14
TORSDOF 4
