REMARK  Name = ZINC09142651
REMARK  10 active torsions:
REMARK  status: ('A' for Active; 'I' for Inactive)
REMARK    1  A    between atoms: C_1  and  C_2
REMARK    2  A    between atoms: C_5  and  S_8
REMARK    3  A    between atoms: S_8  and  N_11
REMARK    4  A    between atoms: N_11  and  C_12
REMARK    5  A    between atoms: C_12  and  C_13
REMARK    6  A    between atoms: C_13  and  C_14
REMARK    7  A    between atoms: C_20  and  C_22
REMARK    8  A    between atoms: N_27  and  C_29
REMARK    9  A    between atoms: C_32  and  C_36
REMARK   10  A    between atoms: C_34  and  C_35
REMARK                            x       y       z     vdW  Elec       q    Type
REMARK                         _______ _______ _______ _____ _____    ______ ____
ROOT
ATOM      1  C   UNL     1       0.516   7.033   4.311  0.00  0.00    +0.105 A 
ATOM      2  N   UNL     1       1.139   6.555   3.252  0.00  0.00    -0.145 NA
ATOM      3  N   UNL     1       0.782   5.459   2.736  0.00  0.00    -0.126 NA
ATOM      4  C   UNL     1      -0.218   4.748   3.227  0.00  0.00    +0.188 A 
ATOM      5  S   UNL     1      -0.708   5.752   4.561  0.00  0.00    -0.035 S 
ATOM      6  N   UNL     1      -0.740   3.535   2.793  0.00  0.00    -0.263 N 
ATOM      7  C   UNL     1      -0.209   2.918   1.719  0.00  0.00    +0.224 C 
ATOM      8  O   UNL     1       0.725   3.422   1.131  0.00  0.00    -0.275 OA
ATOM      9  H   UNL     1      -1.487   3.132   3.263  0.00  0.00    +0.157 HD
ENDROOT
BRANCH   7  10
ATOM     10  C   UNL     1      -0.775   1.603   1.248  0.00  0.00    +0.102 C 
ATOM     11  C   UNL     1      -2.205   1.785   0.683  0.00  0.00    +0.110 C 
ATOM     12  C   UNL     1      -1.996   1.984  -0.801  0.00  0.00    +0.221 C 
ATOM     13  O   UNL     1      -2.823   2.434  -1.565  0.00  0.00    -0.275 OA
ATOM     14  N   UNL     1      -0.759   1.590  -1.151  0.00  0.00    -0.270 N 
ATOM     15  C   UNL     1      -0.013   1.086   0.008  0.00  0.00    +0.127 C 
BRANCH  14  16
ATOM     16  C   UNL     1      -0.248   1.653  -2.452  0.00  0.00    +0.039 A 
ATOM     17  C   UNL     1      -0.408   0.576  -3.315  0.00  0.00    +0.024 A 
ATOM     18  C   UNL     1       0.096   0.641  -4.599  0.00  0.00    +0.005 A 
ATOM     19  C   UNL     1       0.760   1.777  -5.026  0.00  0.00    -0.050 A 
ATOM     20  C   UNL     1       0.921   2.850  -4.169  0.00  0.00    +0.008 A 
ATOM     21  C   UNL     1       0.414   2.793  -2.885  0.00  0.00    -0.029 A 
ATOM     22  C   UNL     1       0.585   3.966  -1.954  0.00  0.00    +0.045 C 
ATOM     23  C   UNL     1       1.310   1.844  -6.427  0.00  0.00    +0.044 C 
ENDBRANCH  14  16
ENDBRANCH   7  10
BRANCH   1  24
ATOM     24  C   UNL     1       0.761   8.301   5.087  0.00  0.00    +0.081 C 
BRANCH  24  25
ATOM     25  C   UNL     1      -0.076   9.434   4.491  0.00  0.00    +0.112 C 
BRANCH  25  26
ATOM     26  N   UNL     1       0.162  10.667   5.245  0.00  0.00    -0.190 NA
ATOM     27  H   UNL     1       0.596  10.629   6.112  0.00  0.00    +0.148 HD
BRANCH  26  28
ATOM     28  S   UNL     1      -0.308  12.126   4.618  0.00  0.00    +0.058 S 
ATOM     29  O   UNL     1       0.032  13.111   5.583  0.00  0.00    -0.153 OA
ATOM     30  O   UNL     1       0.177  12.168   3.282  0.00  0.00    -0.153 OA
BRANCH  28  35
ATOM     31  C   UNL     1      -6.331  12.060   4.266  0.00  0.00    +0.044 C 
ATOM     32  C   UNL     1      -4.826  12.076   4.354  0.00  0.00    -0.050 A 
ATOM     33  C   UNL     1      -4.206  12.537   5.500  0.00  0.00    +0.005 A 
ATOM     34  C   UNL     1      -2.826  12.552   5.580  0.00  0.00    +0.029 A 
ATOM     35  C   UNL     1      -2.067  12.106   4.515  0.00  0.00    +0.105 A 
ATOM     36  C   UNL     1      -2.687  11.650   3.367  0.00  0.00    +0.029 A 
ATOM     37  C   UNL     1      -4.067  11.631   3.288  0.00  0.00    +0.005 A 
ENDBRANCH  28  35
ENDBRANCH  26  28
ENDBRANCH  25  26
ENDBRANCH  24  25
ENDBRANCH   1  24
TORSDOF 7
