REMARK  Name = ZINC01679675
REMARK  0 active torsions:
REMARK  status: ('A' for Active; 'I' for Inactive)
REMARK                            x       y       z     vdW  Elec       q    Type
REMARK                         _______ _______ _______ _____ _____    ______ ____
ROOT
ATOM      1  C   UNL     1      -2.356   3.643   0.033  0.00  0.00    +0.130 A 
ATOM      2  C   UNL     1      -3.556   2.949   0.035  0.00  0.00    +0.050 A 
ATOM      3  C   UNL     1      -3.519   1.563   0.027  0.00  0.00    +0.130 A 
ATOM      4  N   UNL     1      -2.348   0.948   0.018  0.00  0.00    -0.222 NA
ATOM      5  C   UNL     1      -1.219   1.642   0.017  0.00  0.00    +0.213 A 
ATOM      6  N   UNL     1      -1.219   2.966   0.029  0.00  0.00    -0.222 NA
ATOM      7  N   UNL     1      -0.011   0.966   0.007  0.00  0.00    -0.327 N 
ATOM      8  I   UNL     1      -5.384   3.971   0.050  0.00  0.00    -0.041 I 
ATOM      9  H   UNL     1       0.002  -0.004   0.002  0.00  0.00    +0.145 HD
ATOM     10  H   UNL     1       0.822   1.462   0.002  0.00  0.00    +0.145 HD
ENDROOT
TORSDOF 0
