REMARK  Name = ZINC09668944
REMARK  2 active torsions:
REMARK  status: ('A' for Active; 'I' for Inactive)
REMARK    1  A    between atoms: C_4  and  C_7
REMARK    2  A    between atoms: N_18  and  C_21
REMARK                            x       y       z     vdW  Elec       q    Type
REMARK                         _______ _______ _______ _____ _____    ______ ____
ROOT
ATOM      1  C   UNL     1       2.402   9.434  -0.103  0.00  0.00    +0.080 A 
ATOM      2  C   UNL     1       1.645  10.157  -1.013  0.00  0.00    +0.098 A 
ATOM      3  C   UNL     1       0.881   9.458  -1.959  0.00  0.00    +0.253 A 
ATOM      4  O   UNL     1       0.202  10.059  -2.776  0.00  0.00    -0.268 OA
ATOM      5  N   UNL     1       0.909   8.109  -1.950  0.00  0.00    -0.295 N 
ATOM      6  H   UNL     1       0.387   7.609  -2.597  0.00  0.00    +0.172 HD
ATOM      7  C   UNL     1       1.670   7.447  -1.035  0.00  0.00    +0.199 A 
ATOM      8  N   UNL     1       2.385   8.095  -0.141  0.00  0.00    -0.216 NA
ATOM      9  N   UNL     1       1.686   6.078  -1.042  0.00  0.00    -0.298 N 
ATOM     10  C   UNL     1       2.466   5.554   0.088  0.00  0.00    +0.127 C 
ATOM     11  C   UNL     1       2.526   4.028  -0.001  0.00  0.00    +0.124 C 
ATOM     12  N   UNL     1       1.161   3.485   0.009  0.00  0.00    -0.327 N 
ATOM     13  C   UNL     1       0.381   4.008  -1.121  0.00  0.00    +0.124 C 
ATOM     14  C   UNL     1       0.320   5.535  -1.032  0.00  0.00    +0.127 C 
ENDROOT
BRANCH  12  15
ATOM     15  C   UNL     1       1.177   2.087   0.002  0.00  0.00    +0.030 A 
ATOM     16  C   UNL     1      -0.017   1.377   0.010  0.00  0.00    +0.026 A 
ATOM     17  C   UNL     1       0.002  -0.004   0.002  0.00  0.00    +0.040 A 
ATOM     18  C   UNL     1       1.210  -0.681  -0.013  0.00  0.00    +0.124 A 
ATOM     19  C   UNL     1       2.401   0.025  -0.021  0.00  0.00    +0.040 A 
ATOM     20  C   UNL     1       2.387   1.406  -0.013  0.00  0.00    +0.026 A 
ATOM     21  F   UNL     1       1.226  -2.032  -0.020  0.00  0.00    -0.205 F 
ENDBRANCH  12  15
BRANCH   1  25
ATOM     22  C   UNL     1       4.752  11.458   2.804  0.00  0.00    +0.000 A 
ATOM     23  C   UNL     1       4.743  10.075   2.767  0.00  0.00    +0.001 A 
ATOM     24  C   UNL     1       3.982   9.413   1.825  0.00  0.00    +0.010 A 
ATOM     25  C   UNL     1       3.221  10.140   0.911  0.00  0.00    +0.001 A 
ATOM     26  C   UNL     1       3.239  11.534   0.950  0.00  0.00    +0.010 A 
ATOM     27  C   UNL     1       3.999  12.185   1.899  0.00  0.00    +0.001 A 
ENDBRANCH   1  25
TORSDOF 2
