REMARK  Name = ZINC39623415
REMARK  8 active torsions:
REMARK  status: ('A' for Active; 'I' for Inactive)
REMARK    1  A    between atoms: C_1  and  C_2
REMARK    2  A    between atoms: C_2  and  C_3
REMARK    3  A    between atoms: C_3  and  C_4
REMARK    4  A    between atoms: C_4  and  C_5
REMARK    5  A    between atoms: C_5  and  N_6
REMARK    6  A    between atoms: C_7  and  C_9
REMARK    7  A    between atoms: C_20  and  C_22
REMARK    8  A    between atoms: C_26  and  C_28
REMARK                            x       y       z     vdW  Elec       q    Type
REMARK                         _______ _______ _______ _____ _____    ______ ____
ROOT
ATOM      1  C   UNL     1       1.974  -6.797  -3.329  0.00  0.00    +0.100 C 
ATOM      2  C   UNL     1       0.446  -7.023  -3.381  0.00  0.00    +0.121 C 
ATOM      3  N   UNL     1       0.144  -7.204  -4.821  0.00  0.00    -0.296 N 
ATOM      4  C   UNL     1       1.275  -8.012  -5.337  0.00  0.00    +0.115 C 
ATOM      5  C   UNL     1       2.514  -7.450  -4.612  0.00  0.00    -0.004 C 
ATOM      6  C   UNL     1       3.479  -8.580  -4.263  0.00  0.00    -0.010 C 
ATOM      7  C   UNL     1       4.048  -9.175  -5.554  0.00  0.00    -0.082 C 
ATOM      8  N   UNL     1       4.742  -8.128  -6.314  0.00  0.00    +0.379 N 
ATOM      9  C   UNL     1       3.788  -7.092  -6.725  0.00  0.00    -0.082 C 
ATOM     10  C   UNL     1       3.208  -6.408  -5.484  0.00  0.00    -0.010 C 
ATOM     11  C   UNL     1      -0.919  -6.739  -5.506  0.00  0.00    +0.247 C 
ATOM     12  O   UNL     1      -1.704  -5.981  -4.970  0.00  0.00    -0.270 OA
ATOM     13  H   UNL     1       5.458  -7.714  -5.737  0.00  0.00    -0.086 HD
ATOM     14  H   UNL     1       5.168  -8.535  -7.133  0.00  0.00    -0.086 HD
ENDROOT
BRANCH  11  15
ATOM     15  C   UNL     1      -1.131  -7.150  -6.910  0.00  0.00    +0.037 A 
ATOM     16  C   UNL     1      -0.530  -8.312  -7.398  0.00  0.00    +0.014 A 
ATOM     17  C   UNL     1      -0.731  -8.690  -8.709  0.00  0.00    +0.016 A 
ATOM     18  C   UNL     1      -1.527  -7.921  -9.540  0.00  0.00    +0.021 A 
ATOM     19  C   UNL     1      -2.126  -6.768  -9.062  0.00  0.00    -0.036 A 
ATOM     20  C   UNL     1      -1.938  -6.382  -7.751  0.00  0.00    +0.017 A 
ATOM     21  C   UNL     1      -2.991  -5.936  -9.973  0.00  0.00    +0.045 C 
ATOM     22 BR   UNL     1      -1.797  -8.446 -11.337  0.00  0.00    -0.050 Br
ENDBRANCH  11  15
BRANCH   1  24
ATOM     23  N   UNL     1       3.455  -4.885  -2.810  0.00  0.00    -0.315 N 
ATOM     24  C   UNL     1       2.286  -5.323  -3.319  0.00  0.00    +0.218 C 
ATOM     25  O   UNL     1       1.485  -4.531  -3.769  0.00  0.00    -0.275 OA
ATOM     26  H   UNL     1       4.095  -5.518  -2.451  0.00  0.00    +0.149 HD
BRANCH  23  27
ATOM     27  C   UNL     1       3.758  -3.451  -2.801  0.00  0.00    +0.104 C 
BRANCH  27  28
ATOM     28  C   UNL     1       5.136  -3.226  -2.175  0.00  0.00    +0.019 C 
BRANCH  28  29
ATOM     29  C   UNL     1       5.452  -1.729  -2.165  0.00  0.00    +0.001 C 
BRANCH  29  31
ATOM     30  C   UNL     1       7.147  -0.006  -1.529  0.00  0.00    +0.004 C 
ATOM     31  C   UNL     1       6.830  -1.503  -1.539  0.00  0.00    -0.003 C 
ENDBRANCH  29  31
ENDBRANCH  28  29
ENDBRANCH  27  28
ENDBRANCH  23  27
ENDBRANCH   1  24
TORSDOF 6
