REMARK  Name = ZINC59304621
REMARK  6 active torsions:
REMARK  status: ('A' for Active; 'I' for Inactive)
REMARK    1  A    between atoms: C_1  and  C_2
REMARK    2  A    between atoms: C_3  and  C_11
REMARK    3  A    between atoms: C_7  and  C_8
REMARK    4  A    between atoms: C_14  and  C_16
REMARK    5  A    between atoms: N_17  and  N_18
REMARK    6  A    between atoms: C_19  and  C_21
REMARK                            x       y       z     vdW  Elec       q    Type
REMARK                         _______ _______ _______ _____ _____    ______ ____
ROOT
ATOM      1  C   UNL     1      -0.823  -0.033  -2.381  0.00  0.00    +0.136 A 
ATOM      2  C   UNL     1      -0.190  -0.072  -3.588  0.00  0.00    +0.050 A 
ATOM      3  C   UNL     1      -0.932   0.727  -4.468  0.00  0.00    +0.051 A 
ATOM      4  C   UNL     1      -1.997   1.225  -3.751  0.00  0.00    +0.148 A 
ATOM      5  O   UNL     1      -1.915   0.748  -2.492  0.00  0.00    -0.454 OA
ENDROOT
BRANCH   1   8
ATOM      6  C   UNL     1      -0.625   1.428   0.107  0.00  0.00    +0.045 C 
ATOM      7  C   UNL     1      -0.289  -0.040   0.048  0.00  0.00    -0.026 A 
ATOM      8  C   UNL     1      -0.388  -0.734  -1.157  0.00  0.00    +0.021 A 
ATOM      9  C   UNL     1      -0.074  -2.095  -1.204  0.00  0.00    +0.012 A 
ATOM     10  C   UNL     1       0.332  -2.753  -0.060  0.00  0.00    +0.002 A 
ATOM     11  C   UNL     1       0.433  -2.073   1.137  0.00  0.00    +0.015 A 
ATOM     12  C   UNL     1       0.128  -0.710   1.198  0.00  0.00    +0.067 A 
BRANCH  12  13
ATOM     13  C   UNL     1       0.241   0.017   2.477  0.00  0.00    +0.387 C 
ATOM     14  O   UNL     1       0.921   1.032   2.546  0.00  0.00    -0.241 OA
ATOM     15  O   UNL     1      -0.344  -0.394   3.469  0.00  0.00    -0.241 OA
ENDBRANCH  12  13
ENDBRANCH   1   8
BRANCH   4  16
ATOM     16  C   UNL     1      -3.041   2.113  -4.267  0.00  0.00    +0.176 C 
ATOM     17  N   UNL     1      -3.999   2.516  -3.483  0.00  0.00    -0.184 NA
BRANCH  17  18
ATOM     18  N   UNL     1      -4.997   3.366  -3.977  0.00  0.00    -0.200 N 
ATOM     19  C   UNL     1      -5.990   3.783  -3.166  0.00  0.00    +0.299 C 
ATOM     20  O   UNL     1      -6.018   3.421  -2.004  0.00  0.00    -0.265 OA
ATOM     21  H   UNL     1      -4.975   3.654  -4.903  0.00  0.00    +0.178 HD
BRANCH  19  22
ATOM     22  C   UNL     1      -7.036   4.674  -3.683  0.00  0.00    +0.192 A 
ATOM     23  C   UNL     1      -8.078   5.160  -2.959  0.00  0.00    +0.063 A 
ATOM     24  C   UNL     1      -8.855   5.993  -3.876  0.00  0.00    +0.021 A 
ATOM     25  C   UNL     1     -10.018   6.756  -3.750  0.00  0.00    +0.011 A 
ATOM     26  C   UNL     1     -10.501   7.439  -4.830  0.00  0.00    +0.001 A 
ATOM     27  C   UNL     1      -9.843   7.378  -6.052  0.00  0.00    +0.004 A 
ATOM     28  C   UNL     1      -8.694   6.631  -6.197  0.00  0.00    +0.047 A 
ATOM     29  C   UNL     1      -8.184   5.928  -5.111  0.00  0.00    +0.136 A 
ATOM     30  O   UNL     1      -7.106   5.137  -4.949  0.00  0.00    -0.450 OA
ENDBRANCH  19  22
ENDBRANCH  17  18
ENDBRANCH   4  16
TORSDOF 5
