REMARK  Name = ZINC38936000
REMARK  11 active torsions:
REMARK  status: ('A' for Active; 'I' for Inactive)
REMARK    1  A    between atoms: C_1  and  C_2
REMARK    2  A    between atoms: C_5  and  S_8
REMARK    3  A    between atoms: S_8  and  C_9
REMARK    4  A    between atoms: C_9  and  C_10
REMARK    5  A    between atoms: C_12  and  C_24
REMARK    6  A    between atoms: C_14  and  C_22
REMARK    7  A    between atoms: C_15  and  N_21
REMARK    8  A    between atoms: C_26  and  O_32
REMARK    9  A    between atoms: C_29  and  O_30
REMARK   10  A    between atoms: O_30  and  C_31
REMARK   11  A    between atoms: O_32  and  C_33
REMARK                            x       y       z     vdW  Elec       q    Type
REMARK                         _______ _______ _______ _____ _____    ______ ____
ROOT
ATOM      1  C   UNL     1       0.097  -6.482   1.870  0.00  0.00    +0.079 C 
ATOM      2  C   UNL     1       1.146  -7.189   2.215  0.00  0.00    +0.031 C 
ATOM      3  C   UNL     1       2.595  -6.853   2.438  0.00  0.00    +0.101 C 
ATOM      4  C   UNL     1       3.378  -7.977   1.786  0.00  0.00    +0.098 C 
ATOM      5  C   UNL     1       2.771  -9.090   1.324  0.00  0.00    +0.195 C 
ATOM      6  O   UNL     1       1.452  -9.352   1.342  0.00  0.00    -0.448 OA
ATOM      7  C   UNL     1       0.648  -8.633   2.282  0.00  0.00    +0.343 C 
ATOM      8  N   UNL     1      -0.742  -8.498   1.834  0.00  0.00    -0.138 NA
ATOM      9  N   UNL     1      -0.970  -7.294   1.659  0.00  0.00    -0.154 NA
ENDROOT
BRANCH   3  10
ATOM     10  C   UNL     1       2.930  -5.535   1.787  0.00  0.00    +0.010 A 
ATOM     11  C   UNL     1       2.763  -5.375   0.425  0.00  0.00    +0.053 A 
ATOM     12  C   UNL     1       3.071  -4.162  -0.173  0.00  0.00    +0.121 A 
ATOM     13  C   UNL     1       3.547  -3.111   0.596  0.00  0.00    +0.049 A 
ATOM     14  C   UNL     1       3.714  -3.271   1.958  0.00  0.00    +0.049 A 
ATOM     15  C   UNL     1       3.401  -4.482   2.557  0.00  0.00    +0.124 A 
BRANCH  15  16
ATOM     16  O   UNL     1       3.560  -4.639   3.898  0.00  0.00    -0.495 OA
ATOM     17  C   UNL     1       4.050  -3.512   4.629  0.00  0.00    +0.277 C 
ENDBRANCH  15  16
BRANCH  12  18
ATOM     18  O   UNL     1       2.906  -4.004  -1.513  0.00  0.00    -0.495 OA
ATOM     19  C   UNL     1       3.243  -2.729  -2.062  0.00  0.00    +0.277 C 
ENDBRANCH  12  18
ENDBRANCH   3  10
BRANCH   5  20
ATOM     20  N   UNL     1       3.583 -10.054   0.781  0.00  0.00    -0.329 N 
ATOM     21  H   UNL     1       4.542  -9.916   0.744  0.00  0.00    +0.145 HD
ATOM     22  H   UNL     1       3.197 -10.874   0.435  0.00  0.00    +0.145 HD
ENDBRANCH   5  20
BRANCH   4  23
ATOM     23  C   UNL     1       4.799  -7.854   1.657  0.00  0.00    +0.101 C 
ATOM     24  N   UNL     1       5.926  -7.755   1.554  0.00  0.00    -0.191 NA
ENDBRANCH   4  23
BRANCH   1  25
ATOM     25  C   UNL     1       0.077  -4.981   1.735  0.00  0.00    +0.131 C 
BRANCH  25  26
ATOM     26  S   UNL     1       0.062  -4.533  -0.023  0.00  0.00    -0.119 S 
BRANCH  26  31
ATOM     27  C   UNL     1      -0.018   1.503   0.010  0.00  0.00    +0.044 C 
ATOM     28  C   UNL     1       0.002  -0.004   0.002  0.00  0.00    -0.050 A 
ATOM     29  C   UNL     1       0.006  -0.687  -1.200  0.00  0.00    +0.004 A 
ATOM     30  C   UNL     1       0.024  -2.068  -1.212  0.00  0.00    +0.015 A 
ATOM     31  C   UNL     1       0.039  -2.771  -0.013  0.00  0.00    +0.008 A 
ATOM     32  C   UNL     1       0.036  -2.081   1.193  0.00  0.00    +0.015 A 
ATOM     33  C   UNL     1       0.023  -0.700   1.197  0.00  0.00    +0.004 A 
ENDBRANCH  26  31
ENDBRANCH  25  26
ENDBRANCH   1  25
TORSDOF 8
