REMARK  Name = ZINC39610426
REMARK  4 active torsions:
REMARK  status: ('A' for Active; 'I' for Inactive)
REMARK    1  A    between atoms: C_6  and  C_7
REMARK    2  A    between atoms: C_7  and  N_8
REMARK    3  A    between atoms: C_9  and  C_11
REMARK    4  A    between atoms: C_22  and  C_24
REMARK                            x       y       z     vdW  Elec       q    Type
REMARK                         _______ _______ _______ _____ _____    ______ ____
ROOT
ATOM      1  C   UNL     1      -3.306  -1.939  -3.025  0.00  0.00    +0.100 C 
ATOM      2  C   UNL     1      -2.223  -2.715  -3.808  0.00  0.00    +0.121 C 
ATOM      3  N   UNL     1      -2.622  -4.137  -3.689  0.00  0.00    -0.296 N 
ATOM      4  C   UNL     1      -4.100  -4.117  -3.813  0.00  0.00    +0.115 C 
ATOM      5  C   UNL     1      -4.537  -2.861  -3.034  0.00  0.00    -0.004 C 
ATOM      6  C   UNL     1      -5.703  -2.179  -3.742  0.00  0.00    -0.010 C 
ATOM      7  C   UNL     1      -6.932  -3.091  -3.687  0.00  0.00    -0.082 C 
ATOM      8  N   UNL     1      -7.277  -3.366  -2.287  0.00  0.00    +0.379 N 
ATOM      9  C   UNL     1      -6.187  -4.105  -1.639  0.00  0.00    -0.082 C 
ATOM     10  C   UNL     1      -4.927  -3.236  -1.607  0.00  0.00    -0.010 C 
ATOM     11  C   UNL     1      -1.823  -5.207  -3.510  0.00  0.00    +0.248 C 
ATOM     12  O   UNL     1      -0.631  -5.052  -3.329  0.00  0.00    -0.270 OA
ATOM     13  H   UNL     1      -7.426  -2.494  -1.802  0.00  0.00    -0.086 HD
ATOM     14  H   UNL     1      -8.122  -3.916  -2.252  0.00  0.00    -0.086 HD
ENDROOT
BRANCH  11  15
ATOM     15  C   UNL     1      -2.395  -6.569  -3.533  0.00  0.00    +0.055 A 
ATOM     16  C   UNL     1      -3.456  -6.870  -4.390  0.00  0.00    +0.016 A 
ATOM     17  C   UNL     1      -3.986  -8.142  -4.407  0.00  0.00    +0.021 A 
ATOM     18  C   UNL     1      -3.469  -9.123  -3.576  0.00  0.00    +0.042 A 
ATOM     19  C   UNL     1      -2.418  -8.832  -2.723  0.00  0.00    +0.040 A 
ATOM     20  C   UNL     1      -1.873  -7.563  -2.701  0.00  0.00    +0.054 A 
ATOM     21 CL   UNL     1      -0.550  -7.202  -1.637  0.00  0.00    -0.083 Cl
ATOM     22 CL   UNL     1      -4.143 -10.722  -3.604  0.00  0.00    -0.083 Cl
ENDBRANCH  11  15
BRANCH   1  24
ATOM     23  N   UNL     1      -3.269  -0.586  -0.955  0.00  0.00    -0.311 N 
ATOM     24  C   UNL     1      -2.850  -1.686  -1.611  0.00  0.00    +0.218 C 
ATOM     25  O   UNL     1      -2.107  -2.472  -1.063  0.00  0.00    -0.275 OA
ATOM     26  H   UNL     1      -3.864   0.043  -1.393  0.00  0.00    +0.149 HD
BRANCH  23  27
ATOM     27  C   UNL     1      -2.826  -0.339   0.420  0.00  0.00    +0.139 C 
BRANCH  27  33
ATOM     28  C   UNL     1      -4.655   0.930   1.562  0.00  0.00    +0.008 A 
ATOM     29  C   UNL     1      -5.212   2.108   2.022  0.00  0.00    +0.040 A 
ATOM     30  C   UNL     1      -4.545   3.307   1.838  0.00  0.00    +0.142 A 
ATOM     31  C   UNL     1      -3.318   3.323   1.194  0.00  0.00    +0.076 A 
ATOM     32  C   UNL     1      -2.763   2.143   0.735  0.00  0.00    +0.028 A 
ATOM     33  C   UNL     1      -3.432   0.947   0.920  0.00  0.00    -0.029 A 
ATOM     34 CL   UNL     1      -2.478   4.825   0.962  0.00  0.00    -0.081 Cl
ATOM     35  F   UNL     1      -5.088   4.459   2.287  0.00  0.00    -0.204 F 
ENDBRANCH  27  33
ENDBRANCH  23  27
ENDBRANCH   1  24
TORSDOF 4
