REMARK  Name = ZINC17146113
REMARK  4 active torsions:
REMARK  status: ('A' for Active; 'I' for Inactive)
REMARK    1  A    between atoms: C_1  and  C_2
REMARK    2  A    between atoms: C_2  and  N_13
REMARK    3  A    between atoms: C_7  and  C_11
REMARK    4  A    between atoms: C_7  and  C_12
REMARK                            x       y       z     vdW  Elec       q    Type
REMARK                         _______ _______ _______ _____ _____    ______ ____
ROOT
ATOM      1  N   UNL     1      -0.159  -0.637  -1.019  0.00  0.00    -0.219 NA
ATOM      2  C   UNL     1      -0.935  -0.374  -2.068  0.00  0.00    +0.203 C 
ATOM      3  N   UNL     1      -1.649   0.783  -2.111  0.00  0.00    -0.369 N 
ATOM      4  N   UNL     1      -1.014  -1.264  -3.099  0.00  0.00    -0.280 N 
ATOM      5  C   UNL     1      -1.908  -1.048  -4.131  0.00  0.00    +0.304 A 
ATOM      6  N   UNL     1      -2.671   0.006  -4.252  0.00  0.00    -0.193 NA
ATOM      7  C   UNL     1      -3.417  -0.123  -5.383  0.00  0.00    +0.111 A 
ATOM      8  C   UNL     1      -4.381   0.677  -5.998  0.00  0.00    +0.031 A 
ATOM      9  C   UNL     1      -4.971   0.257  -7.170  0.00  0.00    +0.002 A 
ATOM     10  C   UNL     1      -4.614  -0.956  -7.740  0.00  0.00    +0.004 A 
ATOM     11  C   UNL     1      -3.663  -1.757  -7.141  0.00  0.00    +0.048 A 
ATOM     12  C   UNL     1      -3.058  -1.349  -5.963  0.00  0.00    +0.157 A 
ATOM     13  O   UNL     1      -2.115  -1.890  -5.159  0.00  0.00    -0.423 OA
ATOM     14  H   UNL     1      -1.819   1.217  -2.962  0.00  0.00    +0.159 HD
ATOM     15  H   UNL     1      -1.988   1.175  -1.291  0.00  0.00    +0.159 HD
ATOM     16  H   UNL     1      -0.443  -2.048  -3.108  0.00  0.00    +0.173 HD
ENDROOT
BRANCH   1  18
ATOM     17  C   UNL     1       0.369   1.684  -0.424  0.00  0.00    +0.066 C 
ATOM     18  C   UNL     1      -0.004   0.268  -0.066  0.00  0.00    +0.056 C 
ATOM     19  C   UNL     1      -0.188  -0.090   1.278  0.00  0.00    +0.081 C 
ATOM     20  C   UNL     1      -0.107   0.900   2.282  0.00  0.00    +0.169 C 
ATOM     21  O   UNL     1       0.122   2.053   1.976  0.00  0.00    -0.292 OA
ATOM     22  C   UNL     1      -0.305   0.535   3.730  0.00  0.00    +0.086 C 
ATOM     23  C   UNL     1       0.152  -0.908   3.958  0.00  0.00    -0.021 C 
ATOM     24  C   UNL     1      -0.654  -1.840   3.049  0.00  0.00    +0.086 C 
ATOM     25  C   UNL     1      -0.456  -1.435   1.611  0.00  0.00    +0.169 C 
ATOM     26  O   UNL     1      -0.524  -2.273   0.734  0.00  0.00    -0.292 OA
ATOM     27  C   UNL     1      -0.080  -1.293   5.420  0.00  0.00    +0.012 C 
ATOM     28  C   UNL     1       1.641  -1.031   3.625  0.00  0.00    +0.012 C 
ENDBRANCH   1  18
TORSDOF 1
