REMARK  Name = ZINC13184530
REMARK  9 active torsions:
REMARK  status: ('A' for Active; 'I' for Inactive)
REMARK    1  A    between atoms: C_1  and  C_2
REMARK    2  A    between atoms: C_2  and  C_3
REMARK    3  A    between atoms: C_6  and  C_9
REMARK    4  A    between atoms: C_9  and  C_11
REMARK    5  A    between atoms: C_9  and  N_16
REMARK    6  A    between atoms: N_16  and  S_17
REMARK    7  A    between atoms: S_17  and  C_20
REMARK    8  A    between atoms: C_23  and  C_26
REMARK    9  A    between atoms: C_27  and  C_28
REMARK                            x       y       z     vdW  Elec       q    Type
REMARK                         _______ _______ _______ _____ _____    ______ ____
ROOT
ATOM      1  N   UNL     1       3.441   1.728   0.867  0.00  0.00    -0.178 NA
ATOM      2  H   UNL     1       3.425   2.695   0.944  0.00  0.00    +0.149 HD
ENDROOT
BRANCH   1   3
ATOM      3  S   UNL     1       4.544   0.847   1.732  0.00  0.00    +0.059 S 
ATOM      4  O   UNL     1       5.329   1.781   2.460  0.00  0.00    -0.153 OA
ATOM      5  O   UNL     1       3.821  -0.198   2.367  0.00  0.00    -0.153 OA
BRANCH   3   6
ATOM      6  C   UNL     1       5.624   0.079   0.571  0.00  0.00    +0.105 A 
ATOM      7  C   UNL     1       5.321  -1.178   0.077  0.00  0.00    +0.029 A 
ATOM      8  C   UNL     1       6.158  -1.784  -0.837  0.00  0.00    +0.010 A 
ATOM      9  C   UNL     1       7.321  -1.129  -1.255  0.00  0.00    -0.025 A 
ATOM     10  C   UNL     1       7.623   0.139  -0.747  0.00  0.00    +0.010 A 
ATOM     11  C   UNL     1       6.773   0.733   0.162  0.00  0.00    +0.029 A 
BRANCH   9  12
ATOM     12  C   UNL     1       8.223  -1.771  -2.225  0.00  0.00    +0.015 C 
ATOM     13  C   UNL     1       7.928  -2.993  -2.714  0.00  0.00    +0.096 C 
BRANCH  13  14
ATOM     14  C   UNL     1       8.824  -3.631  -3.678  0.00  0.00    +0.380 C 
ATOM     15  O   UNL     1       9.835  -3.059  -4.039  0.00  0.00    -0.241 OA
ATOM     16  O   UNL     1       8.530  -4.854  -4.166  0.00  0.00    -0.241 OA
ENDBRANCH  13  14
ENDBRANCH   9  12
ENDBRANCH   3   6
ENDBRANCH   1   3
BRANCH   1  17
ATOM     17  C   UNL     1       2.490   1.048  -0.016  0.00  0.00    +0.143 C 
BRANCH  17  21
ATOM     18  C   UNL     1      -1.238   3.133   0.029  0.00  0.00    -0.048 A 
ATOM     19  C   UNL     1      -1.219   1.751   0.017  0.00  0.00    +0.004 A 
ATOM     20  C   UNL     1      -0.013   1.076   0.008  0.00  0.00    +0.006 A 
ATOM     21  C   UNL     1       1.175   1.783   0.000  0.00  0.00    -0.024 A 
ATOM     22  C   UNL     1       1.156   3.165   0.008  0.00  0.00    +0.006 A 
ATOM     23  C   UNL     1      -0.050   3.840   0.022  0.00  0.00    +0.004 A 
BRANCH  18  25
ATOM     24  C   UNL     1      -3.010   4.125  -1.393  0.00  0.00    +0.009 C 
ATOM     25  C   UNL     1      -2.553   3.869   0.044  0.00  0.00    +0.032 C 
ENDBRANCH  18  25
ENDBRANCH  17  21
BRANCH  17  26
ATOM     26  C   UNL     1       3.036   1.025  -1.420  0.00  0.00    +0.013 A 
ATOM     27  C   UNL     1       2.991   0.028  -2.337  0.00  0.00    +0.013 A 
ATOM     28  C   UNL     1       3.564   0.232  -3.579  0.00  0.00    +0.008 A 
ATOM     29  C   UNL     1       4.154   1.424  -3.842  0.00  0.00    +0.045 A 
ATOM     30  S   UNL     1       3.903   2.307  -2.310  0.00  0.00    -0.100 S 
ENDBRANCH  17  26
ENDBRANCH   1  17
TORSDOF 8
