REMARK  Name = ZINC02801376
REMARK  14 active torsions:
REMARK  status: ('A' for Active; 'I' for Inactive)
REMARK    1  A    between atoms: C_1  and  C_2
REMARK    2  A    between atoms: C_2  and  O_3
REMARK    3  A    between atoms: O_3  and  C_4
REMARK    4  A    between atoms: C_4  and  C_5
REMARK    5  A    between atoms: C_5  and  O_6
REMARK    6  A    between atoms: O_6  and  C_7
REMARK    7  A    between atoms: C_7  and  C_9
REMARK    8  A    between atoms: C_10  and  C_32
REMARK    9  A    between atoms: C_14  and  C_16
REMARK   10  A    between atoms: C_19  and  O_24
REMARK   11  A    between atoms: C_20  and  O_22
REMARK   12  A    between atoms: O_22  and  C_23
REMARK   13  A    between atoms: C_28  and  C_30
REMARK   14  A    between atoms: C_28  and  C_31
REMARK                            x       y       z     vdW  Elec       q    Type
REMARK                         _______ _______ _______ _____ _____    ______ ____
ROOT
ATOM      1  C   UNL     1      -1.322   1.843   3.536  0.00  0.00    +0.065 C 
ATOM      2  C   UNL     1      -0.803   1.769   4.773  0.00  0.00    +0.016 C 
ATOM      3  N   UNL     1      -1.485   2.281   5.842  0.00  0.00    -0.321 N 
ATOM      4  C   UNL     1      -2.832   2.510   5.765  0.00  0.00    +0.016 C 
ATOM      5  C   UNL     1      -3.441   2.618   4.565  0.00  0.00    +0.024 C 
ATOM      6  C   UNL     1      -2.649   2.498   3.286  0.00  0.00    +0.092 C 
ATOM      7  C   UNL     1      -4.824   2.853   4.472  0.00  0.00    +0.162 C 
ATOM      8  O   UNL     1      -5.344   2.928   3.376  0.00  0.00    -0.292 OA
ATOM      9  C   UNL     1      -5.672   3.015   5.704  0.00  0.00    +0.086 C 
ATOM     10  C   UNL     1      -4.804   3.575   6.836  0.00  0.00    -0.023 C 
ATOM     11  C   UNL     1      -3.616   2.634   7.048  0.00  0.00    +0.058 C 
ATOM     12  C   UNL     1      -4.295   4.966   6.453  0.00  0.00    +0.011 C 
ATOM     13  C   UNL     1      -5.630   3.665   8.121  0.00  0.00    +0.011 C 
ATOM     14  C   UNL     1       0.539   1.117   4.984  0.00  0.00    +0.061 C 
ATOM     15  H   UNL     1      -0.951   2.512   6.775  0.00  0.00    +0.152 HD
ENDROOT
BRANCH   6  16
ATOM     16  C   UNL     1      -2.422   3.872   2.708  0.00  0.00    -0.032 A 
ATOM     17  C   UNL     1      -1.693   4.807   3.420  0.00  0.00    +0.008 A 
ATOM     18  C   UNL     1      -1.482   6.068   2.894  0.00  0.00    +0.049 A 
ATOM     19  C   UNL     1      -2.001   6.397   1.653  0.00  0.00    +0.158 A 
ATOM     20  C   UNL     1      -2.735   5.456   0.937  0.00  0.00    +0.162 A 
ATOM     21  C   UNL     1      -2.938   4.192   1.467  0.00  0.00    +0.054 A 
BRANCH  20  22
ATOM     22  O   UNL     1      -3.246   5.774  -0.282  0.00  0.00    -0.491 OA
ATOM     23  C   UNL     1      -4.072   4.795  -0.915  0.00  0.00    +0.277 C 
ENDBRANCH  20  22
BRANCH  19  24
ATOM     24  O   UNL     1      -1.795   7.638   1.135  0.00  0.00    -0.503 OA
ATOM     25  H   UNL     1      -2.208   7.898   0.149  0.00  0.00    +0.292 HD
ENDBRANCH  19  24
ENDBRANCH   6  16
BRANCH   1  26
ATOM     26  C   UNL     1      -0.601   1.299   2.447  0.00  0.00    +0.338 C 
ATOM     27  O   UNL     1      -0.877   0.190   2.029  0.00  0.00    -0.245 OA
BRANCH  26  28
ATOM     28  O   UNL     1       0.392   2.010   1.873  0.00  0.00    -0.459 OA
BRANCH  28  29
ATOM     29  C   UNL     1       1.096   1.387   0.797  0.00  0.00    +0.260 C 
BRANCH  29  30
ATOM     30  C   UNL     1       2.239   2.297   0.341  0.00  0.00    +0.201 C 
BRANCH  30  31
ATOM     31  O   UNL     1       3.202   2.414   1.389  0.00  0.00    -0.377 OA
BRANCH  31  33
ATOM     32  C   UNL     1       5.167   3.459   2.332  0.00  0.00    +0.034 C 
ATOM     33  C   UNL     1       4.263   3.328   1.104  0.00  0.00    +0.156 C 
ENDBRANCH  31  33
ENDBRANCH  30  31
ENDBRANCH  29  30
ENDBRANCH  28  29
ENDBRANCH  26  28
ENDBRANCH   1  26
TORSDOF 9
