REMARK  Name = ZINC04889291
REMARK  9 active torsions:
REMARK  status: ('A' for Active; 'I' for Inactive)
REMARK    1  A    between atoms: C_1  and  O_2
REMARK    2  A    between atoms: O_2  and  C_3
REMARK    3  A    between atoms: C_6  and  C_9
REMARK    4  A    between atoms: C_16  and  N_32
REMARK    5  A    between atoms: C_17  and  C_30
REMARK    6  A    between atoms: C_18  and  C_20
REMARK    7  A    between atoms: C_23  and  C_26
REMARK    8  A    between atoms: C_26  and  O_28
REMARK    9  A    between atoms: O_28  and  C_29
REMARK                            x       y       z     vdW  Elec       q    Type
REMARK                         _______ _______ _______ _____ _____    ______ ____
ROOT
ATOM      1  C   UNL     1       2.576  -2.539   4.292  0.00  0.00    +0.074 A 
ATOM      2  C   UNL     1       3.449  -3.573   4.209  0.00  0.00    +0.054 A 
ATOM      3  C   UNL     1       3.858  -3.906   5.515  0.00  0.00    +0.245 A 
ATOM      4  N   UNL     1       3.258  -3.105   6.349  0.00  0.00    -0.135 NA
ATOM      5  N   UNL     1       2.446  -2.226   5.616  0.00  0.00    -0.273 N 
ATOM      6  H   UNL     1       1.889  -1.522   5.984  0.00  0.00    +0.189 HD
ATOM      7  O   UNL     1       4.738  -4.915   5.759  0.00  0.00    -0.421 OA
ATOM      8  C   UNL     1       5.002  -5.766   4.748  0.00  0.00    +0.201 C 
ATOM      9  C   UNL     1       4.670  -5.549   3.458  0.00  0.00    +0.098 C 
ATOM     10  C   UNL     1       3.956  -4.305   2.993  0.00  0.00    +0.102 C 
ENDROOT
BRANCH   1  14
ATOM     11  C   UNL     1       0.626  -0.618   1.041  0.00  0.00    +0.120 A 
ATOM     12  C   UNL     1       1.202   0.142   2.050  0.00  0.00    +0.046 A 
ATOM     13  C   UNL     1       1.835  -0.478   3.107  0.00  0.00    +0.013 A 
ATOM     14  C   UNL     1       1.897  -1.871   3.161  0.00  0.00    +0.000 A 
ATOM     15  C   UNL     1       1.317  -2.631   2.145  0.00  0.00    +0.013 A 
ATOM     16  C   UNL     1       0.680  -2.005   1.095  0.00  0.00    +0.046 A 
BRANCH  11  18
ATOM     17  C   UNL     1      -0.017   1.425   0.010  0.00  0.00    +0.277 C 
ATOM     18  O   UNL     1       0.002  -0.004   0.002  0.00  0.00    -0.495 OA
ENDBRANCH  11  18
ENDBRANCH   1  14
BRANCH  10  19
ATOM     19  C   UNL     1       4.913  -3.424   2.232  0.00  0.00    -0.035 A 
ATOM     20  C   UNL     1       6.067  -2.969   2.845  0.00  0.00    +0.005 A 
ATOM     21  C   UNL     1       6.947  -2.162   2.154  0.00  0.00    +0.015 A 
ATOM     22  C   UNL     1       6.672  -1.806   0.832  0.00  0.00    +0.059 A 
ATOM     23  C   UNL     1       5.506  -2.269   0.219  0.00  0.00    +0.015 A 
ATOM     24  C   UNL     1       4.637  -3.080   0.920  0.00  0.00    +0.005 A 
BRANCH  22  25
ATOM     25  C   UNL     1       7.609  -0.942   0.086  0.00  0.00    +0.339 C 
ATOM     26  O   UNL     1       8.623  -0.540   0.622  0.00  0.00    -0.245 OA
BRANCH  25  27
ATOM     27  O   UNL     1       7.341  -0.600  -1.189  0.00  0.00    -0.464 OA
ATOM     28  C   UNL     1       8.291   0.238  -1.850  0.00  0.00    +0.280 C 
ENDBRANCH  25  27
ENDBRANCH  22  25
ENDBRANCH  10  19
BRANCH   8  29
ATOM     29  N   UNL     1       5.655  -6.935   5.052  0.00  0.00    -0.328 N 
ATOM     30  H   UNL     1       5.909  -7.125   5.968  0.00  0.00    +0.145 HD
ATOM     31  H   UNL     1       5.862  -7.572   4.349  0.00  0.00    +0.145 HD
ENDBRANCH   8  29
BRANCH   9  32
ATOM     32  C   UNL     1       5.011  -6.545   2.487  0.00  0.00    +0.101 C 
ATOM     33  N   UNL     1       5.281  -7.335   1.717  0.00  0.00    -0.191 NA
ENDBRANCH   9  32
TORSDOF 7
