REMARK  Name = ZINC39531564
REMARK  11 active torsions:
REMARK  status: ('A' for Active; 'I' for Inactive)
REMARK    1  A    between atoms: C_1  and  C_2
REMARK    2  A    between atoms: C_5  and  C_8
REMARK    3  A    between atoms: C_8  and  C_10
REMARK    4  A    between atoms: C_8  and  N_18
REMARK    5  A    between atoms: C_10  and  N_11
REMARK    6  A    between atoms: N_11  and  S_12
REMARK    7  A    between atoms: S_12  and  C_15
REMARK    8  A    between atoms: C_15  and  C_16
REMARK    9  A    between atoms: C_15  and  C_17
REMARK   10  A    between atoms: C_22  and  C_25
REMARK   11  A    between atoms: C_30  and  O_31
REMARK                            x       y       z     vdW  Elec       q    Type
REMARK                         _______ _______ _______ _____ _____    ______ ____
ROOT
ATOM      1  C   UNL     1       0.198  -4.659  -0.540  0.00  0.00    +0.102 C 
ENDROOT
BRANCH   1   2
ATOM      2  N   UNL     1      -0.674  -5.142   0.539  0.00  0.00    -0.297 NA
ATOM      3  C   UNL     1      -0.337  -6.523   0.911  0.00  0.00    +0.066 C 
ATOM      4  C   UNL     1      -1.226  -6.967   2.074  0.00  0.00    -0.066 C 
ATOM      5  N   UNL     1      -2.636  -6.881   1.673  0.00  0.00    +0.385 N 
ATOM      6  C   UNL     1      -2.965  -5.491   1.328  0.00  0.00    -0.023 C 
ATOM      7  C   UNL     1      -2.090  -5.035   0.159  0.00  0.00    +0.074 C 
ATOM      8  H   UNL     1      -2.795  -7.473   0.872  0.00  0.00    -0.085 HD
ATOM      9  H   UNL     1      -3.222  -7.185   2.436  0.00  0.00    -0.085 HD
BRANCH   6  10
ATOM     10  C   UNL     1      -4.417  -5.402   0.934  0.00  0.00    -0.019 A 
ATOM     11  C   UNL     1      -5.099  -6.538   0.545  0.00  0.00    +0.005 A 
ATOM     12  C   UNL     1      -6.431  -6.457   0.183  0.00  0.00    +0.000 A 
ATOM     13  C   UNL     1      -7.083  -5.238   0.210  0.00  0.00    +0.004 A 
ATOM     14  C   UNL     1      -6.406  -4.098   0.598  0.00  0.00    +0.045 A 
ATOM     15  C   UNL     1      -5.071  -4.179   0.967  0.00  0.00    +0.118 A 
BRANCH  15  16
ATOM     16  O   UNL     1      -4.403  -3.060   1.355  0.00  0.00    -0.507 OA
ATOM     17  H   UNL     1      -3.973  -2.587   0.629  0.00  0.00    +0.292 HD
ENDBRANCH  15  16
ENDBRANCH   6  10
ENDBRANCH   1   2
BRANCH   1  22
ATOM     18  C   UNL     1      -0.777   0.966  -1.431  0.00  0.00    +0.044 C 
ATOM     19  C   UNL     1      -0.523  -0.501  -1.198  0.00  0.00    -0.050 A 
ATOM     20  C   UNL     1      -0.315  -1.345  -2.273  0.00  0.00    +0.003 A 
ATOM     21  C   UNL     1      -0.081  -2.691  -2.060  0.00  0.00    +0.005 A 
ATOM     22  C   UNL     1      -0.055  -3.192  -0.772  0.00  0.00    -0.029 A 
ATOM     23  C   UNL     1      -0.262  -2.348   0.303  0.00  0.00    +0.005 A 
ATOM     24  C   UNL     1      -0.492  -1.001   0.090  0.00  0.00    +0.003 A 
ENDBRANCH   1  22
BRANCH   1  25
ATOM     25  C   UNL     1       1.661  -4.867  -0.144  0.00  0.00    +0.129 C 
BRANCH  25  26
ATOM     26  N   UNL     1       2.530  -4.451  -1.248  0.00  0.00    -0.192 NA
ATOM     27  H   UNL     1       2.361  -4.774  -2.146  0.00  0.00    +0.148 HD
BRANCH  26  28
ATOM     28  S   UNL     1       3.800  -3.427  -0.961  0.00  0.00    +0.032 S 
ATOM     29  O   UNL     1       4.383  -3.207  -2.237  0.00  0.00    -0.158 OA
ATOM     30  O   UNL     1       3.237  -2.349  -0.226  0.00  0.00    -0.158 OA
BRANCH  28  31
ATOM     31  C   UNL     1       4.935  -4.375   0.090  0.00  0.00    +0.142 C 
ATOM     32  C   UNL     1       6.173  -3.529   0.395  0.00  0.00    +0.033 C 
ATOM     33  C   UNL     1       4.232  -4.741   1.399  0.00  0.00    +0.033 C 
ENDBRANCH  28  31
ENDBRANCH  26  28
ENDBRANCH  25  26
ENDBRANCH   1  25
TORSDOF 8
