REMARK  Name = ZINC09089751
REMARK  7 active torsions:
REMARK  status: ('A' for Active; 'I' for Inactive)
REMARK    1  A    between atoms: C_1  and  C_2
REMARK    2  A    between atoms: C_2  and  C_3
REMARK    3  A    between atoms: C_3  and  C_4
REMARK    4  A    between atoms: C_4  and  N_5
REMARK    5  A    between atoms: N_5  and  S_6
REMARK    6  A    between atoms: S_6  and  C_9
REMARK    7  A    between atoms: C_19  and  C_21
REMARK                            x       y       z     vdW  Elec       q    Type
REMARK                         _______ _______ _______ _____ _____    ______ ____
ROOT
ATOM      1  C   UNL     1       2.068  -5.084   1.601  0.00  0.00    +0.106 A 
ATOM      2  C   UNL     1       1.303  -5.535   0.534  0.00  0.00    +0.030 A 
ATOM      3  C   UNL     1       1.849  -6.291  -0.469  0.00  0.00    +0.031 A 
ATOM      4  C   UNL     1       3.220  -6.639  -0.449  0.00  0.00    +0.080 A 
ATOM      5  C   UNL     1       3.967  -6.163   0.652  0.00  0.00    +0.043 A 
ATOM      6  C   UNL     1       3.413  -5.401   1.650  0.00  0.00    +0.045 A 
ATOM      7  S   UNL     1       5.591  -6.798   0.309  0.00  0.00    -0.052 S 
ATOM      8  C   UNL     1       5.189  -7.628  -1.222  0.00  0.00    +0.166 A 
ATOM      9  N   UNL     1       3.908  -7.371  -1.351  0.00  0.00    -0.225 NA
ATOM     10  N   UNL     1       6.017  -8.356  -2.058  0.00  0.00    -0.261 N 
ATOM     11  C   UNL     1       5.521  -8.912  -3.182  0.00  0.00    +0.250 C 
ATOM     12  O   UNL     1       4.346  -8.773  -3.460  0.00  0.00    -0.270 OA
ATOM     13  H   UNL     1       6.955  -8.467  -1.836  0.00  0.00    +0.157 HD
ENDROOT
BRANCH  11  14
ATOM     14  C   UNL     1       6.407  -9.691  -4.076  0.00  0.00    +0.040 A 
ATOM     15  C   UNL     1       7.760  -9.868  -3.772  0.00  0.00    +0.033 A 
ATOM     16  C   UNL     1       8.550 -10.602  -4.634  0.00  0.00    +0.111 A 
ATOM     17  N   UNL     1       8.044 -11.133  -5.730  0.00  0.00    -0.263 NA
ATOM     18  C   UNL     1       6.775 -10.990  -6.054  0.00  0.00    +0.111 A 
ATOM     19  C   UNL     1       5.912 -10.276  -5.246  0.00  0.00    +0.033 A 
ENDBRANCH  11  14
BRANCH   1  20
ATOM     20  S   UNL     1       1.335  -4.113   2.875  0.00  0.00    +0.058 S 
ATOM     21  O   UNL     1       2.148  -4.276   4.029  0.00  0.00    -0.153 OA
ATOM     22  O   UNL     1      -0.052  -4.418   2.871  0.00  0.00    -0.153 OA
BRANCH  20  23
ATOM     23  N   UNL     1       1.471  -2.526   2.420  0.00  0.00    -0.190 NA
ATOM     24  H   UNL     1       2.020  -1.918   2.940  0.00  0.00    +0.148 HD
BRANCH  23  25
ATOM     25  C   UNL     1       0.763  -2.041   1.233  0.00  0.00    +0.106 C 
BRANCH  25  26
ATOM     26  C   UNL     1       0.742  -0.511   1.242  0.00  0.00    +0.017 C 
BRANCH  26  28
ATOM     27  C   UNL     1      -0.019   1.526   0.010  0.00  0.00    +0.004 C 
ATOM     28  C   UNL     1       0.002  -0.004   0.002  0.00  0.00    -0.002 C 
ENDBRANCH  26  28
ENDBRANCH  25  26
ENDBRANCH  23  25
ENDBRANCH  20  23
ENDBRANCH   1  20
TORSDOF 6
