REMARK  Name = ZINC33013745
REMARK  8 active torsions:
REMARK  status: ('A' for Active; 'I' for Inactive)
REMARK    1  A    between atoms: C_1  and  C_2
REMARK    2  A    between atoms: C_9  and  C_13
REMARK    3  A    between atoms: C_15  and  C_18
REMARK    4  A    between atoms: C_18  and  C_19
REMARK    5  A    between atoms: C_19  and  C_20
REMARK    6  A    between atoms: C_20  and  C_21
REMARK    7  A    between atoms: N_23  and  C_24
REMARK    8  A    between atoms: C_24  and  C_25
REMARK                            x       y       z     vdW  Elec       q    Type
REMARK                         _______ _______ _______ _____ _____    ______ ____
ROOT
ATOM      1  C   UNL     1       1.373   5.601   0.591  0.00  0.00    +0.207 A 
ATOM      2  N   UNL     1       1.391   4.334   1.066  0.00  0.00    -0.191 NA
ATOM      3  C   UNL     1       1.396   3.562   0.008  0.00  0.00    +0.228 A 
ATOM      4  O   UNL     1       1.375   4.362  -1.063  0.00  0.00    -0.338 OA
ATOM      5  N   UNL     1       1.362   5.523  -0.715  0.00  0.00    -0.056 NA
ENDROOT
BRANCH   1  14
ATOM      6  C   UNL     1       1.278  12.988   1.235  0.00  0.00    +0.044 C 
ATOM      7  C   UNL     1       1.304  11.608   1.840  0.00  0.00    -0.050 A 
ATOM      8  C   UNL     1       1.320  11.465   3.226  0.00  0.00    +0.005 A 
ATOM      9  C   UNL     1       1.343  10.233   3.805  0.00  0.00    +0.026 A 
ATOM     10  C   UNL     1       1.351   9.082   2.998  0.00  0.00    +0.049 A 
ATOM     11  C   UNL     1       1.334   9.230   1.589  0.00  0.00    -0.001 A 
ATOM     12  C   UNL     1       1.311  10.517   1.026  0.00  0.00    +0.013 A 
ATOM     13  C   UNL     1       1.342   8.081   0.778  0.00  0.00    +0.027 A 
ATOM     14  C   UNL     1       1.365   6.844   1.400  0.00  0.00    +0.087 A 
ATOM     15  C   UNL     1       1.374   6.775   2.808  0.00  0.00    +0.260 A 
ATOM     16  N   UNL     1       1.372   7.862   3.547  0.00  0.00    -0.322 N 
ATOM     17  O   UNL     1       1.391   5.563   3.413  0.00  0.00    -0.267 OA
ATOM     18  H   UNL     1       1.389   7.751   4.641  0.00  0.00    +0.169 HD
ENDBRANCH   1  14
BRANCH   3  19
ATOM     19  C   UNL     1       1.417   2.055  -0.000  0.00  0.00    +0.099 C 
BRANCH  19  20
ATOM     20  C   UNL     1      -0.019   1.526   0.010  0.00  0.00    +0.019 C 
BRANCH  20  21
ATOM     21  C   UNL     1       0.002  -0.004   0.002  0.00  0.00    +0.096 C 
BRANCH  21  22
ATOM     22  C   UNL     1      -1.412  -0.526   0.013  0.00  0.00    +0.213 C 
ATOM     23  O   UNL     1      -2.344   0.250   0.026  0.00  0.00    -0.276 OA
ATOM     24  N   UNL     1      -1.640  -1.854   0.008  0.00  0.00    -0.313 N 
ATOM     25  H   UNL     1      -0.794  -2.557  -0.004  0.00  0.00    +0.149 HD
BRANCH  24  26
ATOM     26  C   UNL     1      -3.014  -2.361   0.018  0.00  0.00    +0.135 C 
BRANCH  26  27
ATOM     27  C   UNL     1      -2.994  -3.891   0.010  0.00  0.00    +0.135 C 
ATOM     28  C   UNL     1      -4.436  -4.434   0.021  0.00  0.00    +0.035 C 
ATOM     29  C   UNL     1      -4.527  -5.294  -1.264  0.00  0.00    +0.031 C 
ATOM     30  C   UNL     1      -3.035  -5.591  -1.562  0.00  0.00    +0.160 C 
ATOM     31  O   UNL     1      -2.367  -4.365  -1.194  0.00  0.00    -0.375 OA
ENDBRANCH  26  27
ENDBRANCH  24  26
ENDBRANCH  21  22
ENDBRANCH  20  21
ENDBRANCH  19  20
ENDBRANCH   3  19
TORSDOF 7
