REMARK  Name = ZINC39674850
REMARK  7 active torsions:
REMARK  status: ('A' for Active; 'I' for Inactive)
REMARK    1  A    between atoms: C_1  and  C_2
REMARK    2  A    between atoms: C_4  and  C_14
REMARK    3  A    between atoms: C_7  and  C_12
REMARK    4  A    between atoms: C_14  and  C_15
REMARK    5  A    between atoms: C_15  and  N_16
REMARK    6  A    between atoms: C_17  and  C_19
REMARK    7  A    between atoms: C_30  and  C_32
REMARK                            x       y       z     vdW  Elec       q    Type
REMARK                         _______ _______ _______ _____ _____    ______ ____
ROOT
ATOM      1  C   UNL     1      -7.108  -1.149  -2.391  0.00  0.00    +0.100 C 
ATOM      2  C   UNL     1      -6.660  -1.635  -3.788  0.00  0.00    +0.121 C 
ATOM      3  N   UNL     1      -7.187  -3.016  -3.891  0.00  0.00    -0.295 N 
ATOM      4  C   UNL     1      -8.526  -2.948  -3.256  0.00  0.00    +0.115 C 
ATOM      5  C   UNL     1      -8.334  -2.011  -2.047  0.00  0.00    -0.004 C 
ATOM      6  C   UNL     1      -9.565  -1.128  -1.863  0.00  0.00    -0.010 C 
ATOM      7  C   UNL     1     -10.758  -2.001  -1.464  0.00  0.00    -0.082 C 
ATOM      8  N   UNL     1     -10.451  -2.714  -0.218  0.00  0.00    +0.379 N 
ATOM      9  C   UNL     1      -9.324  -3.630  -0.431  0.00  0.00    -0.082 C 
ATOM     10  C   UNL     1      -8.070  -2.826  -0.785  0.00  0.00    -0.010 C 
ATOM     11  C   UNL     1      -6.586  -4.091  -4.438  0.00  0.00    +0.265 C 
ATOM     12  O   UNL     1      -5.440  -4.010  -4.833  0.00  0.00    -0.268 OA
ATOM     13  H   UNL     1     -10.210  -2.047   0.499  0.00  0.00    -0.086 HD
ATOM     14  H   UNL     1     -11.261  -3.241   0.074  0.00  0.00    -0.086 HD
ENDROOT
BRANCH  11  15
ATOM     15  C   UNL     1      -7.324  -5.371  -4.558  0.00  0.00    +0.126 A 
ATOM     16  C   UNL     1      -6.648  -6.510  -5.021  0.00  0.00    +0.033 A 
ATOM     17  C   UNL     1      -7.315  -7.696  -5.135  0.00  0.00    +0.012 A 
ATOM     18  C   UNL     1      -8.677  -7.731  -4.780  0.00  0.00    +0.000 A 
ATOM     19  C   UNL     1      -9.424  -8.916  -4.873  0.00  0.00    +0.010 A 
ATOM     20  C   UNL     1     -10.739  -8.912  -4.520  0.00  0.00    +0.001 A 
ATOM     21  C   UNL     1     -11.356  -7.746  -4.067  0.00  0.00    +0.002 A 
ATOM     22  C   UNL     1     -10.664  -6.580  -3.964  0.00  0.00    +0.028 A 
ATOM     23  C   UNL     1      -9.302  -6.543  -4.319  0.00  0.00    +0.072 A 
ATOM     24  N   UNL     1      -8.598  -5.415  -4.223  0.00  0.00    -0.242 NA
ENDBRANCH  11  15
BRANCH   1  26
ATOM     25  N   UNL     1      -5.886  -0.542  -0.327  0.00  0.00    -0.315 N 
ATOM     26  C   UNL     1      -6.011  -1.372  -1.382  0.00  0.00    +0.218 C 
ATOM     27  O   UNL     1      -5.239  -2.298  -1.519  0.00  0.00    -0.275 OA
ATOM     28  H   UNL     1      -6.503   0.199  -0.218  0.00  0.00    +0.149 HD
BRANCH  25  29
ATOM     29  C   UNL     1      -4.820  -0.759   0.653  0.00  0.00    +0.108 C 
BRANCH  29  30
ATOM     30  C   UNL     1      -4.901   0.315   1.741  0.00  0.00    +0.052 C 
BRANCH  30  33
ATOM     31  C   UNL     1      -4.726   0.890   4.925  0.00  0.00    +0.035 C 
ATOM     32  C   UNL     1      -3.521   0.920   3.983  0.00  0.00    +0.103 C 
ATOM     33  C   UNL     1      -3.804   0.092   2.749  0.00  0.00    -0.037 C 
ATOM     34  C   UNL     1      -2.870  -0.893   2.735  0.00  0.00    +0.000 A 
ATOM     35  C   UNL     1      -2.634  -1.962   1.831  0.00  0.00    +0.028 A 
ATOM     36  C   UNL     1      -1.597  -2.838   2.054  0.00  0.00    +0.052 A 
ATOM     37  C   UNL     1      -0.721  -2.696   3.212  0.00  0.00    +0.021 A 
ATOM     38  C   UNL     1      -0.897  -1.699   4.104  0.00  0.00    +0.027 A 
ATOM     39  C   UNL     1      -1.988  -0.738   3.914  0.00  0.00    +0.043 A 
ATOM     40  N   UNL     1      -2.359   0.299   4.628  0.00  0.00    -0.378 N 
ATOM     41  H   UNL     1      -1.937   0.605   5.446  0.00  0.00    +0.160 HD
BRANCH  36  42
ATOM     42  C   UNL     1      -1.373  -3.910   1.132  0.00  0.00    +0.099 C 
ATOM     43  N   UNL     1      -1.196  -4.761   0.400  0.00  0.00    -0.191 NA
ENDBRANCH  36  42
ENDBRANCH  30  33
ENDBRANCH  29  30
ENDBRANCH  25  29
ENDBRANCH   1  26
TORSDOF 6
