REMARK  Name = ZINC03660220
REMARK  7 active torsions:
REMARK  status: ('A' for Active; 'I' for Inactive)
REMARK    1  A    between atoms: C_1  and  C_2
REMARK    2  A    between atoms: C_7  and  N_8
REMARK    3  A    between atoms: C_9  and  C_11
REMARK    4  A    between atoms: C_11  and  C_12
REMARK    5  A    between atoms: C_12  and  C_13
REMARK    6  A    between atoms: N_15  and  N_16
REMARK    7  A    between atoms: C_17  and  C_18
REMARK                            x       y       z     vdW  Elec       q    Type
REMARK                         _______ _______ _______ _____ _____    ______ ____
ROOT
ATOM      1  C   UNL     1       4.624   8.259  -0.431  0.00  0.00    +0.233 C 
ATOM      2  O   UNL     1       5.682   7.665  -0.444  0.00  0.00    -0.274 OA
ATOM      3  N   UNL     1       4.606   9.603  -0.526  0.00  0.00    -0.207 N 
ATOM      4  H   UNL     1       3.760  10.079  -0.515  0.00  0.00    +0.177 HD
ENDROOT
BRANCH   3   5
ATOM      5  N   UNL     1       5.808  10.314  -0.639  0.00  0.00    -0.188 NA
ATOM      6  C   UNL     1       5.790  11.609  -0.731  0.00  0.00    +0.138 C 
BRANCH   6   7
ATOM      7  C   UNL     1       7.054  12.357  -0.850  0.00  0.00    -0.002 A 
ATOM      8  C   UNL     1       8.274  11.675  -0.860  0.00  0.00    +0.013 A 
ATOM      9  C   UNL     1       9.455  12.376  -0.977  0.00  0.00    +0.050 A 
ATOM     10  C   UNL     1       9.439  13.760  -1.075  0.00  0.00    +0.166 A 
ATOM     11  C   UNL     1       8.226  14.448  -1.060  0.00  0.00    +0.167 A 
ATOM     12  C   UNL     1       7.037  13.750  -0.949  0.00  0.00    +0.059 A 
ATOM     13  O   UNL     1       8.481  15.784  -1.170  0.00  0.00    -0.453 OA
ATOM     14  C   UNL     1       9.831  15.879  -1.662  0.00  0.00    +0.466 C 
ATOM     15  O   UNL     1      10.452  14.667  -1.193  0.00  0.00    -0.453 OA
ENDBRANCH   6   7
ENDBRANCH   3   5
BRANCH   1  16
ATOM     16  C   UNL     1       3.331   7.494  -0.308  0.00  0.00    +0.107 C 
BRANCH  16  17
ATOM     17  C   UNL     1       3.631   5.997  -0.218  0.00  0.00    +0.105 C 
BRANCH  17  19
ATOM     18  N   UNL     1       2.357   3.888  -0.001  0.00  0.00    -0.285 N 
ATOM     19  C   UNL     1       2.338   5.232  -0.095  0.00  0.00    +0.218 C 
ATOM     20  O   UNL     1       1.281   5.826  -0.082  0.00  0.00    -0.275 OA
ATOM     21  H   UNL     1       3.203   3.418   0.070  0.00  0.00    +0.155 HD
BRANCH  18  28
ATOM     22  C   UNL     1       2.322   1.324   1.234  0.00  0.00    +0.045 C 
ATOM     23  C   UNL     1       1.095   1.915   0.588  0.00  0.00    -0.029 A 
ATOM     24  C   UNL     1      -0.092   1.207   0.583  0.00  0.00    +0.006 A 
ATOM     25  C   UNL     1      -1.217   1.745  -0.014  0.00  0.00    +0.020 A 
ATOM     26  C   UNL     1      -1.161   2.998  -0.599  0.00  0.00    +0.043 A 
ATOM     27  C   UNL     1       0.024   3.710  -0.598  0.00  0.00    +0.043 A 
ATOM     28  C   UNL     1       1.156   3.170  -0.003  0.00  0.00    +0.038 A 
ATOM     29 CL   UNL     1      -2.577   3.672  -1.343  0.00  0.00    -0.083 Cl
ENDBRANCH  18  28
ENDBRANCH  17  19
ENDBRANCH  16  17
ENDBRANCH   1  16
TORSDOF 6
