REMARK  Name = ZINC67383567
REMARK  11 active torsions:
REMARK  status: ('A' for Active; 'I' for Inactive)
REMARK    1  A    between atoms: C_1  and  C_2
REMARK    2  A    between atoms: C_2  and  C_4
REMARK    3  A    between atoms: C_2  and  N_14
REMARK    4  A    between atoms: C_4  and  C_5
REMARK    5  A    between atoms: C_5  and  C_6
REMARK    6  A    between atoms: C_9  and  O_12
REMARK    7  A    between atoms: O_12  and  C_13
REMARK    8  A    between atoms: N_14  and  C_15
REMARK    9  A    between atoms: C_18  and  S_24
REMARK   10  A    between atoms: C_20  and  N_21
REMARK   11  A    between atoms: S_24  and  N_27
REMARK                            x       y       z     vdW  Elec       q    Type
REMARK                         _______ _______ _______ _____ _____    ______ ____
ROOT
ATOM      1  C   UNL     1       0.105  -0.412   2.498  0.00  0.00    +0.058 A 
ATOM      2  C   UNL     1      -1.220  -0.009   2.602  0.00  0.00    +0.027 A 
ATOM      3  C   UNL     1      -1.971  -0.385   3.698  0.00  0.00    +0.030 A 
ATOM      4  C   UNL     1      -1.404  -1.161   4.693  0.00  0.00    +0.107 A 
ATOM      5  C   UNL     1      -0.085  -1.563   4.593  0.00  0.00    +0.063 A 
ATOM      6  C   UNL     1       0.669  -1.196   3.496  0.00  0.00    +0.149 A 
ENDROOT
BRANCH   6   7
ATOM      7  N   UNL     1       2.080  -1.632   3.387  0.00  0.00    +0.058 N 
ATOM      8  O   UNL     1       2.536  -1.939   2.311  0.00  0.00    -0.126 OA
ATOM      9  O   UNL     1       2.775  -1.681   4.375  0.00  0.00    -0.126 OA
ENDBRANCH   6   7
BRANCH   4  10
ATOM     10  S   UNL     1      -2.366  -1.638   6.090  0.00  0.00    +0.056 S 
ATOM     11  O   UNL     1      -1.448  -1.905   7.142  0.00  0.00    -0.153 OA
ATOM     12  O   UNL     1      -3.408  -0.680   6.213  0.00  0.00    -0.153 OA
BRANCH  10  13
ATOM     13  N   UNL     1      -3.090  -3.080   5.717  0.00  0.00    -0.204 NA
ATOM     14  H   UNL     1      -2.936  -3.490   4.852  0.00  0.00    +0.144 HD
ATOM     15  H   UNL     1      -3.668  -3.514   6.364  0.00  0.00    +0.144 HD
ENDBRANCH  10  13
ENDBRANCH   4  10
BRANCH   1  16
ATOM     16  N   UNL     1       0.867  -0.034   1.390  0.00  0.00    -0.339 N 
ATOM     17  H   UNL     1       1.814  -0.242   1.359  0.00  0.00    +0.146 HD
BRANCH  16  19
ATOM     18  C   UNL     1       0.203   2.176   0.579  0.00  0.00    +0.028 C 
ATOM     19  C   UNL     1       0.236   0.677   0.275  0.00  0.00    +0.068 C 
BRANCH  19  20
ATOM     20  C   UNL     1       1.039   0.433  -1.004  0.00  0.00    +0.026 C 
BRANCH  20  21
ATOM     21  C   UNL     1       0.968  -1.049  -1.377  0.00  0.00    +0.037 C 
BRANCH  21  22
ATOM     22  C   UNL     1       1.758  -1.288  -2.638  0.00  0.00    -0.047 A 
ATOM     23  C   UNL     1       1.141  -1.181  -3.870  0.00  0.00    +0.007 A 
ATOM     24  C   UNL     1       1.864  -1.400  -5.027  0.00  0.00    +0.046 A 
ATOM     25  C   UNL     1       3.210  -1.728  -4.951  0.00  0.00    +0.120 A 
ATOM     26  C   UNL     1       3.826  -1.835  -3.713  0.00  0.00    +0.046 A 
ATOM     27  C   UNL     1       3.101  -1.610  -2.559  0.00  0.00    +0.007 A 
BRANCH  25  28
ATOM     28  O   UNL     1       3.923  -1.945  -6.088  0.00  0.00    -0.495 OA
ATOM     29  C   UNL     1       5.303  -2.279  -5.934  0.00  0.00    +0.277 C 
ENDBRANCH  25  28
ENDBRANCH  21  22
ENDBRANCH  20  21
ENDBRANCH  19  20
ENDBRANCH  16  19
ENDBRANCH   1  16
TORSDOF 9
