REMARK  Name = ZINC34812133
REMARK  2 active torsions:
REMARK  status: ('A' for Active; 'I' for Inactive)
REMARK    1  A    between atoms: C_6  and  S_11
REMARK    2  A    between atoms: S_11  and  N_14
REMARK                            x       y       z     vdW  Elec       q    Type
REMARK                         _______ _______ _______ _____ _____    ______ ____
ROOT
ATOM      1  N   UNL     1       5.677  -3.066   1.513  0.00  0.00    -0.176 NA
ATOM      2  C   UNL     1       6.480  -2.065   2.227  0.00  0.00    +0.113 C 
ATOM      3  C   UNL     1       7.717  -2.752   2.815  0.00  0.00    +0.062 C 
ATOM      4  C   UNL     1       7.273  -3.934   3.681  0.00  0.00    +0.101 C 
ATOM      5  C   UNL     1       6.525  -4.949   2.814  0.00  0.00    +0.062 C 
ATOM      6  C   UNL     1       5.270  -4.285   2.226  0.00  0.00    +0.113 C 
ATOM      7  N   UNL     1       6.376  -3.447   4.737  0.00  0.00    -0.323 N 
ATOM      8  C   UNL     1       6.930  -2.765   5.815  0.00  0.00    +0.041 A 
ATOM      9  C   UNL     1       6.235  -1.783   6.498  0.00  0.00    +0.025 A 
ATOM     10  C   UNL     1       6.835  -1.133   7.559  0.00  0.00    +0.017 A 
ATOM     11  C   UNL     1       8.127  -1.457   7.945  0.00  0.00    +0.019 A 
ATOM     12  C   UNL     1       8.834  -2.436   7.275  0.00  0.00    +0.030 A 
ATOM     13  C   UNL     1       8.240  -3.099   6.204  0.00  0.00    +0.059 A 
ATOM     14  C   UNL     1       8.945  -4.157   5.459  0.00  0.00    +0.247 C 
ATOM     15  O   UNL     1       9.962  -4.651   5.906  0.00  0.00    -0.270 OA
ATOM     16  N   UNL     1       8.449  -4.572   4.274  0.00  0.00    -0.290 N 
ATOM     17 BR   UNL     1       8.927  -0.552   9.399  0.00  0.00    -0.050 Br
ATOM     18  H   UNL     1       5.419  -3.596   4.683  0.00  0.00    +0.148 HD
ATOM     19  H   UNL     1       8.880  -5.305   3.808  0.00  0.00    +0.151 HD
ENDROOT
BRANCH   1  20
ATOM     20  S   UNL     1       5.231  -2.823  -0.063  0.00  0.00    +0.061 S 
ATOM     21  O   UNL     1       4.984  -4.107  -0.618  0.00  0.00    -0.153 OA
ATOM     22  O   UNL     1       6.181  -1.923  -0.619  0.00  0.00    -0.153 OA
BRANCH  20  28
ATOM     23  C   UNL     1      -0.016   1.357   0.009  0.00  0.00    +0.001 A 
ATOM     24  C   UNL     1       1.169   2.091   0.002  0.00  0.00    +0.001 A 
ATOM     25  C   UNL     1       2.378   1.468  -0.013  0.00  0.00    +0.008 A 
ATOM     26  C   UNL     1       2.438   0.063  -0.021  0.00  0.00    -0.016 A 
ATOM     27  C   UNL     1       3.668  -0.615  -0.036  0.00  0.00    +0.037 A 
ATOM     28  C   UNL     1       3.687  -1.976  -0.043  0.00  0.00    +0.106 A 
ATOM     29  C   UNL     1       2.502  -2.710  -0.036  0.00  0.00    +0.029 A 
ATOM     30  C   UNL     1       1.292  -2.087  -0.021  0.00  0.00    +0.010 A 
ATOM     31  C   UNL     1       1.233  -0.683  -0.013  0.00  0.00    -0.018 A 
ATOM     32  C   UNL     1       0.002  -0.004   0.002  0.00  0.00    +0.008 A 
ENDBRANCH  20  28
ENDBRANCH   1  20
TORSDOF 2
