REMARK  Name = ZINC39361858
REMARK  11 active torsions:
REMARK  status: ('A' for Active; 'I' for Inactive)
REMARK    1  A    between atoms: C_1  and  C_2
REMARK    2  A    between atoms: C_5  and  N_9
REMARK    3  A    between atoms: C_6  and  C_8
REMARK    4  A    between atoms: C_10  and  C_12
REMARK    5  A    between atoms: C_12  and  S_13
REMARK    6  A    between atoms: S_13  and  C_14
REMARK    7  A    between atoms: C_17  and  C_28
REMARK    8  A    between atoms: N_19  and  C_20
REMARK    9  A    between atoms: C_22  and  C_27
REMARK   10  A    between atoms: C_25  and  C_26
REMARK   11  A    between atoms: C_28  and  C_29
REMARK                            x       y       z     vdW  Elec       q    Type
REMARK                         _______ _______ _______ _____ _____    ______ ____
ROOT
ATOM      1  C   UNL     1      -0.325  -8.668  -2.977  0.00  0.00    +0.180 C 
ATOM      2  N   UNL     1      -0.367  -9.143  -1.778  0.00  0.00    -0.162 NA
ATOM      3  N   UNL     1      -0.478 -10.538  -1.782  0.00  0.00    -0.246 N 
ATOM      4  C   UNL     1      -0.504 -10.944  -3.197  0.00  0.00    +0.187 C 
ATOM      5  N   UNL     1      -0.406  -9.671  -3.932  0.00  0.00    -0.258 N 
ATOM      6  H   UNL     1      -0.527 -11.121  -1.008  0.00  0.00    +0.170 HD
ENDROOT
BRANCH   5   7
ATOM      7  C   UNL     1      -0.394  -9.507  -5.320  0.00  0.00    +0.041 A 
ATOM      8  C   UNL     1      -1.591  -9.420  -6.021  0.00  0.00    +0.027 A 
ATOM      9  C   UNL     1      -1.575  -9.257  -7.392  0.00  0.00    -0.049 A 
ATOM     10  C   UNL     1      -0.371  -9.180  -8.067  0.00  0.00    +0.004 A 
ATOM     11  C   UNL     1       0.822  -9.265  -7.372  0.00  0.00    +0.005 A 
ATOM     12  C   UNL     1       0.814  -9.423  -6.000  0.00  0.00    -0.029 A 
ATOM     13  C   UNL     1       2.114  -9.510  -5.243  0.00  0.00    +0.045 C 
ATOM     14  C   UNL     1      -2.872  -9.163  -8.153  0.00  0.00    +0.044 C 
ENDBRANCH   5   7
BRANCH   1  15
ATOM     15  S   UNL     1      -0.188  -6.953  -3.356  0.00  0.00    -0.079 S 
BRANCH  15  16
ATOM     16  C   UNL     1      -0.122  -6.149  -1.731  0.00  0.00    +0.173 C 
BRANCH  16  18
ATOM     17  N   UNL     1       0.063  -3.850  -0.836  0.00  0.00    -0.285 N 
ATOM     18  C   UNL     1      -0.003  -4.657  -1.913  0.00  0.00    +0.227 C 
ATOM     19  O   UNL     1       0.034  -4.184  -3.029  0.00  0.00    -0.275 OA
ATOM     20  H   UNL     1       0.103  -4.232   0.055  0.00  0.00    +0.155 HD
BRANCH  17  25
ATOM     21  C   UNL     1       0.103   1.782  -1.513  0.00  0.00    +0.044 C 
ATOM     22  C   UNL     1       0.092   0.286  -1.333  0.00  0.00    -0.050 A 
ATOM     23  C   UNL     1       0.707  -0.526  -2.269  0.00  0.00    +0.005 A 
ATOM     24  C   UNL     1       0.699  -1.897  -2.107  0.00  0.00    +0.024 A 
ATOM     25  C   UNL     1       0.073  -2.461  -1.003  0.00  0.00    +0.036 A 
ATOM     26  C   UNL     1      -0.542  -1.643  -0.065  0.00  0.00    -0.029 A 
ATOM     27  C   UNL     1      -0.526  -0.272  -0.230  0.00  0.00    +0.008 A 
ATOM     28  C   UNL     1      -1.222  -2.251   1.135  0.00  0.00    +0.045 C 
ENDBRANCH  17  25
ENDBRANCH  16  18
ENDBRANCH  15  16
ENDBRANCH   1  15
BRANCH   4  29
ATOM     29  C   UNL     1      -1.819 -11.653  -3.528  0.00  0.00    +0.097 C 
BRANCH  29  30
ATOM     30  C   UNL     1      -1.914 -12.931  -2.736  0.00  0.00    +0.029 A 
ATOM     31  N   UNL     1      -1.327 -14.075  -3.205  0.00  0.00    -0.311 N 
ATOM     32  C   UNL     1      -1.405 -15.222  -2.505  0.00  0.00    +0.327 A 
ATOM     33  O   UNL     1      -0.876 -16.227  -2.940  0.00  0.00    -0.247 OA
ATOM     34  N   UNL     1      -2.060 -15.272  -1.331  0.00  0.00    -0.275 N 
ATOM     35  C   UNL     1      -2.652 -14.167  -0.835  0.00  0.00    +0.254 A 
ATOM     36  O   UNL     1      -3.245 -14.212   0.228  0.00  0.00    -0.268 OA
ATOM     37  C   UNL     1      -2.573 -12.953  -1.558  0.00  0.00    +0.091 A 
ATOM     38  H   UNL     1      -2.107 -16.107  -0.839  0.00  0.00    +0.173 HD
ATOM     39  H   UNL     1      -0.850 -14.059  -4.050  0.00  0.00    +0.170 HD
ENDBRANCH  29  30
ENDBRANCH   4  29
TORSDOF 7
