REMARK  Name = ZINC66740626
REMARK  6 active torsions:
REMARK  status: ('A' for Active; 'I' for Inactive)
REMARK    1  A    between atoms: C_1  and  C_2
REMARK    2  A    between atoms: C_2  and  O_3
REMARK    3  A    between atoms: O_3  and  C_4
REMARK    4  A    between atoms: C_9  and  C_10
REMARK    5  A    between atoms: C_14  and  C_22
REMARK    6  A    between atoms: C_24  and  C_27
REMARK                            x       y       z     vdW  Elec       q    Type
REMARK                         _______ _______ _______ _____ _____    ______ ____
ROOT
ATOM      1  C   UNL     1       1.993  -1.399  -3.487  0.00  0.00    +0.193 C 
ATOM      2  N   UNL     1       3.056  -2.104  -4.222  0.00  0.00    -0.319 N 
ATOM      3  C   UNL     1       4.313  -2.168  -3.606  0.00  0.00    +0.082 A 
ATOM      4  C   UNL     1       5.358  -2.996  -3.692  0.00  0.00    +0.055 A 
ATOM      5  N   UNL     1       6.302  -2.533  -2.821  0.00  0.00    -0.279 N 
ATOM      6  H   UNL     1       7.168  -2.943  -2.672  0.00  0.00    +0.189 HD
ATOM      7  N   UNL     1       5.875  -1.471  -2.222  0.00  0.00    -0.167 NA
ATOM      8  C   UNL     1       4.681  -1.175  -2.640  0.00  0.00    +0.168 A 
ATOM      9  C   UNL     1       3.737  -0.086  -2.322  0.00  0.00    +0.268 C 
ATOM     10  O   UNL     1       4.070   0.868  -1.645  0.00  0.00    -0.268 OA
ATOM     11  N   UNL     1       2.485  -0.200  -2.820  0.00  0.00    -0.288 N 
ATOM     12  C   UNL     1       5.472  -4.208  -4.580  0.00  0.00    +0.067 C 
ATOM     13  H   UNL     1       2.894  -2.505  -5.090  0.00  0.00    +0.148 HD
ATOM     14  H   UNL     1       1.884   0.556  -2.728  0.00  0.00    +0.151 HD
ENDROOT
BRANCH   1  20
ATOM     15  C   UNL     1       0.777  -1.811  -1.336  0.00  0.00    +0.127 A 
ATOM     16  C   UNL     1       0.243  -2.672  -0.388  0.00  0.00    +0.053 A 
ATOM     17  C   UNL     1       0.352  -4.034  -0.558  0.00  0.00    +0.001 A 
ATOM     18  C   UNL     1       0.985  -4.564  -1.675  0.00  0.00    +0.125 A 
ATOM     19  C   UNL     1       1.523  -3.695  -2.620  0.00  0.00    +0.056 A 
ATOM     20  C   UNL     1       1.413  -2.330  -2.454  0.00  0.00    +0.036 A 
ATOM     21  O   UNL     1       0.961  -5.926  -1.656  0.00  0.00    -0.488 OA
ATOM     22  C   UNL     1       0.703  -6.376  -0.315  0.00  0.00    +0.175 C 
ATOM     23  C   UNL     1      -0.108  -5.205   0.289  0.00  0.00    +0.083 C 
ATOM     24  C   UNL     1       2.013  -6.583   0.449  0.00  0.00    +0.052 C 
BRANCH  15  25
ATOM     25  O   UNL     1       0.671  -0.465  -1.174  0.00  0.00    -0.492 OA
BRANCH  25  27
ATOM     26  C   UNL     1      -0.019   1.526   0.010  0.00  0.00    +0.048 C 
ATOM     27  C   UNL     1       0.002  -0.004   0.002  0.00  0.00    +0.225 C 
ENDBRANCH  25  27
ENDBRANCH  15  25
ENDBRANCH   1  20
TORSDOF 3
