REMARK  Name = ZINC58604633
REMARK  7 active torsions:
REMARK  status: ('A' for Active; 'I' for Inactive)
REMARK    1  A    between atoms: C_4  and  S_7
REMARK    2  A    between atoms: S_7  and  C_8
REMARK    3  A    between atoms: C_13  and  N_14
REMARK    4  A    between atoms: C_15  and  C_17
REMARK    5  A    between atoms: C_17  and  N_18
REMARK    6  A    between atoms: C_20  and  N_28
REMARK    7  A    between atoms: C_22  and  C_25
REMARK                            x       y       z     vdW  Elec       q    Type
REMARK                         _______ _______ _______ _____ _____    ______ ____
ROOT
ATOM      1  N   UNL     1       5.686  -3.116   0.203  0.00  0.00    -0.283 N 
ATOM      2  C   UNL     1       6.668  -4.039   0.215  0.00  0.00    +0.237 C 
ATOM      3  O   UNL     1       6.393  -5.216   0.320  0.00  0.00    -0.274 OA
ATOM      4  H   UNL     1       5.909  -2.172   0.184  0.00  0.00    +0.155 HD
ENDROOT
BRANCH   1  10
ATOM      5  C   UNL     1       3.384  -2.780  -0.473  0.00  0.00    +0.034 A 
ATOM      6  C   UNL     1       2.058  -3.188  -0.458  0.00  0.00    +0.017 A 
ATOM      7  C   UNL     1       1.692  -4.322   0.242  0.00  0.00    +0.001 A 
ATOM      8  C   UNL     1       2.643  -5.051   0.931  0.00  0.00    +0.002 A 
ATOM      9  C   UNL     1       3.967  -4.652   0.923  0.00  0.00    +0.024 A 
ATOM     10  C   UNL     1       4.345  -3.519   0.217  0.00  0.00    +0.047 A 
BRANCH   5  11
ATOM     11  S   UNL     1       3.854  -1.335  -1.366  0.00  0.00    -0.088 S 
BRANCH  11  15
ATOM     12  C   UNL     1      -0.074   0.371  -2.839  0.00  0.00    +0.000 A 
ATOM     13  C   UNL     1       0.380   0.681  -1.569  0.00  0.00    +0.001 A 
ATOM     14  C   UNL     1       1.577   0.162  -1.117  0.00  0.00    +0.015 A 
ATOM     15  C   UNL     1       2.326  -0.672  -1.938  0.00  0.00    +0.013 A 
ATOM     16  C   UNL     1       1.867  -0.981  -3.213  0.00  0.00    +0.015 A 
ATOM     17  C   UNL     1       0.669  -0.458  -3.659  0.00  0.00    +0.001 A 
ENDBRANCH  11  15
ENDBRANCH   5  11
ENDBRANCH   1  10
BRANCH   2  18
ATOM     18  C   UNL     1       8.108  -3.610   0.099  0.00  0.00    +0.220 C 
BRANCH  18  19
ATOM     19  N   UNL     1       8.974  -4.790   0.138  0.00  0.00    -0.304 N 
ATOM     20  C   UNL     1       9.432  -5.242   1.329  0.00  0.00    +0.122 A 
ATOM     21  C   UNL     1      10.237  -6.333   1.407  0.00  0.00    +0.143 A 
ATOM     22  C   UNL     1      10.609  -7.012   0.246  0.00  0.00    +0.052 A 
ATOM     23  C   UNL     1      10.141  -6.553  -0.983  0.00  0.00    +0.103 A 
ATOM     24  C   UNL     1       9.298  -5.412  -1.012  0.00  0.00    +0.264 A 
ATOM     25  O   UNL     1       8.872  -4.994  -2.075  0.00  0.00    -0.267 OA
BRANCH  23  26
ATOM     26  C   UNL     1      10.511  -7.242  -2.229  0.00  0.00    +0.247 C 
ATOM     27  O   UNL     1      11.138  -8.284  -2.185  0.00  0.00    -0.270 OA
ATOM     28  N   UNL     1      10.155  -6.720  -3.419  0.00  0.00    -0.325 N 
ATOM     29  H   UNL     1       9.727  -5.850  -3.459  0.00  0.00    +0.145 HD
ATOM     30  H   UNL     1      10.326  -7.213  -4.236  0.00  0.00    +0.145 HD
ENDBRANCH  23  26
BRANCH  21  31
ATOM     31  N   UNL     1      10.722  -6.801   2.724  0.00  0.00    +0.058 N 
ATOM     32  O   UNL     1      10.401  -6.213   3.731  0.00  0.00    -0.126 OA
ATOM     33  O   UNL     1      11.439  -7.772   2.794  0.00  0.00    -0.126 OA
ENDBRANCH  21  31
ENDBRANCH  18  19
ENDBRANCH   2  18
TORSDOF 7
