REMARK  Name = ZINC03031064
REMARK  6 active torsions:
REMARK  status: ('A' for Active; 'I' for Inactive)
REMARK    1  A    between atoms: C_1  and  C_2
REMARK    2  A    between atoms: C_8  and  N_10
REMARK    3  A    between atoms: N_10  and  S_11
REMARK    4  A    between atoms: S_11  and  C_14
REMARK    5  A    between atoms: C_16  and  C_21
REMARK    6  A    between atoms: N_23  and  C_24
REMARK                            x       y       z     vdW  Elec       q    Type
REMARK                         _______ _______ _______ _____ _____    ______ ____
ROOT
ATOM      1  C   UNL     1       1.154   3.205  -0.320  0.00  0.00    +0.141 A 
ATOM      2  C   UNL     1      -0.052   3.873  -0.310  0.00  0.00    +0.044 A 
ATOM      3  C   UNL     1      -1.240   3.162  -0.130  0.00  0.00    +0.039 A 
ATOM      4  C   UNL     1      -1.200   1.775   0.034  0.00  0.00    +0.016 A 
ATOM      5  C   UNL     1       0.011   1.118   0.029  0.00  0.00    +0.041 A 
ATOM      6  C   UNL     1       1.188   1.829  -0.150  0.00  0.00    +0.150 A 
ATOM      7  F   UNL     1       2.373   1.179  -0.161  0.00  0.00    -0.203 F 
ENDROOT
BRANCH   3   8
ATOM      8  C   UNL     1      -2.535   3.872  -0.120  0.00  0.00    +0.248 C 
ATOM      9  O   UNL     1      -2.568   5.078  -0.269  0.00  0.00    -0.270 OA
ATOM     10  N   UNL     1      -3.680   3.183   0.054  0.00  0.00    -0.281 N 
ATOM     11  H   UNL     1      -3.662   2.214   0.096  0.00  0.00    +0.155 HD
BRANCH  10  12
ATOM     12  C   UNL     1      -4.896   3.865   0.174  0.00  0.00    +0.037 A 
ATOM     13  C   UNL     1      -6.064   3.298  -0.319  0.00  0.00    +0.026 A 
ATOM     14  C   UNL     1      -7.263   3.972  -0.199  0.00  0.00    +0.043 A 
ATOM     15  C   UNL     1      -7.303   5.214   0.412  0.00  0.00    +0.159 A 
ATOM     16  C   UNL     1      -6.139   5.783   0.905  0.00  0.00    +0.160 A 
ATOM     17  C   UNL     1      -4.937   5.108   0.792  0.00  0.00    +0.064 A 
ATOM     18  F   UNL     1      -6.180   6.995   1.502  0.00  0.00    -0.202 F 
ATOM     19  F   UNL     1      -8.478   5.872   0.527  0.00  0.00    -0.202 F 
ENDBRANCH  10  12
ENDBRANCH   3   8
BRANCH   1  20
ATOM     20  S   UNL     1       2.654   4.101  -0.546  0.00  0.00    +0.061 S 
ATOM     21  O   UNL     1       3.387   3.417  -1.553  0.00  0.00    -0.153 OA
ATOM     22  O   UNL     1       2.295   5.471  -0.662  0.00  0.00    -0.153 OA
BRANCH  20  23
ATOM     23  N   UNL     1       3.526   3.957   0.854  0.00  0.00    -0.187 NA
ATOM     24  H   UNL     1       3.706   4.742   1.396  0.00  0.00    +0.148 HD
BRANCH  23  31
ATOM     25  C   UNL     1       6.374   3.445   0.976  0.00  0.00    +0.009 C 
ATOM     26  C   UNL     1       5.385   2.813   1.957  0.00  0.00    +0.005 C 
ATOM     27  C   UNL     1       5.907   1.443   2.396  0.00  0.00    +0.005 C 
ATOM     28  C   UNL     1       4.918   0.811   3.378  0.00  0.00    +0.000 C 
ATOM     29  C   UNL     1       3.558   0.645   2.696  0.00  0.00    +0.002 C 
ATOM     30  C   UNL     1       3.037   2.014   2.257  0.00  0.00    +0.020 C 
ATOM     31  C   UNL     1       4.026   2.646   1.275  0.00  0.00    +0.079 C 
ENDBRANCH  23  31
ENDBRANCH  20  23
ENDBRANCH   1  20
TORSDOF 5
