REMARK  Name = ZINC39276377
REMARK  12 active torsions:
REMARK  status: ('A' for Active; 'I' for Inactive)
REMARK    1  A    between atoms: C_1  and  C_2
REMARK    2  A    between atoms: C_2  and  C_3
REMARK    3  A    between atoms: C_3  and  C_4
REMARK    4  A    between atoms: C_4  and  N_5
REMARK    5  A    between atoms: N_5  and  C_6
REMARK    6  A    between atoms: N_5  and  C_10
REMARK    7  A    between atoms: C_6  and  C_7
REMARK    8  A    between atoms: C_7  and  C_8
REMARK    9  A    between atoms: C_8  and  C_9
REMARK   10  A    between atoms: C_10  and  C_11
REMARK   11  A    between atoms: C_12  and  O_31
REMARK   12  A    between atoms: C_19  and  C_20
REMARK                            x       y       z     vdW  Elec       q    Type
REMARK                         _______ _______ _______ _____ _____    ______ ____
ROOT
ATOM      1  C   UNL     1      -4.343  -4.381  -0.578  0.00  0.00    +0.020 A 
ATOM      2  C   UNL     1      -5.260  -4.435   0.462  0.00  0.00    +0.122 A 
ATOM      3  C   UNL     1      -6.582  -4.795   0.223  0.00  0.00    +0.046 A 
ATOM      4  C   UNL     1      -6.992  -5.099  -1.046  0.00  0.00    +0.019 A 
ATOM      5  C   UNL     1      -6.081  -5.049  -2.101  0.00  0.00    +0.068 A 
ATOM      6  C   UNL     1      -4.744  -4.682  -1.873  0.00  0.00    +0.144 A 
ATOM      7  O   UNL     1      -4.060  -4.698  -3.038  0.00  0.00    -0.451 OA
ATOM      8  C   UNL     1      -4.843  -5.052  -4.078  0.00  0.00    +0.176 C 
ATOM      9  C   UNL     1      -4.450  -5.162  -5.394  0.00  0.00    +0.056 C 
ATOM     10  C   UNL     1      -6.198  -5.310  -3.547  0.00  0.00    +0.231 C 
ATOM     11  O   UNL     1      -7.189  -5.651  -4.166  0.00  0.00    -0.283 OA
ENDROOT
BRANCH   9  12
ATOM     12  C   UNL     1      -3.123  -4.895  -5.752  0.00  0.00    -0.016 C 
ATOM     13  C   UNL     1      -2.567  -4.954  -7.026  0.00  0.00    +0.003 A 
ATOM     14  C   UNL     1      -3.104  -5.277  -8.292  0.00  0.00    +0.010 A 
ATOM     15  C   UNL     1      -2.317  -5.253  -9.393  0.00  0.00    +0.001 A 
ATOM     16  C   UNL     1      -0.960  -4.915  -9.337  0.00  0.00    +0.002 A 
ATOM     17  C   UNL     1      -0.352  -4.590  -8.171  0.00  0.00    +0.026 A 
ATOM     18  C   UNL     1      -1.138  -4.592  -6.932  0.00  0.00    +0.043 A 
ATOM     19  N   UNL     1      -0.813  -4.325  -5.691  0.00  0.00    -0.380 N 
ATOM     20  C   UNL     1      -1.994  -4.476  -4.836  0.00  0.00    +0.149 C 
ATOM     21  H   UNL     1       0.071  -4.064  -5.386  0.00  0.00    +0.160 HD
ENDBRANCH   9  12
BRANCH   2  22
ATOM     22  O   UNL     1      -4.862  -4.135   1.724  0.00  0.00    -0.506 OA
ATOM     23  H   UNL     1      -4.953  -3.200   1.953  0.00  0.00    +0.292 HD
ENDBRANCH   2  22
BRANCH   1  24
ATOM     24  C   UNL     1      -2.914  -3.990  -0.304  0.00  0.00    -0.036 C 
BRANCH  24  25
ATOM     25  N   UNL     1      -2.731  -2.564  -0.605  0.00  0.00    +0.383 N 
ATOM     26  H   UNL     1      -3.021  -2.380  -1.553  0.00  0.00    -0.081 HD
BRANCH  25  27
ATOM     27  C   UNL     1      -3.542  -1.761   0.320  0.00  0.00    -0.078 C 
BRANCH  27  28
ATOM     28  C   UNL     1      -3.448  -0.284  -0.071  0.00  0.00    -0.019 C 
BRANCH  28  30
ATOM     29  C   UNL     1      -4.200   2.029   0.500  0.00  0.00    +0.004 C 
ATOM     30  C   UNL     1      -4.293   0.552   0.892  0.00  0.00    -0.005 C 
ENDBRANCH  28  30
ENDBRANCH  27  28
ENDBRANCH  25  27
BRANCH  25  31
ATOM     31  C   UNL     1      -1.314  -2.209  -0.448  0.00  0.00    -0.078 C 
BRANCH  31  32
ATOM     32  C   UNL     1      -0.484  -2.947  -1.501  0.00  0.00    -0.019 C 
BRANCH  32  33
ATOM     33  C   UNL     1       0.970  -2.475  -1.427  0.00  0.00    -0.005 C 
ATOM     34  C   UNL     1       1.820  -3.287  -2.406  0.00  0.00    +0.004 C 
ENDBRANCH  32  33
ENDBRANCH  31  32
ENDBRANCH  25  31
ENDBRANCH  24  25
ENDBRANCH   1  24
TORSDOF 10
