REMARK  Name = ZINC40410323
REMARK  5 active torsions:
REMARK  status: ('A' for Active; 'I' for Inactive)
REMARK    1  A    between atoms: N_9  and  C_20
REMARK    2  A    between atoms: C_10  and  C_12
REMARK    3  A    between atoms: C_20  and  C_21
REMARK    4  A    between atoms: C_23  and  O_28
REMARK    5  A    between atoms: C_26  and  O_27
REMARK                            x       y       z     vdW  Elec       q    Type
REMARK                         _______ _______ _______ _____ _____    ______ ____
ROOT
ATOM      1  C   UNL     1       0.073   1.372  -0.070  0.00  0.00    +0.019 A 
ATOM      2  C   UNL     1       1.419   1.784  -0.155  0.00  0.00    +0.021 A 
ATOM      3  C   UNL     1       2.184   0.676  -0.106  0.00  0.00    +0.009 A 
ATOM      4  N   UNL     1       1.359  -0.406   0.017  0.00  0.00    -0.352 N 
ATOM      5  C   UNL     1       0.068   0.027   0.030  0.00  0.00    +0.086 A 
ATOM      6  C   UNL     1       1.813  -1.797   0.129  0.00  0.00    +0.119 C 
ATOM      7  C   UNL     1       2.882  -2.059  -0.936  0.00  0.00    +0.003 C 
ATOM      8  C   UNL     1       4.256  -1.698  -0.386  0.00  0.00    -0.075 C 
ATOM      9  N   UNL     1       4.174  -0.561   0.534  0.00  0.00    +0.391 N 
ATOM     10  C   UNL     1       3.691   0.629  -0.179  0.00  0.00    +0.011 C 
ATOM     11  H   UNL     1       3.537  -0.783   1.284  0.00  0.00    -0.080 HD
ENDROOT
BRANCH  10  12
ATOM     12  C   UNL     1       4.264   1.867   0.461  0.00  0.00    -0.052 A 
ATOM     13  C   UNL     1       4.029   2.124   1.799  0.00  0.00    +0.005 A 
ATOM     14  C   UNL     1       4.554   3.258   2.389  0.00  0.00    +0.041 A 
ATOM     15  C   UNL     1       5.316   4.138   1.640  0.00  0.00    +0.158 A 
ATOM     16  C   UNL     1       5.552   3.880   0.298  0.00  0.00    +0.159 A 
ATOM     17  C   UNL     1       5.029   2.741  -0.288  0.00  0.00    +0.043 A 
ATOM     18  F   UNL     1       6.295   4.738  -0.435  0.00  0.00    -0.202 F 
ATOM     19  F   UNL     1       5.829   5.247   2.216  0.00  0.00    -0.202 F 
ENDBRANCH  10  12
BRANCH   9  20
ATOM     20  C   UNL     1       5.505  -0.288   1.092  0.00  0.00    -0.038 C 
BRANCH  20  21
ATOM     21  C   UNL     1       5.961  -1.472   1.905  0.00  0.00    -0.019 A 
ATOM     22  C   UNL     1       5.844  -1.450   3.282  0.00  0.00    +0.050 A 
ATOM     23  C   UNL     1       6.263  -2.539   4.031  0.00  0.00    +0.117 A 
ATOM     24  C   UNL     1       6.800  -3.651   3.398  0.00  0.00    +0.049 A 
ATOM     25  C   UNL     1       6.917  -3.673   2.022  0.00  0.00    +0.049 A 
ATOM     26  C   UNL     1       6.493  -2.585   1.272  0.00  0.00    +0.118 A 
BRANCH  26  27
ATOM     27  O   UNL     1       6.603  -2.609  -0.083  0.00  0.00    -0.507 OA
ATOM     28  H   UNL     1       7.442  -2.264  -0.415  0.00  0.00    +0.292 HD
ENDBRANCH  26  27
BRANCH  23  29
ATOM     29  O   UNL     1       6.148  -2.518   5.386  0.00  0.00    -0.507 OA
ATOM     30  H   UNL     1       5.308  -2.865   5.715  0.00  0.00    +0.292 HD
ENDBRANCH  23  29
ENDBRANCH  20  21
ENDBRANCH   9  20
TORSDOF 5
