REMARK  Name = ZINC59466643
REMARK  7 active torsions:
REMARK  status: ('A' for Active; 'I' for Inactive)
REMARK    1  A    between atoms: C_1  and  C_2
REMARK    2  A    between atoms: C_2  and  C_3
REMARK    3  A    between atoms: C_3  and  C_4
REMARK    4  A    between atoms: C_4  and  N_5
REMARK    5  A    between atoms: N_8  and  S_9
REMARK    6  A    between atoms: S_9  and  C_12
REMARK    7  A    between atoms: C_15  and  N_18
REMARK                            x       y       z     vdW  Elec       q    Type
REMARK                         _______ _______ _______ _____ _____    ______ ____
ROOT
ATOM      1  C   UNL     1      -6.268  -6.235   0.028  0.00  0.00    +0.113 A 
ATOM      2  C   UNL     1      -6.941  -6.325   1.233  0.00  0.00    +0.031 A 
ATOM      3  C   UNL     1      -8.310  -6.505   1.248  0.00  0.00    +0.026 A 
ATOM      4  C   UNL     1      -9.011  -6.594   0.053  0.00  0.00    +0.045 A 
ATOM      5  C   UNL     1      -8.332  -6.503  -1.155  0.00  0.00    +0.026 A 
ATOM      6  C   UNL     1      -6.963  -6.318  -1.164  0.00  0.00    +0.031 A 
ENDROOT
BRANCH   4   7
ATOM      7  N   UNL     1     -10.400  -6.777   0.065  0.00  0.00    -0.202 N 
ATOM      8  C   UNL     1     -11.146  -6.871   1.181  0.00  0.00    +0.258 C 
ATOM      9  O   UNL     1     -10.728  -6.813   2.320  0.00  0.00    -0.269 OA
ATOM     10  C   UNL     1     -12.559  -7.058   0.789  0.00  0.00    +0.050 A 
ATOM     11  C   UNL     1     -13.745  -7.212   1.489  0.00  0.00    +0.014 A 
ATOM     12  C   UNL     1     -14.935  -7.371   0.796  0.00  0.00    +0.001 A 
ATOM     13  C   UNL     1     -14.947  -7.376  -0.586  0.00  0.00    +0.001 A 
ATOM     14  C   UNL     1     -13.768  -7.223  -1.299  0.00  0.00    +0.014 A 
ATOM     15  C   UNL     1     -12.570  -7.064  -0.621  0.00  0.00    +0.050 A 
ATOM     16  C   UNL     1     -11.165  -6.875  -1.038  0.00  0.00    +0.258 C 
ATOM     17  O   UNL     1     -10.767  -6.820  -2.183  0.00  0.00    -0.269 OA
ENDBRANCH   4   7
BRANCH   1  18
ATOM     18  S   UNL     1      -4.521  -6.006   0.013  0.00  0.00    +0.103 S 
ATOM     19  O   UNL     1      -4.058  -6.493  -1.240  0.00  0.00    -0.146 OA
ATOM     20  O   UNL     1      -4.035  -6.507   1.251  0.00  0.00    -0.146 OA
BRANCH  18  24
ATOM     21  N   UNL     1      -2.787  -2.571   0.015  0.00  0.00    -0.295 N 
ATOM     22  C   UNL     1      -3.020  -3.924   0.010  0.00  0.00    +0.351 C 
ATOM     23  O   UNL     1      -1.981  -4.788  -0.005  0.00  0.00    -0.246 OA
ATOM     24  N   UNL     1      -4.240  -4.374   0.019  0.00  0.00    -0.072 NA
ATOM     25  H   UNL     1      -3.533  -1.950   0.025  0.00  0.00    +0.151 HD
BRANCH  21  26
ATOM     26  C   UNL     1      -1.413  -2.063   0.004  0.00  0.00    +0.106 C 
BRANCH  26  27
ATOM     27  C   UNL     1      -1.433  -0.534   0.013  0.00  0.00    +0.018 C 
BRANCH  27  29
ATOM     28  C   UNL     1      -0.019   1.526   0.010  0.00  0.00    +0.004 C 
ATOM     29  C   UNL     1       0.002  -0.004   0.002  0.00  0.00    -0.002 C 
ENDBRANCH  27  29
ENDBRANCH  26  27
ENDBRANCH  21  26
ENDBRANCH  18  24
ENDBRANCH   1  18
TORSDOF 6
