REMARK  Name = ZINC22473068
REMARK  9 active torsions:
REMARK  status: ('A' for Active; 'I' for Inactive)
REMARK    1  A    between atoms: C_4  and  C_7
REMARK    2  A    between atoms: C_7  and  N_8
REMARK    3  A    between atoms: N_8  and  C_9
REMARK    4  A    between atoms: C_9  and  C_10
REMARK    5  A    between atoms: C_10  and  C_11
REMARK    6  A    between atoms: C_11  and  N_12
REMARK    7  A    between atoms: C_15  and  O_16
REMARK    8  A    between atoms: C_24  and  C_26
REMARK    9  A    between atoms: C_29  and  C_32
REMARK                            x       y       z     vdW  Elec       q    Type
REMARK                         _______ _______ _______ _____ _____    ______ ____
ROOT
ATOM      1  N   UNL     1      -1.369   6.562   0.113  0.00  0.00    -0.293 N 
ATOM      2  C   UNL     1      -0.186   6.071   0.530  0.00  0.00    +0.247 C 
ATOM      3  O   UNL     1      -0.042   4.872   0.674  0.00  0.00    -0.270 OA
ENDROOT
BRANCH   2   4
ATOM      4  C   UNL     1       0.937   6.988   0.813  0.00  0.00    +0.037 A 
ATOM      5  C   UNL     1       1.899   6.643   1.766  0.00  0.00    +0.013 A 
ATOM      6  C   UNL     1       2.944   7.499   2.029  0.00  0.00    +0.009 A 
ATOM      7  C   UNL     1       3.043   8.711   1.345  0.00  0.00    -0.018 A 
ATOM      8  C   UNL     1       2.080   9.059   0.398  0.00  0.00    +0.009 A 
ATOM      9  C   UNL     1       1.037   8.202   0.129  0.00  0.00    +0.013 A 
BRANCH   7  10
ATOM     10  C   UNL     1       4.170   9.632   1.629  0.00  0.00    -0.018 A 
ATOM     11  C   UNL     1       5.128   9.292   2.583  0.00  0.00    +0.008 A 
ATOM     12  C   UNL     1       6.177  10.151   2.840  0.00  0.00    +0.001 A 
ATOM     13  C   UNL     1       6.274  11.352   2.160  0.00  0.00    +0.000 A 
ATOM     14  C   UNL     1       5.323  11.697   1.216  0.00  0.00    +0.001 A 
ATOM     15  C   UNL     1       4.272  10.844   0.947  0.00  0.00    +0.008 A 
ENDBRANCH   7  10
ENDBRANCH   2   4
BRANCH   1  16
ATOM     16  C   UNL     1      -2.523   5.671  -0.032  0.00  0.00    +0.143 C 
BRANCH  16  20
ATOM     17  C   UNL     1      -4.455   5.213   3.750  0.00  0.00    +0.000 A 
ATOM     18  C   UNL     1      -4.780   6.279   2.932  0.00  0.00    +0.000 A 
ATOM     19  C   UNL     1      -4.154   6.428   1.708  0.00  0.00    +0.005 A 
ATOM     20  C   UNL     1      -3.204   5.510   1.302  0.00  0.00    -0.030 A 
ATOM     21  C   UNL     1      -2.883   4.440   2.117  0.00  0.00    +0.005 A 
ATOM     22  C   UNL     1      -3.505   4.295   3.344  0.00  0.00    +0.000 A 
ENDBRANCH  16  20
ENDBRANCH   1  16
BRANCH   1  23
ATOM     23  C   UNL     1      -1.502   7.989  -0.195  0.00  0.00    +0.110 C 
BRANCH  23  24
ATOM     24  C   UNL     1      -1.373   8.198  -1.705  0.00  0.00    +0.040 C 
BRANCH  24  25
ATOM     25  C   UNL     1      -1.512   9.688  -2.026  0.00  0.00    +0.114 C 
BRANCH  25  26
ATOM     26  N   UNL     1      -1.389   9.889  -3.472  0.00  0.00    -0.384 N 
ATOM     27  C   UNL     1      -1.482  11.157  -4.001  0.00  0.00    +0.053 A 
ATOM     28  C   UNL     1      -1.689  12.246  -3.195  0.00  0.00    +0.113 A 
ATOM     29  C   UNL     1      -1.778  13.523  -3.763  0.00  0.00    +0.286 A 
ATOM     30  O   UNL     1      -1.667  13.720  -5.086  0.00  0.00    -0.425 OA
ATOM     31  C   UNL     1      -1.463  12.696  -5.942  0.00  0.00    +0.141 A 
ATOM     32  C   UNL     1      -1.355  11.386  -5.451  0.00  0.00    +0.041 A 
ATOM     33  C   UNL     1      -1.136  10.325  -6.331  0.00  0.00    +0.013 A 
ATOM     34  C   UNL     1      -1.022  10.573  -7.681  0.00  0.00    +0.001 A 
ATOM     35  C   UNL     1      -1.122  11.868  -8.166  0.00  0.00    +0.004 A 
ATOM     36  C   UNL     1      -1.350  12.924  -7.307  0.00  0.00    +0.047 A 
ATOM     37  H   UNL     1      -1.222   9.027  -4.135  0.00  0.00    +0.160 HD
BRANCH  29  38
ATOM     38  O   UNL     1      -1.963  14.483  -3.034  0.00  0.00    -0.480 OA
ATOM     39  H   UNL     1      -2.036  15.493  -3.464  0.00  0.00    +0.295 HD
ENDBRANCH  29  38
ENDBRANCH  25  26
ENDBRANCH  24  25
ENDBRANCH  23  24
ENDBRANCH   1  23
TORSDOF 9
