REMARK  Name = ZINC18279714
REMARK  6 active torsions:
REMARK  status: ('A' for Active; 'I' for Inactive)
REMARK    1  A    between atoms: C_3  and  O_16
REMARK    2  A    between atoms: C_6  and  N_7
REMARK    3  A    between atoms: C_8  and  C_10
REMARK    4  A    between atoms: O_16  and  C_17
REMARK    5  A    between atoms: C_20  and  N_23
REMARK    6  A    between atoms: C_24  and  C_26
REMARK                            x       y       z     vdW  Elec       q    Type
REMARK                         _______ _______ _______ _____ _____    ______ ____
ROOT
ATOM      1  O   UNL     1       3.244   1.974   0.021  0.00  0.00    -0.456 OA
ENDROOT
BRANCH   1   4
ATOM      2  C   UNL     1       0.493  -0.163   1.071  0.00  0.00    +0.027 A 
ATOM      3  C   UNL     1       1.775   0.276   0.808  0.00  0.00    +0.048 A 
ATOM      4  C   UNL     1       1.981   1.542   0.279  0.00  0.00    +0.129 A 
ATOM      5  C   UNL     1       0.898   2.368   0.014  0.00  0.00    +0.048 A 
ATOM      6  C   UNL     1      -0.385   1.930   0.276  0.00  0.00    +0.027 A 
ATOM      7  C   UNL     1      -0.592   0.663   0.805  0.00  0.00    +0.034 A 
BRANCH   7   8
ATOM      8  N   UNL     1      -1.893   0.218   1.071  0.00  0.00    -0.283 N 
ATOM      9  C   UNL     1      -2.828   1.088   1.503  0.00  0.00    +0.246 C 
ATOM     10  O   UNL     1      -2.568   2.270   1.575  0.00  0.00    -0.273 OA
ATOM     11  H   UNL     1      -2.122  -0.716   0.943  0.00  0.00    +0.155 HD
BRANCH   9  12
ATOM     12  C   UNL     1      -4.194   0.591   1.897  0.00  0.00    +0.204 C 
ATOM     13  C   UNL     1      -4.099  -0.300   3.161  0.00  0.00    +0.043 C 
ATOM     14  C   UNL     1      -5.534  -0.150   3.737  0.00  0.00    +0.031 C 
ATOM     15  C   UNL     1      -5.886   1.306   3.363  0.00  0.00    +0.161 C 
ATOM     16  O   UNL     1      -5.036   1.692   2.275  0.00  0.00    -0.367 OA
ENDBRANCH   9  12
ENDBRANCH   7   8
ENDBRANCH   1   4
BRANCH   1  17
ATOM     17  C   UNL     1       4.274   1.127   0.284  0.00  0.00    +0.129 A 
ATOM     18  C   UNL     1       4.563   0.093  -0.594  0.00  0.00    +0.048 A 
ATOM     19  C   UNL     1       5.609  -0.768  -0.328  0.00  0.00    +0.027 A 
ATOM     20  C   UNL     1       6.372  -0.599   0.820  0.00  0.00    +0.034 A 
ATOM     21  C   UNL     1       6.083   0.437   1.698  0.00  0.00    +0.027 A 
ATOM     22  C   UNL     1       5.040   1.300   1.428  0.00  0.00    +0.048 A 
BRANCH  20  23
ATOM     23  N   UNL     1       7.433  -1.472   1.091  0.00  0.00    -0.283 N 
ATOM     24  C   UNL     1       8.147  -2.001   0.077  0.00  0.00    +0.246 C 
ATOM     25  O   UNL     1       7.930  -1.652  -1.064  0.00  0.00    -0.273 OA
ATOM     26  H   UNL     1       7.654  -1.697   2.009  0.00  0.00    +0.155 HD
BRANCH  24  27
ATOM     27  C   UNL     1       9.215  -3.025   0.362  0.00  0.00    +0.204 C 
ATOM     28  C   UNL     1      10.354  -2.380   1.181  0.00  0.00    +0.043 C 
ATOM     29  C   UNL     1      11.618  -3.029   0.555  0.00  0.00    +0.031 C 
ATOM     30  C   UNL     1      11.177  -3.167  -0.923  0.00  0.00    +0.161 C 
ATOM     31  O   UNL     1       9.778  -3.495  -0.869  0.00  0.00    -0.367 OA
ENDBRANCH  24  27
ENDBRANCH  20  23
ENDBRANCH   1  17
TORSDOF 6
