REMARK  Name = ZINC39663886
REMARK  12 active torsions:
REMARK  status: ('A' for Active; 'I' for Inactive)
REMARK    1  A    between atoms: C_1  and  N_2
REMARK    2  A    between atoms: N_2  and  C_3
REMARK    3  A    between atoms: N_2  and  C_4
REMARK    4  A    between atoms: C_4  and  C_6
REMARK    5  A    between atoms: C_4  and  C_31
REMARK    6  A    between atoms: C_6  and  N_7
REMARK    7  A    between atoms: C_8  and  C_10
REMARK    8  A    between atoms: C_21  and  C_23
REMARK    9  A    between atoms: C_27  and  O_28
REMARK   10  A    between atoms: O_28  and  C_29
REMARK   11  A    between atoms: C_34  and  O_37
REMARK   12  A    between atoms: O_37  and  C_38
REMARK                            x       y       z     vdW  Elec       q    Type
REMARK                         _______ _______ _______ _____ _____    ______ ____
ROOT
ATOM      1  C   UNL     1      -0.108  -2.616   2.937  0.00  0.00    +0.100 C 
ATOM      2  C   UNL     1      -0.676  -1.704   4.047  0.00  0.00    +0.121 C 
ATOM      3  N   UNL     1      -1.700  -2.534   4.725  0.00  0.00    -0.296 N 
ATOM      4  C   UNL     1      -1.102  -3.889   4.777  0.00  0.00    +0.115 C 
ATOM      5  C   UNL     1      -0.386  -4.049   3.421  0.00  0.00    -0.004 C 
ATOM      6  C   UNL     1       0.924  -4.809   3.602  0.00  0.00    -0.010 C 
ATOM      7  C   UNL     1       0.619  -6.248   4.027  0.00  0.00    -0.082 C 
ATOM      8  N   UNL     1      -0.209  -6.898   3.005  0.00  0.00    +0.379 N 
ATOM      9  C   UNL     1      -1.505  -6.216   2.903  0.00  0.00    -0.082 C 
ATOM     10  C   UNL     1      -1.290  -4.775   2.430  0.00  0.00    -0.010 C 
ATOM     11  C   UNL     1      -2.904  -2.143   5.189  0.00  0.00    +0.251 C 
ATOM     12  O   UNL     1      -3.293  -1.008   4.993  0.00  0.00    -0.270 OA
ATOM     13  H   UNL     1       0.263  -6.855   2.114  0.00  0.00    -0.086 HD
ATOM     14  H   UNL     1      -0.358  -7.864   3.257  0.00  0.00    -0.086 HD
ENDROOT
BRANCH  11  15
ATOM     15  C   UNL     1      -3.748  -3.091   5.933  0.00  0.00    +0.087 A 
ATOM     16  C   UNL     1      -3.201  -4.048   6.760  0.00  0.00    +0.063 A 
ATOM     17  S   UNL     1      -4.528  -4.871   7.374  0.00  0.00    -0.081 S 
ATOM     18  C   UNL     1      -5.845  -3.988   6.567  0.00  0.00    +0.120 A 
ATOM     19  C   UNL     1      -5.189  -3.059   5.836  0.00  0.00    +0.158 A 
ATOM     20 CL   UNL     1      -7.556  -4.252   6.692  0.00  0.00    -0.072 Cl
BRANCH  19  21
ATOM     21  O   UNL     1      -5.843  -2.155   5.055  0.00  0.00    -0.492 OA
ATOM     22  C   UNL     1      -6.107  -2.536   3.703  0.00  0.00    +0.277 C 
ENDBRANCH  19  21
ENDBRANCH  11  15
BRANCH   1  24
ATOM     23  N   UNL     1      -0.230  -2.701   0.468  0.00  0.00    -0.316 N 
ATOM     24  C   UNL     1      -0.815  -2.357   1.632  0.00  0.00    +0.218 C 
ATOM     25  O   UNL     1      -1.911  -1.838   1.629  0.00  0.00    -0.275 OA
ATOM     26  H   UNL     1       0.647  -3.116   0.470  0.00  0.00    +0.149 HD
BRANCH  23  27
ATOM     27  C   UNL     1      -0.918  -2.449  -0.801  0.00  0.00    +0.093 C 
BRANCH  27  28
ATOM     28  C   UNL     1       0.005  -2.819  -1.964  0.00  0.00    -0.021 C 
BRANCH  28  29
ATOM     29  C   UNL     1       0.247  -4.306  -1.960  0.00  0.00    -0.059 A 
ATOM     30  C   UNL     1       1.172  -4.853  -1.089  0.00  0.00    +0.005 A 
ATOM     31  C   UNL     1       1.396  -6.216  -1.084  0.00  0.00    +0.046 A 
ATOM     32  C   UNL     1       0.691  -7.037  -1.952  0.00  0.00    +0.120 A 
ATOM     33  C   UNL     1      -0.237  -6.487  -2.824  0.00  0.00    +0.046 A 
ATOM     34  C   UNL     1      -0.461  -5.123  -2.822  0.00  0.00    +0.005 A 
BRANCH  32  35
ATOM     35  O   UNL     1       0.910  -8.378  -1.949  0.00  0.00    -0.495 OA
ATOM     36  C   UNL     1       0.149  -9.162  -2.870  0.00  0.00    +0.277 C 
ENDBRANCH  32  35
ENDBRANCH  28  29
BRANCH  28  38
ATOM     37  C   UNL     1       2.133  -2.390  -2.984  0.00  0.00    -0.096 C 
ATOM     38  N   UNL     1       1.285  -2.114  -1.816  0.00  0.00    +0.382 N 
ATOM     39  C   UNL     1       1.040  -0.669  -1.719  0.00  0.00    -0.096 C 
ATOM     40  H   UNL     1       1.750  -2.434  -0.980  0.00  0.00    -0.082 HD
ENDBRANCH  28  38
ENDBRANCH  27  28
ENDBRANCH  23  27
ENDBRANCH   1  24
TORSDOF 8
