REMARK  Name = ZINC05100993
REMARK  10 active torsions:
REMARK  status: ('A' for Active; 'I' for Inactive)
REMARK    1  A    between atoms: C_1  and  C_2
REMARK    2  A    between atoms: C_2  and  C_4
REMARK    3  A    between atoms: C_2  and  O_28
REMARK    4  A    between atoms: C_4  and  N_5
REMARK    5  A    between atoms: C_12  and  C_16
REMARK    6  A    between atoms: C_16  and  C_17
REMARK    7  A    between atoms: C_17  and  C_18
REMARK    8  A    between atoms: C_17  and  C_19
REMARK    9  A    between atoms: C_24  and  S_26
REMARK   10  A    between atoms: S_26  and  C_27
REMARK                            x       y       z     vdW  Elec       q    Type
REMARK                         _______ _______ _______ _____ _____    ______ ____
ROOT
ATOM      1  N   UNL     1       0.866  -1.969   1.174  0.00  0.00    -0.326 N 
ATOM      2  C   UNL     1       1.505  -2.658   2.193  0.00  0.00    +0.138 A 
ATOM      3  C   UNL     1       1.637  -4.040   2.143  0.00  0.00    +0.080 A 
ATOM      4  C   UNL     1       2.281  -4.741   3.167  0.00  0.00    +0.094 A 
ATOM      5  C   UNL     1       2.359  -6.204   2.998  0.00  0.00    +0.037 A 
ATOM      6  C   UNL     1       2.948  -7.145   3.872  0.00  0.00    -0.031 A 
ATOM      7  C   UNL     1       2.924  -8.481   3.541  0.00  0.00    -0.022 A 
ATOM      8  C   UNL     1       2.323  -8.888   2.357  0.00  0.00    +0.046 A 
ATOM      9  N   UNL     1       1.774  -8.006   1.546  0.00  0.00    -0.244 NA
ATOM     10  C   UNL     1       1.777  -6.720   1.826  0.00  0.00    +0.111 A 
ATOM     11  S   UNL     1       1.146  -5.288   0.985  0.00  0.00    -0.064 S 
ATOM     12  C   UNL     1       3.612  -9.285   4.623  0.00  0.00    +0.037 C 
ATOM     13  C   UNL     1       4.434  -8.257   5.431  0.00  0.00    +0.009 C 
ATOM     14  C   UNL     1       3.649  -6.948   5.194  0.00  0.00    +0.036 C 
ATOM     15  N   UNL     1       2.756  -3.996   4.192  0.00  0.00    -0.221 NA
ATOM     16  C   UNL     1       2.615  -2.687   4.210  0.00  0.00    +0.190 A 
ATOM     17  N   UNL     1       2.011  -2.011   3.241  0.00  0.00    -0.206 NA
ATOM     18  H   UNL     1       0.502  -2.452   0.416  0.00  0.00    +0.148 HD
ENDROOT
BRANCH  16  19
ATOM     19  S   UNL     1       3.263  -1.792   5.582  0.00  0.00    -0.089 S 
ATOM     20  C   UNL     1       2.859  -0.063   5.208  0.00  0.00    +0.093 C 
ENDBRANCH  16  19
BRANCH   1  21
ATOM     21  C   UNL     1       0.742  -0.511   1.242  0.00  0.00    +0.134 C 
BRANCH  21  23
ATOM     22  C   UNL     1      -0.019   1.526   0.010  0.00  0.00    +0.039 C 
ATOM     23  C   UNL     1       0.002  -0.004   0.002  0.00  0.00    +0.128 C 
BRANCH  23  24
ATOM     24  O   UNL     1      -1.339  -0.499   0.012  0.00  0.00    -0.391 OA
ATOM     25  H   UNL     1      -1.853  -0.225   0.784  0.00  0.00    +0.210 HD
ENDBRANCH  23  24
ENDBRANCH  21  23
ENDBRANCH   1  21
BRANCH   8  26
ATOM     26  C   UNL     1       2.299 -10.351   1.996  0.00  0.00    +0.058 C 
BRANCH  26  27
ATOM     27  C   UNL     1       1.033 -10.996   2.564  0.00  0.00    -0.011 C 
ATOM     28  C   UNL     1       0.946 -12.449   2.094  0.00  0.00    +0.007 C 
ATOM     29  C   UNL     1       1.082 -10.957   4.093  0.00  0.00    +0.007 C 
ENDBRANCH  26  27
ENDBRANCH   8  26
TORSDOF 6
