REMARK  Name = ZINC23817755
REMARK  6 active torsions:
REMARK  status: ('A' for Active; 'I' for Inactive)
REMARK    1  A    between atoms: C_1  and  O_2
REMARK    2  A    between atoms: O_2  and  C_3
REMARK    3  A    between atoms: C_3  and  C_4
REMARK    4  A    between atoms: C_12  and  C_13
REMARK    5  A    between atoms: N_18  and  C_21
REMARK    6  A    between atoms: C_21  and  C_22
REMARK                            x       y       z     vdW  Elec       q    Type
REMARK                         _______ _______ _______ _____ _____    ______ ____
ROOT
ATOM      1  C   UNL     1      -1.320   4.779   0.039  0.00  0.00    +0.282 C 
ATOM      2  O   UNL     1      -0.778   5.860   0.173  0.00  0.00    -0.267 OA
ATOM      3  N   UNL     1      -2.663   4.705  -0.051  0.00  0.00    -0.293 N 
ATOM      4  C   UNL     1      -3.348   3.404  -0.060  0.00  0.00    +0.123 C 
ATOM      5  C   UNL     1      -4.457   3.435   1.005  0.00  0.00    +0.104 C 
ATOM      6  N   UNL     1      -5.325   4.596   0.766  0.00  0.00    -0.294 NA
ATOM      7  C   UNL     1      -4.584   5.856   0.914  0.00  0.00    +0.104 C 
ATOM      8  C   UNL     1      -3.481   5.923  -0.148  0.00  0.00    +0.123 C 
ENDROOT
BRANCH   1  17
ATOM      9  C   UNL     1       0.825   3.486   0.211  0.00  0.00    +0.036 A 
ATOM     10  C   UNL     1       1.197   2.083   0.035  0.00  0.00    +0.026 A 
ATOM     11  C   UNL     1       2.397   1.374   0.132  0.00  0.00    +0.012 A 
ATOM     12  C   UNL     1       2.409   0.028  -0.101  0.00  0.00    +0.001 A 
ATOM     13  C   UNL     1       1.237  -0.639  -0.434  0.00  0.00    +0.004 A 
ATOM     14  C   UNL     1       0.044   0.042  -0.536  0.00  0.00    +0.047 A 
ATOM     15  C   UNL     1       0.007   1.412  -0.303  0.00  0.00    +0.136 A 
ATOM     16  O   UNL     1      -0.982   2.327  -0.332  0.00  0.00    -0.450 OA
ATOM     17  C   UNL     1      -0.511   3.554  -0.025  0.00  0.00    +0.196 A 
BRANCH   9  18
ATOM     18  C   UNL     1       1.739   4.627   0.579  0.00  0.00    +0.199 C 
BRANCH  18  20
ATOM     19  C   UNL     1       3.154   6.312  -0.372  0.00  0.00    +0.194 C 
ATOM     20  O   UNL     1       2.269   5.215  -0.611  0.00  0.00    -0.378 OA
ENDBRANCH  18  20
ENDBRANCH   9  18
ENDBRANCH   1  17
BRANCH   6  21
ATOM     21  C   UNL     1      -6.497   4.567   1.651  0.00  0.00    +0.140 C 
BRANCH  21  22
ATOM     22  C   UNL     1      -7.088   3.182   1.657  0.00  0.00    +0.063 A 
ATOM     23  C   UNL     1      -7.081   2.421   2.807  0.00  0.00    +0.095 A 
ATOM     24  C   UNL     1      -7.638   1.142   2.795  0.00  0.00    +0.259 A 
ATOM     25  O   UNL     1      -7.638   0.465   3.811  0.00  0.00    -0.267 OA
ATOM     26  N   UNL     1      -8.177   0.644   1.642  0.00  0.00    -0.262 N 
ATOM     27  C   UNL     1      -8.754  -0.592   1.470  0.00  0.00    +0.104 A 
ATOM     28  C   UNL     1      -9.247  -0.963   0.289  0.00  0.00    +0.067 A 
ATOM     29  S   UNL     1      -8.917   0.478  -0.714  0.00  0.00    -0.058 S 
ATOM     30  C   UNL     1      -8.138   1.464   0.546  0.00  0.00    +0.180 A 
ATOM     31  N   UNL     1      -7.622   2.668   0.552  0.00  0.00    -0.226 NA
ENDBRANCH  21  22
ENDBRANCH   6  21
TORSDOF 5
