REMARK  Name = ZINC39699259
REMARK  12 active torsions:
REMARK  status: ('A' for Active; 'I' for Inactive)
REMARK    1  A    between atoms: C_1  and  C_2
REMARK    2  A    between atoms: C_7  and  C_14
REMARK    3  A    between atoms: C_14  and  C_16
REMARK    4  A    between atoms: C_14  and  N_26
REMARK    5  A    between atoms: N_21  and  C_22
REMARK    6  A    between atoms: C_22  and  C_23
REMARK    7  A    between atoms: C_22  and  C_24
REMARK    8  A    between atoms: C_22  and  C_25
REMARK    9  A    between atoms: N_26  and  C_27
REMARK   10  A    between atoms: N_26  and  C_33
REMARK   11  A    between atoms: C_27  and  C_28
REMARK   12  A    between atoms: C_33  and  C_34
REMARK                            x       y       z     vdW  Elec       q    Type
REMARK                         _______ _______ _______ _____ _____    ______ ____
ROOT
ATOM      1  C   UNL     1      -1.026  -5.744   1.242  0.00  0.00    -0.009 C 
ENDROOT
BRANCH   1   8
ATOM      2  C   UNL     1       5.156  -6.776  -2.871  0.00  0.00    +0.044 C 
ATOM      3  C   UNL     1       4.142  -6.641  -1.765  0.00  0.00    -0.049 A 
ATOM      4  C   UNL     1       4.151  -7.577  -0.731  0.00  0.00    +0.004 A 
ATOM      5  C   UNL     1       3.262  -7.508   0.294  0.00  0.00    +0.010 A 
ATOM      6  C   UNL     1       2.279  -6.424   0.303  0.00  0.00    -0.007 A 
ATOM      7  C   UNL     1       1.368  -6.314   1.311  0.00  0.00    -0.006 C 
ATOM      8  C   UNL     1       0.388  -5.160   1.240  0.00  0.00    +0.088 C 
ATOM      9  C   UNL     1       0.501  -4.224   0.057  0.00  0.00    +0.223 C 
ATOM     10  O   UNL     1      -0.260  -3.281  -0.051  0.00  0.00    -0.275 OA
ATOM     11  N   UNL     1       1.430  -4.436  -0.861  0.00  0.00    -0.285 N 
ATOM     12  C   UNL     1       2.293  -5.449  -0.802  0.00  0.00    +0.041 A 
ATOM     13  C   UNL     1       3.260  -5.609  -1.812  0.00  0.00    +0.027 A 
ATOM     14  H   UNL     1       1.485  -3.824  -1.611  0.00  0.00    +0.155 HD
ENDBRANCH   1   8
BRANCH   1  15
ATOM     15  C   UNL     1      -2.047  -4.607   1.324  0.00  0.00    +0.205 C 
ATOM     16  N   UNL     1      -1.817  -3.797   2.528  0.00  0.00    -0.152 NA
ATOM     17  N   UNL     1      -2.818  -3.853   3.244  0.00  0.00    -0.070 NA
ATOM     18  N   UNL     1      -3.829  -4.646   2.703  0.00  0.00    -0.179 N 
ATOM     19  N   UNL     1      -3.411  -5.150   1.496  0.00  0.00    -0.183 NA
ATOM     20  H   UNL     1      -4.691  -4.815   3.113  0.00  0.00    +0.191 HD
BRANCH  19  21
ATOM     21  C   UNL     1      -4.293  -4.712   0.406  0.00  0.00    +0.035 C 
ATOM     22  C   UNL     1      -3.671  -5.095  -0.939  0.00  0.00    +0.029 C 
ATOM     23  C   UNL     1      -5.657  -5.391   0.549  0.00  0.00    +0.029 C 
ATOM     24  C   UNL     1      -4.470  -3.193   0.472  0.00  0.00    +0.029 C 
ENDBRANCH  19  21
ENDBRANCH   1  15
BRANCH   1  25
ATOM     25  N   UNL     1      -1.187  -6.631   2.402  0.00  0.00    +0.389 N 
ATOM     26  H   UNL     1      -0.394  -7.252   2.463  0.00  0.00    -0.081 HD
BRANCH  25  27
ATOM     27  C   UNL     1      -2.416  -7.421   2.247  0.00  0.00    -0.035 C 
BRANCH  27  28
ATOM     28  C   UNL     1      -2.260  -8.371   1.087  0.00  0.00    -0.027 A 
ATOM     29  C   UNL     1      -1.873  -9.670   1.095  0.00  0.00    +0.009 A 
ATOM     30  C   UNL     1      -1.801 -10.355  -0.104  0.00  0.00    +0.008 A 
ATOM     31  C   UNL     1      -2.119  -9.707  -1.251  0.00  0.00    +0.045 A 
ATOM     32  S   UNL     1      -2.544  -8.080  -0.651  0.00  0.00    -0.103 S 
ENDBRANCH  27  28
ENDBRANCH  25  27
BRANCH  25  33
ATOM     33  C   UNL     1      -1.274  -5.825   3.627  0.00  0.00    -0.046 C 
BRANCH  33  34
ATOM     34  C   UNL     1      -0.941  -6.700   4.837  0.00  0.00    +0.102 C 
ATOM     35  C   UNL     1      -1.147  -5.894   6.138  0.00  0.00    +0.032 C 
ATOM     36  C   UNL     1       0.049  -6.365   7.010  0.00  0.00    +0.030 C 
ATOM     37  C   UNL     1       1.137  -6.577   5.927  0.00  0.00    +0.160 C 
ATOM     38  O   UNL     1       0.434  -7.098   4.785  0.00  0.00    -0.378 OA
ENDBRANCH  33  34
ENDBRANCH  25  33
ENDBRANCH   1  25
TORSDOF 8
