REMARK  Name = ZINC63855254
REMARK  7 active torsions:
REMARK  status: ('A' for Active; 'I' for Inactive)
REMARK    1  A    between atoms: C_1  and  C_2
REMARK    2  A    between atoms: C_2  and  C_24
REMARK    3  A    between atoms: N_5  and  C_9
REMARK    4  A    between atoms: C_9  and  C_10
REMARK    5  A    between atoms: N_12  and  C_13
REMARK    6  A    between atoms: C_13  and  C_14
REMARK    7  A    between atoms: C_14  and  C_15
REMARK                            x       y       z     vdW  Elec       q    Type
REMARK                         _______ _______ _______ _____ _____    ______ ____
ROOT
ATOM      1  C   UNL     1      -0.019   1.526   0.010  0.00  0.00    +0.047 C 
ATOM      2  C   UNL     1       0.002  -0.004   0.002  0.00  0.00    +0.135 C 
ATOM      3  C   UNL     1       0.815  -0.520  -1.169  0.00  0.00    +0.251 C 
ATOM      4  O   UNL     1       0.595  -0.342  -2.348  0.00  0.00    -0.272 OA
ATOM      5  N   UNL     1       1.833  -1.217  -0.627  0.00  0.00    -0.215 N 
ATOM      6  C   UNL     1       1.777  -1.214   0.710  0.00  0.00    +0.310 C 
ATOM      7  O   UNL     1       2.586  -1.776   1.421  0.00  0.00    -0.252 OA
ATOM      8  N   UNL     1       0.724  -0.519   1.178  0.00  0.00    -0.281 N 
ATOM      9  H   UNL     1       0.487  -0.383   2.109  0.00  0.00    +0.152 HD
ENDROOT
BRANCH   2  10
ATOM     10  C   UNL     1      -1.401  -0.551  -0.040  0.00  0.00    -0.012 A 
ATOM     11  C   UNL     1      -2.003  -0.814  -1.256  0.00  0.00    +0.010 A 
ATOM     12  C   UNL     1      -3.291  -1.315  -1.299  0.00  0.00    +0.050 A 
ATOM     13  C   UNL     1      -3.982  -1.556  -0.121  0.00  0.00    +0.162 A 
ATOM     14  C   UNL     1      -3.376  -1.294   1.102  0.00  0.00    +0.162 A 
ATOM     15  C   UNL     1      -2.082  -0.795   1.138  0.00  0.00    +0.055 A 
ATOM     16  O   UNL     1      -4.033  -1.531   2.270  0.00  0.00    -0.485 OA
ATOM     17  C   UNL     1      -5.455  -1.683   2.189  0.00  0.00    +0.270 C 
ATOM     18  C   UNL     1      -5.771  -2.627   1.021  0.00  0.00    +0.270 C 
ATOM     19  O   UNL     1      -5.251  -2.045  -0.179  0.00  0.00    -0.485 OA
ENDBRANCH   2  10
BRANCH   5  20
ATOM     20  C   UNL     1       2.871  -1.896  -1.406  0.00  0.00    +0.213 C 
BRANCH  20  21
ATOM     21  C   UNL     1       4.020  -0.950  -1.644  0.00  0.00    +0.231 C 
ATOM     22  O   UNL     1       3.975   0.180  -1.206  0.00  0.00    -0.274 OA
ATOM     23  N   UNL     1       5.097  -1.360  -2.343  0.00  0.00    -0.314 N 
ATOM     24  H   UNL     1       5.133  -2.264  -2.693  0.00  0.00    +0.149 HD
BRANCH  23  25
ATOM     25  C   UNL     1       6.213  -0.440  -2.574  0.00  0.00    +0.108 C 
BRANCH  25  26
ATOM     26  C   UNL     1       7.298  -1.149  -3.387  0.00  0.00    +0.052 C 
BRANCH  26  27
ATOM     27  C   UNL     1       8.447  -0.203  -3.625  0.00  0.00    -0.040 C 
ATOM     28  C   UNL     1       9.579  -0.098  -2.892  0.00  0.00    -0.001 A 
ATOM     29  C   UNL     1      10.061  -0.805  -1.700  0.00  0.00    +0.010 A 
ATOM     30  C   UNL     1      11.264  -0.471  -1.181  0.00  0.00    +0.001 A 
ATOM     31  C   UNL     1      12.060   0.532  -1.751  0.00  0.00    +0.002 A 
ATOM     32  C   UNL     1      11.685   1.226  -2.846  0.00  0.00    +0.026 A 
ATOM     33  C   UNL     1      10.439   0.957  -3.476  0.00  0.00    +0.043 A 
ATOM     34  N   UNL     1       9.861   1.484  -4.528  0.00  0.00    -0.380 N 
ATOM     35  C   UNL     1       8.570   0.818  -4.735  0.00  0.00    +0.144 C 
ATOM     36  H   UNL     1      10.227   2.192  -5.080  0.00  0.00    +0.160 HD
ENDBRANCH  26  27
ENDBRANCH  25  26
ENDBRANCH  23  25
ENDBRANCH  20  21
ENDBRANCH   5  20
TORSDOF 6
