REMARK  Name = ZINC59120494
REMARK  5 active torsions:
REMARK  status: ('A' for Active; 'I' for Inactive)
REMARK    1  A    between atoms: C_4  and  C_7
REMARK    2  A    between atoms: C_7  and  C_8
REMARK    3  A    between atoms: C_7  and  C_14
REMARK    4  A    between atoms: N_16  and  C_17
REMARK    5  A    between atoms: C_20  and  C_23
REMARK                            x       y       z     vdW  Elec       q    Type
REMARK                         _______ _______ _______ _____ _____    ______ ____
ROOT
ATOM      1  C   UNL     1       4.423  -2.931  -2.337  0.00  0.00    +0.033 A 
ATOM      2  C   UNL     1       3.540  -2.698  -3.386  0.00  0.00    +0.024 A 
ATOM      3  C   UNL     1       3.588  -3.483  -4.515  0.00  0.00    +0.015 A 
ATOM      4  C   UNL     1       4.525  -4.516  -4.608  0.00  0.00    +0.037 A 
ATOM      5  C   UNL     1       5.411  -4.747  -3.552  0.00  0.00    +0.015 A 
ATOM      6  C   UNL     1       5.361  -3.955  -2.427  0.00  0.00    +0.024 A 
ENDROOT
BRANCH   4   7
ATOM      7  C   UNL     1       4.579  -5.360  -5.817  0.00  0.00    +0.251 C 
ATOM      8  O   UNL     1       5.651  -5.746  -6.242  0.00  0.00    -0.270 OA
ATOM      9  N   UNL     1       3.440  -5.702  -6.451  0.00  0.00    -0.257 N 
ATOM     10  C   UNL     1       2.138  -5.182  -6.007  0.00  0.00    +0.210 C 
ATOM     11  C   UNL     1       1.123  -6.295  -6.050  0.00  0.00    +0.235 C 
ATOM     12  O   UNL     1       0.185  -6.281  -5.281  0.00  0.00    -0.274 OA
ATOM     13  N   UNL     1       1.245  -7.306  -6.931  0.00  0.00    -0.283 N 
ATOM     14  C   UNL     1       2.344  -7.373  -7.795  0.00  0.00    +0.055 A 
ATOM     15  C   UNL     1       3.459  -6.562  -7.559  0.00  0.00    +0.058 A 
ATOM     16  C   UNL     1       4.554  -6.617  -8.403  0.00  0.00    +0.025 A 
ATOM     17  C   UNL     1       4.540  -7.472  -9.490  0.00  0.00    +0.002 A 
ATOM     18  C   UNL     1       3.438  -8.270  -9.733  0.00  0.00    +0.002 A 
ATOM     19  C   UNL     1       2.338  -8.230  -8.883  0.00  0.00    +0.025 A 
ATOM     20  H   UNL     1       0.564  -7.995  -6.967  0.00  0.00    +0.155 HD
ENDBRANCH   4   7
BRANCH   1  23
ATOM     21  C   UNL     1       3.192  -1.640  -0.768  0.00  0.00    +0.229 C 
ATOM     22  O   UNL     1       2.164  -1.966  -1.322  0.00  0.00    -0.274 OA
ATOM     23  N   UNL     1       4.372  -2.134  -1.194  0.00  0.00    -0.285 N 
ATOM     24  H   UNL     1       5.186  -1.934  -0.705  0.00  0.00    +0.155 HD
BRANCH  21  25
ATOM     25  C   UNL     1       3.151  -0.684   0.395  0.00  0.00    +0.135 C 
BRANCH  25  29
ATOM     26  C   UNL     1      -0.896   0.446   1.165  0.00  0.00    +0.000 A 
ATOM     27  C   UNL     1       0.069   1.418   0.975  0.00  0.00    +0.000 A 
ATOM     28  C   UNL     1       1.379   1.052   0.727  0.00  0.00    +0.005 A 
ATOM     29  C   UNL     1       1.724  -0.285   0.668  0.00  0.00    -0.031 A 
ATOM     30  C   UNL     1       0.759  -1.257   0.858  0.00  0.00    +0.005 A 
ATOM     31  C   UNL     1      -0.551  -0.891   1.106  0.00  0.00    +0.000 A 
ENDBRANCH  25  29
BRANCH  25  32
ATOM     32  C   UNL     1       3.728  -1.353   1.616  0.00  0.00    -0.031 A 
ATOM     33  C   UNL     1       3.275  -2.602   1.999  0.00  0.00    +0.005 A 
ATOM     34  C   UNL     1       3.804  -3.216   3.119  0.00  0.00    +0.000 A 
ATOM     35  C   UNL     1       4.785  -2.581   3.856  0.00  0.00    +0.000 A 
ATOM     36  C   UNL     1       5.239  -1.333   3.474  0.00  0.00    +0.000 A 
ATOM     37  C   UNL     1       4.713  -0.720   2.351  0.00  0.00    +0.005 A 
ENDBRANCH  25  32
ENDBRANCH  21  25
ENDBRANCH   1  23
TORSDOF 5
