REMARK  Name = ZINC42295141
REMARK  3 active torsions:
REMARK  status: ('A' for Active; 'I' for Inactive)
REMARK    1  A    between atoms: C_9  and  C_12
REMARK    2  A    between atoms: C_12  and  N_13
REMARK    3  A    between atoms: C_20  and  C_22
REMARK                            x       y       z     vdW  Elec       q    Type
REMARK                         _______ _______ _______ _____ _____    ______ ____
ROOT
ATOM      1  N   UNL     1       6.008  -1.982  -0.760  0.00  0.00    -0.296 N 
ATOM      2  C   UNL     1       7.280  -2.393  -0.587  0.00  0.00    +0.303 C 
ATOM      3  O   UNL     1       7.522  -3.319   0.164  0.00  0.00    -0.253 OA
ATOM      4  N   UNL     1       8.283  -1.779  -1.245  0.00  0.00    -0.278 N 
ATOM      5  C   UNL     1       8.132  -0.645  -2.175  0.00  0.00    +0.110 C 
ATOM      6  C   UNL     1       9.378  -0.718  -3.094  0.00  0.00    +0.021 C 
ATOM      7  C   UNL     1      10.474  -1.176  -2.096  0.00  0.00    +0.029 C 
ATOM      8  C   UNL     1       9.709  -2.124  -1.149  0.00  0.00    +0.114 C 
ATOM      9  H   UNL     1       5.815  -1.243  -1.358  0.00  0.00    +0.150 HD
ENDROOT
BRANCH   8  10
ATOM     10  C   UNL     1      10.188  -1.935   0.267  0.00  0.00    +0.010 A 
ATOM     11  C   UNL     1      11.058  -2.690   0.982  0.00  0.00    +0.013 A 
ATOM     12  C   UNL     1      11.355  -2.322   2.281  0.00  0.00    +0.008 A 
ATOM     13  C   UNL     1      10.766  -1.217   2.802  0.00  0.00    +0.045 A 
ATOM     14  S   UNL     1       9.762  -0.655   1.437  0.00  0.00    -0.100 S 
ENDBRANCH   8  10
BRANCH   1  15
ATOM     15  C   UNL     1       4.918  -2.649  -0.044  0.00  0.00    +0.153 C 
BRANCH  15  24
ATOM     16  C   UNL     1      -0.017   1.378   0.010  0.00  0.00    +0.004 A 
ATOM     17  C   UNL     1       1.170   2.088   0.002  0.00  0.00    +0.004 A 
ATOM     18  C   UNL     1       2.378   1.418  -0.012  0.00  0.00    +0.049 A 
ATOM     19  C   UNL     1       2.404   0.031  -0.019  0.00  0.00    +0.163 A 
ATOM     20  C   UNL     1       1.212  -0.683  -0.014  0.00  0.00    +0.162 A 
ATOM     21  C   UNL     1       0.002  -0.004   0.002  0.00  0.00    +0.049 A 
ATOM     22  O   UNL     1       1.214  -2.043  -0.029  0.00  0.00    -0.485 OA
ATOM     23  C   UNL     1       2.441  -2.689   0.331  0.00  0.00    +0.275 C 
ATOM     24  C   UNL     1       3.587  -1.993  -0.416  0.00  0.00    +0.228 C 
ATOM     25  O   UNL     1       3.602  -0.615  -0.029  0.00  0.00    -0.480 OA
ENDBRANCH  15  24
ENDBRANCH   1  15
TORSDOF 3
