REMARK  Name = ZINC63513990
REMARK  9 active torsions:
REMARK  status: ('A' for Active; 'I' for Inactive)
REMARK    1  A    between atoms: C_1  and  C_2
REMARK    2  A    between atoms: C_6  and  C_35
REMARK    3  A    between atoms: C_7  and  N_8
REMARK    4  A    between atoms: C_9  and  C_13
REMARK    5  A    between atoms: C_13  and  N_19
REMARK    6  A    between atoms: N_19  and  C_20
REMARK    7  A    between atoms: C_20  and  C_21
REMARK    8  A    between atoms: C_21  and  C_22
REMARK    9  A    between atoms: C_30  and  C_32
REMARK                            x       y       z     vdW  Elec       q    Type
REMARK                         _______ _______ _______ _____ _____    ______ ____
ROOT
ATOM      1  C   UNL     1      -0.024  -2.017   3.896  0.00  0.00    -0.005 C 
ATOM      2  C   UNL     1       1.067  -2.981   3.423  0.00  0.00    -0.005 C 
ATOM      3  C   UNL     1       0.677  -4.413   3.792  0.00  0.00    -0.001 C 
ATOM      4  C   UNL     1       0.522  -4.525   5.310  0.00  0.00    -0.000 C 
ATOM      5  C   UNL     1      -0.568  -3.561   5.784  0.00  0.00    -0.001 C 
ATOM      6  C   UNL     1      -0.178  -2.129   5.415  0.00  0.00    -0.005 C 
ENDROOT
BRANCH   1   8
ATOM      7  N   UNL     1       1.197   0.199   4.223  0.00  0.00    -0.198 N 
ATOM      8  C   UNL     1       0.360  -0.606   3.533  0.00  0.00    +0.146 A 
ATOM      9  N   UNL     1      -0.054   0.066   2.490  0.00  0.00    -0.114 NA
ATOM     10  N   UNL     1       0.464   1.241   2.474  0.00  0.00    -0.023 NA
ATOM     11  N   UNL     1       1.232   1.403   3.497  0.00  0.00    -0.039 NA
BRANCH   7  18
ATOM     12  C   UNL     1       3.640  -1.250   4.045  0.00  0.00    +0.046 C 
ATOM     13  C   UNL     1       3.074  -0.804   5.369  0.00  0.00    -0.025 A 
ATOM     14  C   UNL     1       3.747  -1.091   6.540  0.00  0.00    +0.005 A 
ATOM     15  C   UNL     1       3.229  -0.682   7.755  0.00  0.00    +0.001 A 
ATOM     16  C   UNL     1       2.035   0.015   7.801  0.00  0.00    +0.005 A 
ATOM     17  C   UNL     1       1.358   0.305   6.633  0.00  0.00    -0.025 A 
ATOM     18  C   UNL     1       1.879  -0.099   5.411  0.00  0.00    +0.075 A 
ATOM     19  C   UNL     1       0.057   1.065   6.684  0.00  0.00    +0.046 C 
ENDBRANCH   7  18
ENDBRANCH   1   8
BRANCH   1  20
ATOM     20  N   UNL     1      -1.296  -2.361   3.248  0.00  0.00    +0.388 N 
ATOM     21  H   UNL     1      -1.603  -3.268   3.568  0.00  0.00    -0.084 HD
ATOM     22  H   UNL     1      -1.992  -1.669   3.484  0.00  0.00    -0.084 HD
BRANCH  20  23
ATOM     23  C   UNL     1      -1.111  -2.393   1.791  0.00  0.00    -0.077 C 
BRANCH  23  24
ATOM     24  C   UNL     1      -2.461  -2.629   1.111  0.00  0.00    +0.014 C 
BRANCH  24  25
ATOM     25  C   UNL     1      -2.269  -2.670  -0.384  0.00  0.00    -0.040 C 
ATOM     26  C   UNL     1      -1.105  -2.537  -1.058  0.00  0.00    +0.001 A 
ATOM     27  C   UNL     1       0.279  -2.322  -0.618  0.00  0.00    +0.011 A 
ATOM     28  C   UNL     1       1.256  -2.227  -1.548  0.00  0.00    +0.022 A 
ATOM     29  C   UNL     1       0.981  -2.328  -2.920  0.00  0.00    +0.061 A 
ATOM     30  C   UNL     1      -0.268  -2.525  -3.401  0.00  0.00    +0.083 A 
ATOM     31  C   UNL     1      -1.371  -2.640  -2.511  0.00  0.00    +0.063 A 
ATOM     32  N   UNL     1      -2.650  -2.830  -2.726  0.00  0.00    -0.377 N 
ATOM     33  C   UNL     1      -3.340  -2.875  -1.432  0.00  0.00    +0.103 C 
ATOM     34  C   UNL     1      -4.015  -4.234  -1.237  0.00  0.00    +0.035 C 
ATOM     35 CL   UNL     1      -0.525  -2.637  -5.114  0.00  0.00    -0.080 Cl
ATOM     36 CL   UNL     1       2.296  -2.193  -4.046  0.00  0.00    -0.082 Cl
ATOM     37  H   UNL     1      -3.070  -2.928  -3.595  0.00  0.00    +0.160 HD
ENDBRANCH  24  25
ENDBRANCH  23  24
ENDBRANCH  20  23
ENDBRANCH   1  20
TORSDOF 6
