REMARK  Name = ZINC34683957
REMARK  11 active torsions:
REMARK  status: ('A' for Active; 'I' for Inactive)
REMARK    1  A    between atoms: C_1  and  C_2
REMARK    2  A    between atoms: C_5  and  N_8
REMARK    3  A    between atoms: N_8  and  C_9
REMARK    4  A    between atoms: N_8  and  S_25
REMARK    5  A    between atoms: N_12  and  C_15
REMARK    6  A    between atoms: C_15  and  C_16
REMARK    7  A    between atoms: C_20  and  O_23
REMARK    8  A    between atoms: C_21  and  O_22
REMARK    9  A    between atoms: O_23  and  C_24
REMARK   10  A    between atoms: S_25  and  C_28
REMARK   11  A    between atoms: C_31  and  C_34
REMARK                            x       y       z     vdW  Elec       q    Type
REMARK                         _______ _______ _______ _____ _____    ______ ____
ROOT
ATOM      1  N   UNL     1       0.054  -4.154  -0.027  0.00  0.00    -0.200 N 
ENDROOT
BRANCH   1   6
ATOM      2  C   UNL     1      -0.937   1.411   0.415  0.00  0.00    +0.044 C 
ATOM      3  C   UNL     1      -0.674  -0.068   0.298  0.00  0.00    -0.050 A 
ATOM      4  C   UNL     1       0.615  -0.525   0.095  0.00  0.00    +0.005 A 
ATOM      5  C   UNL     1       0.860  -1.880  -0.013  0.00  0.00    +0.025 A 
ATOM      6  C   UNL     1      -0.190  -2.784   0.082  0.00  0.00    +0.052 A 
ATOM      7  C   UNL     1      -1.484  -2.321   0.286  0.00  0.00    +0.025 A 
ATOM      8  C   UNL     1      -1.721  -0.965   0.399  0.00  0.00    +0.005 A 
ENDBRANCH   1   6
BRANCH   1   9
ATOM      9  C   UNL     1       0.731  -4.867   1.059  0.00  0.00    +0.095 C 
ATOM     10  C   UNL     1      -0.011  -4.618   2.376  0.00  0.00    +0.006 C 
ATOM     11  C   UNL     1       0.746  -5.299   3.518  0.00  0.00    -0.077 C 
ATOM     12  N   UNL     1       2.103  -4.747   3.608  0.00  0.00    +0.383 N 
ATOM     13  C   UNL     1       2.845  -5.045   2.376  0.00  0.00    -0.077 C 
ATOM     14  C   UNL     1       2.168  -4.354   1.190  0.00  0.00    +0.006 C 
ATOM     15  H   UNL     1       2.051  -3.748   3.734  0.00  0.00    -0.081 HD
BRANCH  12  16
ATOM     16  C   UNL     1       2.800  -5.348   4.753  0.00  0.00    -0.039 C 
BRANCH  16  17
ATOM     17  C   UNL     1       4.147  -4.694   4.921  0.00  0.00    -0.019 A 
ATOM     18  C   UNL     1       5.284  -5.320   4.443  0.00  0.00    +0.005 A 
ATOM     19  C   UNL     1       6.521  -4.723   4.595  0.00  0.00    +0.004 A 
ATOM     20  C   UNL     1       6.628  -3.498   5.227  0.00  0.00    +0.049 A 
ATOM     21  C   UNL     1       5.494  -2.865   5.708  0.00  0.00    +0.161 A 
ATOM     22  C   UNL     1       4.247  -3.463   5.550  0.00  0.00    +0.160 A 
BRANCH  22  23
ATOM     23  O   UNL     1       3.129  -2.844   6.016  0.00  0.00    -0.503 OA
ATOM     24  H   UNL     1       2.906  -3.070   6.929  0.00  0.00    +0.292 HD
ENDBRANCH  22  23
BRANCH  21  25
ATOM     25  O   UNL     1       5.597  -1.660   6.330  0.00  0.00    -0.491 OA
ATOM     26  C   UNL     1       6.907  -1.103   6.452  0.00  0.00    +0.277 C 
ENDBRANCH  21  25
ENDBRANCH  16  17
ENDBRANCH  12  16
ENDBRANCH   1   9
BRANCH   1  27
ATOM     27  S   UNL     1      -0.422  -4.975  -1.385  0.00  0.00    +0.075 S 
ATOM     28  O   UNL     1      -0.709  -6.305  -0.976  0.00  0.00    -0.150 OA
ATOM     29  O   UNL     1      -1.382  -4.155  -2.038  0.00  0.00    -0.150 OA
BRANCH  27  30
ATOM     30  C   UNL     1       0.975  -5.066  -2.455  0.00  0.00    +0.109 A 
ATOM     31  C   UNL     1       1.152  -4.116  -3.443  0.00  0.00    +0.029 A 
ATOM     32  C   UNL     1       2.248  -4.188  -4.282  0.00  0.00    +0.005 A 
ATOM     33  C   UNL     1       3.166  -5.210  -4.134  0.00  0.00    -0.050 A 
ATOM     34  C   UNL     1       2.989  -6.160  -3.145  0.00  0.00    +0.005 A 
ATOM     35  C   UNL     1       1.896  -6.086  -2.303  0.00  0.00    +0.029 A 
ATOM     36  C   UNL     1       4.360  -5.289  -5.050  0.00  0.00    +0.044 C 
ENDBRANCH  27  30
ENDBRANCH   1  27
TORSDOF 8
