REMARK  Name = ZINC20025474
REMARK  11 active torsions:
REMARK  status: ('A' for Active; 'I' for Inactive)
REMARK    1  A    between atoms: C_1  and  C_2
REMARK    2  A    between atoms: C_2  and  O_3
REMARK    3  A    between atoms: O_3  and  C_4
REMARK    4  A    between atoms: C_4  and  C_6
REMARK    5  A    between atoms: C_7  and  N_18
REMARK    6  A    between atoms: C_10  and  O_16
REMARK    7  A    between atoms: O_16  and  C_17
REMARK    8  A    between atoms: C_19  and  C_21
REMARK    9  A    between atoms: C_21  and  N_22
REMARK   10  A    between atoms: C_24  and  C_31
REMARK   11  A    between atoms: C_27  and  C_30
REMARK                            x       y       z     vdW  Elec       q    Type
REMARK                         _______ _______ _______ _____ _____    ______ ____
ROOT
ATOM      1  C   UNL     1      -0.044  -2.904  -0.091  0.00  0.00    +0.147 A 
ATOM      2  C   UNL     1      -1.066  -2.091   0.354  0.00  0.00    +0.073 A 
ATOM      3  C   UNL     1      -2.226  -2.958   0.576  0.00  0.00    +0.025 A 
ATOM      4  C   UNL     1      -3.533  -2.721   1.013  0.00  0.00    +0.057 A 
ATOM      5  C   UNL     1      -4.417  -3.775   1.122  0.00  0.00    +0.121 A 
ATOM      6  C   UNL     1      -4.012  -5.068   0.798  0.00  0.00    +0.047 A 
ATOM      7  C   UNL     1      -2.729  -5.313   0.366  0.00  0.00    +0.030 A 
ATOM      8  C   UNL     1      -1.819  -4.265   0.249  0.00  0.00    +0.049 A 
ATOM      9  N   UNL     1      -0.501  -4.212  -0.146  0.00  0.00    -0.348 N 
ATOM     10  H   UNL     1       0.173  -5.017  -0.473  0.00  0.00    +0.166 HD
ENDROOT
BRANCH   2  11
ATOM     11  N   UNL     1      -1.008  -0.715   0.549  0.00  0.00    -0.282 N 
ATOM     12  C   UNL     1      -1.801   0.102  -0.172  0.00  0.00    +0.231 C 
ATOM     13  O   UNL     1      -2.477  -0.349  -1.072  0.00  0.00    -0.274 OA
ATOM     14  H   UNL     1      -0.315  -0.293   1.292  0.00  0.00    +0.155 HD
BRANCH  12  15
ATOM     15  C   UNL     1      -1.847   1.576   0.140  0.00  0.00    +0.181 C 
BRANCH  15  16
ATOM     16  N   UNL     1      -2.779   2.242  -0.780  0.00  0.00    -0.289 NA
ATOM     17  C   UNL     1      -2.277   2.199  -2.161  0.00  0.00    +0.116 C 
ATOM     18  C   UNL     1      -3.303   2.850  -3.092  0.00  0.00    +0.130 C 
ATOM     19  O   UNL     1      -3.561   4.185  -2.650  0.00  0.00    -0.371 OA
ATOM     20  C   UNL     1      -4.052   4.264  -1.310  0.00  0.00    +0.130 C 
ATOM     21  C   UNL     1      -3.033   3.628  -0.360  0.00  0.00    +0.116 C 
ATOM     22  C   UNL     1      -5.382   3.515  -1.207  0.00  0.00    +0.039 C 
ATOM     23  C   UNL     1      -2.752   2.881  -4.519  0.00  0.00    +0.039 C 
ENDBRANCH  15  16
ENDBRANCH  12  15
ENDBRANCH   2  11
BRANCH   1  24
ATOM     24  C   UNL     1       1.263  -2.473  -0.432  0.00  0.00    +0.358 C 
ATOM     25  O   UNL     1       1.517  -1.284  -0.486  0.00  0.00    -0.243 OA
BRANCH  24  26
ATOM     26  O   UNL     1       2.225  -3.381  -0.698  0.00  0.00    -0.460 OA
BRANCH  26  28
ATOM     27  C   UNL     1       4.470  -4.044  -1.301  0.00  0.00    +0.048 C 
ATOM     28  C   UNL     1       3.519  -2.875  -1.035  0.00  0.00    +0.229 C 
ENDBRANCH  26  28
ENDBRANCH  24  26
ENDBRANCH   1  24
BRANCH   5  29
ATOM     29  O   UNL     1      -5.689  -3.550   1.548  0.00  0.00    -0.495 OA
ATOM     30  C   UNL     1      -6.553  -4.685   1.638  0.00  0.00    +0.277 C 
ENDBRANCH   5  29
TORSDOF 7
