REMARK  Name = ZINC38664465
REMARK  7 active torsions:
REMARK  status: ('A' for Active; 'I' for Inactive)
REMARK    1  A    between atoms: C_4  and  N_7
REMARK    2  A    between atoms: C_9  and  C_27
REMARK    3  A    between atoms: C_10  and  C_13
REMARK    4  A    between atoms: C_17  and  S_19
REMARK    5  A    between atoms: S_19  and  N_22
REMARK    6  A    between atoms: C_28  and  C_29
REMARK    7  A    between atoms: C_28  and  C_31
REMARK                            x       y       z     vdW  Elec       q    Type
REMARK                         _______ _______ _______ _____ _____    ______ ____
ROOT
ATOM      1  N   UNL     1       3.920   0.146   0.876  0.00  0.00    -0.242 N 
ATOM      2  C   UNL     1       5.203   0.566   0.684  0.00  0.00    +0.099 C 
ATOM      3  C   UNL     1       6.000  -0.451   0.292  0.00  0.00    -0.008 C 
ATOM      4  C   UNL     1       5.117  -1.679   0.223  0.00  0.00    +0.134 C 
ATOM      5  N   UNL     1       3.784  -1.188   0.626  0.00  0.00    -0.224 NA
ATOM      6  H   UNL     1       3.105  -1.353  -0.101  0.00  0.00    +0.146 HD
ENDROOT
BRANCH   1  10
ATOM      7  C   UNL     1       0.804   2.628   2.088  0.00  0.00    +0.000 A 
ATOM      8  C   UNL     1       2.074   3.149   1.915  0.00  0.00    +0.002 A 
ATOM      9  C   UNL     1       3.109   2.329   1.513  0.00  0.00    +0.025 A 
ATOM     10  C   UNL     1       2.875   0.979   1.283  0.00  0.00    +0.049 A 
ATOM     11  C   UNL     1       1.598   0.459   1.457  0.00  0.00    +0.025 A 
ATOM     12  C   UNL     1       0.567   1.285   1.859  0.00  0.00    +0.002 A 
ENDBRANCH   1  10
BRANCH   4  13
ATOM     13  C   UNL     1       5.083  -2.227  -1.180  0.00  0.00    -0.023 A 
ATOM     14  C   UNL     1       4.384  -1.558  -2.167  0.00  0.00    +0.005 A 
ATOM     15  C   UNL     1       4.354  -2.060  -3.454  0.00  0.00    +0.002 A 
ATOM     16  C   UNL     1       5.023  -3.232  -3.755  0.00  0.00    +0.028 A 
ATOM     17  C   UNL     1       5.723  -3.901  -2.769  0.00  0.00    +0.106 A 
ATOM     18  C   UNL     1       5.757  -3.396  -1.482  0.00  0.00    +0.034 A 
BRANCH  17  19
ATOM     19  S   UNL     1       6.575  -5.395  -3.152  0.00  0.00    +0.061 S 
ATOM     20  O   UNL     1       6.598  -6.167  -1.959  0.00  0.00    -0.153 OA
ATOM     21  O   UNL     1       6.016  -5.882  -4.364  0.00  0.00    -0.153 OA
BRANCH  19  22
ATOM     22  N   UNL     1       8.146  -4.991  -3.484  0.00  0.00    -0.177 NA
ATOM     23  C   UNL     1       8.701  -4.740  -4.822  0.00  0.00    +0.109 C 
ATOM     24  C   UNL     1      10.201  -4.425  -4.644  0.00  0.00    +0.018 C 
ATOM     25  C   UNL     1      10.531  -5.070  -3.272  0.00  0.00    +0.018 C 
ATOM     26  C   UNL     1       9.218  -4.816  -2.487  0.00  0.00    +0.109 C 
ENDBRANCH  19  22
ENDBRANCH  17  19
ENDBRANCH   4  13
BRANCH   3  27
ATOM     27  C   UNL     1       7.378  -0.383   0.004  0.00  0.00    +0.025 C 
ATOM     28  C   UNL     1       7.835   0.494  -0.928  0.00  0.00    +0.072 C 
BRANCH  28  29
ATOM     29  C   UNL     1       6.859   1.287  -1.760  0.00  0.00    +0.216 C 
ATOM     30  N   UNL     1       7.096   1.040  -3.187  0.00  0.00    -0.359 N 
ATOM     31  C   UNL     1       7.402   2.180  -3.735  0.00  0.00    +0.060 A 
ATOM     32  C   UNL     1       7.740   2.568  -5.112  0.00  0.00    +0.027 A 
ATOM     33  C   UNL     1       8.019   3.857  -5.390  0.00  0.00    +0.002 A 
ATOM     34  C   UNL     1       8.002   4.865  -4.409  0.00  0.00    +0.002 A 
ATOM     35  C   UNL     1       7.706   4.617  -3.118  0.00  0.00    +0.027 A 
ATOM     36  C   UNL     1       7.384   3.247  -2.697  0.00  0.00    +0.060 A 
ATOM     37  N   UNL     1       7.068   2.724  -1.548  0.00  0.00    -0.359 N 
ATOM     38  H   UNL     1       7.036   0.183  -3.639  0.00  0.00    +0.162 HD
ATOM     39  H   UNL     1       6.985   3.199  -0.706  0.00  0.00    +0.162 HD
ENDBRANCH  28  29
BRANCH  28  40
ATOM     40  C   UNL     1       9.243   0.665  -1.121  0.00  0.00    +0.099 C 
ATOM     41  N   UNL     1      10.361   0.800  -1.275  0.00  0.00    -0.191 NA
ENDBRANCH  28  40
ENDBRANCH   3  27
TORSDOF 7
