REMARK  Name = ZINC49181347
REMARK  10 active torsions:
REMARK  status: ('A' for Active; 'I' for Inactive)
REMARK    1  A    between atoms: C_1  and  C_2
REMARK    2  A    between atoms: C_2  and  C_3
REMARK    3  A    between atoms: C_2  and  C_4
REMARK    4  A    between atoms: C_2  and  O_34
REMARK    5  A    between atoms: C_10  and  O_32
REMARK    6  A    between atoms: C_20  and  O_30
REMARK    7  A    between atoms: C_21  and  O_28
REMARK    8  A    between atoms: C_24  and  O_27
REMARK    9  A    between atoms: O_28  and  C_29
REMARK   10  A    between atoms: O_30  and  C_31
REMARK                            x       y       z     vdW  Elec       q    Type
REMARK                         _______ _______ _______ _____ _____    ______ ____
ROOT
ATOM      1  C   UNL     1      -1.413  -0.534  -0.235  0.00  0.00    +0.209 C 
ATOM      2  C   UNL     1      -1.484  -2.055   0.055  0.00  0.00    +0.090 C 
ATOM      3  C   UNL     1      -2.845  -2.188   0.682  0.00  0.00    +0.040 A 
ATOM      4  C   UNL     1      -3.268  -0.896   1.033  0.00  0.00    +0.131 A 
ATOM      5  C   UNL     1      -4.514  -0.693   1.635  0.00  0.00    +0.092 A 
ATOM      6  C   UNL     1      -5.304  -1.807   1.875  0.00  0.00    +0.134 A 
ATOM      7  C   UNL     1      -4.873  -3.096   1.531  0.00  0.00    +0.104 A 
ATOM      8  C   UNL     1      -3.620  -3.304   0.911  0.00  0.00    +0.142 A 
ATOM      9  O   UNL     1      -3.213  -4.535   0.552  0.00  0.00    -0.481 OA
ATOM     10  C   UNL     1      -3.784  -5.685   1.180  0.00  0.00    +0.254 C 
ATOM     11  C   UNL     1      -3.410  -6.919   0.339  0.00  0.00    +0.277 C 
ATOM     12  O   UNL     1      -3.778  -6.657  -1.016  0.00  0.00    -0.488 OA
ATOM     13  C   UNL     1      -5.022  -6.166  -1.263  0.00  0.00    +0.131 A 
ATOM     14  C   UNL     1      -5.506  -6.211  -2.566  0.00  0.00    +0.095 A 
ATOM     15  C   UNL     1      -6.764  -5.717  -2.860  0.00  0.00    +0.165 A 
ATOM     16  C   UNL     1      -7.548  -5.171  -1.847  0.00  0.00    +0.162 A 
ATOM     17  C   UNL     1      -7.065  -5.129  -0.551  0.00  0.00    +0.060 A 
ATOM     18  C   UNL     1      -5.806  -5.626  -0.257  0.00  0.00    +0.040 A 
ATOM     19  C   UNL     1      -5.313  -5.567   1.177  0.00  0.00    +0.197 C 
ATOM     20  C   UNL     1      -5.711  -4.267   1.809  0.00  0.00    +0.210 C 
ATOM     21  O   UNL     1      -6.685  -4.189   2.530  0.00  0.00    -0.288 OA
ATOM     22  O   UNL     1      -2.334   0.027   0.719  0.00  0.00    -0.485 OA
ENDROOT
BRANCH   1  24
ATOM     23  C   UNL     1       0.963  -0.649  -0.999  0.00  0.00    +0.045 C 
ATOM     24  C   UNL     1       0.002  -0.004   0.002  0.00  0.00    +0.097 C 
ATOM     25  C   UNL     1       0.015   1.515  -0.184  0.00  0.00    +0.045 C 
BRANCH  24  26
ATOM     26  O   UNL     1       0.414  -0.325   1.332  0.00  0.00    -0.385 OA
ATOM     27  H   UNL     1       1.304  -0.018   1.553  0.00  0.00    +0.210 HD
ENDBRANCH  24  26
ENDBRANCH   1  24
BRANCH  19  28
ATOM     28  O   UNL     1      -5.876  -6.652   1.917  0.00  0.00    -0.373 OA
ATOM     29  H   UNL     1      -6.842  -6.642   1.957  0.00  0.00    +0.211 HD
ENDBRANCH  19  28
BRANCH  16  30
ATOM     30  O   UNL     1      -8.785  -4.681  -2.131  0.00  0.00    -0.491 OA
ATOM     31  C   UNL     1      -9.532  -4.136  -1.042  0.00  0.00    +0.277 C 
ENDBRANCH  16  30
BRANCH  15  32
ATOM     32  O   UNL     1      -7.233  -5.763  -4.136  0.00  0.00    -0.491 OA
ATOM     33  C   UNL     1      -6.374  -6.336  -5.123  0.00  0.00    +0.277 C 
ENDBRANCH  15  32
BRANCH   6  34
ATOM     34  O   UNL     1      -6.519  -1.647   2.456  0.00  0.00    -0.506 OA
ATOM     35  H   UNL     1      -7.241  -1.510   1.826  0.00  0.00    +0.292 HD
ENDBRANCH   6  34
TORSDOF 6
