REMARK  Name = ZINC01958379
REMARK  6 active torsions:
REMARK  status: ('A' for Active; 'I' for Inactive)
REMARK    1  A    between atoms: C_1  and  C_2
REMARK    2  A    between atoms: C_2  and  C_3
REMARK    3  A    between atoms: C_9  and  C_11
REMARK    4  A    between atoms: C_11  and  C_12
REMARK    5  A    between atoms: N_14  and  N_15
REMARK    6  A    between atoms: C_16  and  C_17
REMARK                            x       y       z     vdW  Elec       q    Type
REMARK                         _______ _______ _______ _____ _____    ______ ____
ROOT
ATOM      1  C   UNL     1       2.823   3.661  -1.427  0.00  0.00    +0.239 C 
ATOM      2  O   UNL     1       2.389   3.001  -2.348  0.00  0.00    -0.274 OA
ATOM      3  N   UNL     1       3.536   4.778  -1.675  0.00  0.00    -0.207 N 
ATOM      4  H   UNL     1       3.883   5.305  -0.938  0.00  0.00    +0.177 HD
ENDROOT
BRANCH   3   5
ATOM      5  N   UNL     1       3.775   5.177  -2.996  0.00  0.00    -0.188 NA
ATOM      6  C   UNL     1       4.461   6.253  -3.235  0.00  0.00    +0.138 C 
BRANCH   6   7
ATOM      7  C   UNL     1       4.713   6.673  -4.625  0.00  0.00    -0.005 A 
ATOM      8  C   UNL     1       4.220   5.913  -5.689  0.00  0.00    +0.010 A 
ATOM      9  C   UNL     1       4.455   6.315  -6.987  0.00  0.00    +0.016 A 
ATOM     10  C   UNL     1       5.187   7.463  -7.238  0.00  0.00    +0.018 A 
ATOM     11  C   UNL     1       5.683   8.218  -6.189  0.00  0.00    +0.016 A 
ATOM     12  C   UNL     1       5.451   7.830  -4.886  0.00  0.00    +0.010 A 
ATOM     13 BR   UNL     1       5.511   8.001  -9.021  0.00  0.00    -0.050 Br
ENDBRANCH   6   7
ENDBRANCH   3   5
BRANCH   1  14
ATOM     14  C   UNL     1       2.566   3.231  -0.006  0.00  0.00    +0.162 C 
BRANCH  14  21
ATOM     15  C   UNL     1      -0.815  -2.231  -0.002  0.00  0.00    +0.218 C 
ATOM     16  O   UNL     1       0.327  -2.638  -0.015  0.00  0.00    -0.275 OA
ATOM     17  N   UNL     1      -1.058  -0.905   0.007  0.00  0.00    -0.263 N 
ATOM     18  C   UNL     1       0.002  -0.004   0.002  0.00  0.00    +0.188 A 
ATOM     19  N   UNL     1       1.304  -0.235  -0.012  0.00  0.00    -0.126 NA
ATOM     20  N   UNL     1       2.147   0.705  -0.015  0.00  0.00    -0.144 NA
ATOM     21  C   UNL     1       1.753   1.962  -0.004  0.00  0.00    +0.112 A 
ATOM     22  S   UNL     1      -0.021   1.735   0.012  0.00  0.00    -0.035 S 
ATOM     23  H   UNL     1      -1.971  -0.579   0.018  0.00  0.00    +0.157 HD
BRANCH  15  25
ATOM     24  C   UNL     1      -1.417  -4.636  -0.009  0.00  0.00    +0.013 C 
ATOM     25  C   UNL     1      -1.963  -3.207   0.004  0.00  0.00    +0.093 C 
ENDBRANCH  15  25
ENDBRANCH  14  21
ENDBRANCH   1  14
TORSDOF 5
