REMARK  Name = ZINC09942080
REMARK  11 active torsions:
REMARK  status: ('A' for Active; 'I' for Inactive)
REMARK    1  A    between atoms: C_1  and  C_2
REMARK    2  A    between atoms: C_6  and  C_34
REMARK    3  A    between atoms: C_8  and  O_11
REMARK    4  A    between atoms: O_11  and  C_12
REMARK    5  A    between atoms: C_12  and  C_14
REMARK    6  A    between atoms: C_15  and  C_33
REMARK    7  A    between atoms: C_22  and  C_24
REMARK    8  A    between atoms: C_29  and  O_30
REMARK    9  A    between atoms: O_30  and  C_31
REMARK   10  A    between atoms: C_34  and  C_35
REMARK   11  A    between atoms: C_34  and  C_36
REMARK                            x       y       z     vdW  Elec       q    Type
REMARK                         _______ _______ _______ _____ _____    ______ ____
ROOT
ATOM      1  C   UNL     1       1.300   3.571   3.071  0.00  0.00    +0.082 C 
ATOM      2  C   UNL     1       0.721   4.227   4.088  0.00  0.00    +0.020 C 
ATOM      3  N   UNL     1       0.811   5.590   4.228  0.00  0.00    -0.286 N 
ATOM      4  C   UNL     1       1.733   6.253   3.431  0.00  0.00    +0.240 A 
ATOM      5  N   UNL     1       2.187   7.472   3.486  0.00  0.00    -0.092 NA
ATOM      6  N   UNL     1       3.046   7.672   2.545  0.00  0.00    -0.021 NA
ATOM      7  N   UNL     1       3.193   6.601   1.834  0.00  0.00    -0.042 NA
ATOM      8  N   UNL     1       2.343   5.642   2.382  0.00  0.00    -0.201 N 
ATOM      9  C   UNL     1       2.093   4.261   1.992  0.00  0.00    +0.184 C 
ATOM     10  C   UNL     1      -0.057   3.441   5.112  0.00  0.00    +0.061 C 
ATOM     11  H   UNL     1       0.252   6.070   4.858  0.00  0.00    +0.155 HD
ENDROOT
BRANCH   9  12
ATOM     12  C   UNL     1       1.311   4.242   0.703  0.00  0.00    +0.024 A 
ATOM     13  C   UNL     1       0.063   4.831   0.643  0.00  0.00    +0.025 A 
ATOM     14  C   UNL     1      -0.655   4.814  -0.539  0.00  0.00    +0.018 A 
ATOM     15  C   UNL     1      -0.125   4.207  -1.663  0.00  0.00    +0.019 A 
ATOM     16  C   UNL     1       1.122   3.617  -1.608  0.00  0.00    +0.047 A 
ATOM     17  C   UNL     1       1.846   3.638  -0.424  0.00  0.00    +0.126 A 
ATOM     18 BR   UNL     1      -2.364   5.621  -0.618  0.00  0.00    -0.050 Br
BRANCH  17  19
ATOM     19  O   UNL     1       3.076   3.062  -0.369  0.00  0.00    -0.495 OA
ATOM     20  C   UNL     1       3.565   2.458  -1.568  0.00  0.00    +0.277 C 
ENDBRANCH  17  19
ENDBRANCH   9  12
BRANCH   1  21
ATOM     21  C   UNL     1       1.165   2.166   3.012  0.00  0.00    +0.339 C 
ATOM     22  O   UNL     1       2.126   1.453   3.233  0.00  0.00    -0.245 OA
BRANCH  21  23
ATOM     23  O   UNL     1      -0.029   1.615   2.711  0.00  0.00    -0.458 OA
BRANCH  23  29
ATOM     24  C   UNL     1      -0.718   1.699   0.309  0.00  0.00    +0.007 C 
ATOM     25  C   UNL     1      -0.807   0.172   0.345  0.00  0.00    -0.011 C 
ATOM     26  C   UNL     1      -2.220  -0.246   0.757  0.00  0.00    +0.004 C 
ATOM     27  C   UNL     1      -2.534   0.316   2.145  0.00  0.00    +0.007 C 
ATOM     28  C   UNL     1      -1.525  -0.230   3.157  0.00  0.00    +0.032 C 
ATOM     29  C   UNL     1      -0.113   0.189   2.745  0.00  0.00    +0.180 C 
ATOM     30  C   UNL     1       0.202  -0.374   1.357  0.00  0.00    +0.048 C 
BRANCH  28  31
ATOM     31  C   UNL     1      -1.839   0.332   4.545  0.00  0.00    -0.011 C 
ATOM     32  C   UNL     1      -3.252  -0.087   4.956  0.00  0.00    +0.007 C 
ATOM     33  C   UNL     1      -0.830  -0.214   5.556  0.00  0.00    +0.007 C 
ENDBRANCH  28  31
ENDBRANCH  23  29
ENDBRANCH  21  23
ENDBRANCH   1  21
TORSDOF 6
