REMARK  Name = ZINC63929351
REMARK  6 active torsions:
REMARK  status: ('A' for Active; 'I' for Inactive)
REMARK    1  A    between atoms: C_1  and  N_2
REMARK    2  A    between atoms: C_16  and  C_27
REMARK    3  A    between atoms: N_18  and  C_21
REMARK    4  A    between atoms: C_21  and  C_22
REMARK    5  A    between atoms: C_27  and  S_28
REMARK    6  A    between atoms: S_28  and  C_29
REMARK                            x       y       z     vdW  Elec       q    Type
REMARK                         _______ _______ _______ _____ _____    ______ ____
ROOT
ATOM      1  C   UNL     1      -0.046   1.117  -0.172  0.00  0.00    +0.131 C 
ATOM      2  N   UNL     1      -0.040  -0.343  -0.045  0.00  0.00    -0.316 N 
ATOM      3  C   UNL     1      -0.059  -1.158  -1.174  0.00  0.00    +0.041 A 
ATOM      4  C   UNL     1       0.300  -0.644  -2.413  0.00  0.00    +0.024 A 
ATOM      5  C   UNL     1       0.289  -1.460  -3.526  0.00  0.00    +0.002 A 
ATOM      6  C   UNL     1      -0.078  -2.794  -3.422  0.00  0.00    +0.001 A 
ATOM      7  C   UNL     1      -0.442  -3.324  -2.203  0.00  0.00    +0.013 A 
ATOM      8  C   UNL     1      -0.440  -2.509  -1.069  0.00  0.00    +0.039 A 
ATOM      9  C   UNL     1      -0.843  -3.049   0.244  0.00  0.00    +0.180 C 
ATOM     10  O   UNL     1      -0.930  -4.242   0.449  0.00  0.00    -0.291 OA
ATOM     11  C   UNL     1      -1.142  -2.028   1.318  0.00  0.00    +0.181 C 
ATOM     12  C   UNL     1      -0.009  -0.982   1.270  0.00  0.00    +0.162 C 
ATOM     13  N   UNL     1      -0.222  -0.033   2.364  0.00  0.00    -0.279 NA
ATOM     14  C   UNL     1       0.030  -0.691   3.655  0.00  0.00    +0.156 C 
ATOM     15  N   UNL     1      -0.641  -1.981   3.744  0.00  0.00    -0.277 N 
ATOM     16  C   UNL     1      -1.177  -2.642   2.685  0.00  0.00    +0.231 C 
ATOM     17  O   UNL     1      -1.665  -3.741   2.836  0.00  0.00    -0.275 OA
ATOM     18  H   UNL     1       0.362   0.782   2.254  0.00  0.00    +0.125 HD
ENDROOT
BRANCH  15  19
ATOM     19  C   UNL     1      -0.767  -2.599   5.066  0.00  0.00    +0.183 C 
BRANCH  19  20
ATOM     20  C   UNL     1      -2.053  -2.150   5.710  0.00  0.00    +0.122 A 
ATOM     21  C   UNL     1      -3.243  -2.769   5.604  0.00  0.00    +0.046 A 
ATOM     22  C   UNL     1      -4.167  -2.012   6.362  0.00  0.00    +0.041 A 
ATOM     23  C   UNL     1      -3.486  -0.977   6.885  0.00  0.00    +0.195 A 
ATOM     24  O   UNL     1      -2.205  -1.069   6.492  0.00  0.00    -0.466 OA
ENDBRANCH  19  20
ENDBRANCH  15  19
BRANCH  14  25
ATOM     25  C   UNL     1       1.536  -0.902   3.821  0.00  0.00    +0.111 C 
BRANCH  25  26
ATOM     26  S   UNL     1       2.363   0.709   3.938  0.00  0.00    -0.112 S 
BRANCH  26  27
ATOM     27  C   UNL     1       4.117   0.288   4.130  0.00  0.00    +0.235 C 
ATOM     28  N   UNL     1       4.562  -0.543   3.005  0.00  0.00    -0.355 N 
ATOM     29  C   UNL     1       4.964  -1.681   3.494  0.00  0.00    +0.061 A 
ATOM     30  C   UNL     1       5.510  -2.897   2.877  0.00  0.00    +0.027 A 
ATOM     31  C   UNL     1       5.846  -3.945   3.656  0.00  0.00    +0.002 A 
ATOM     32  C   UNL     1       5.697  -3.928   5.055  0.00  0.00    +0.002 A 
ATOM     33  C   UNL     1       5.207  -2.864   5.721  0.00  0.00    +0.027 A 
ATOM     34  C   UNL     1       4.806  -1.663   4.974  0.00  0.00    +0.061 A 
ATOM     35  N   UNL     1       4.313  -0.516   5.342  0.00  0.00    -0.355 N 
ATOM     36  H   UNL     1       4.557  -0.292   2.068  0.00  0.00    +0.162 HD
ATOM     37  H   UNL     1       4.112  -0.243   6.251  0.00  0.00    +0.162 HD
ENDBRANCH  26  27
ENDBRANCH  25  26
ENDBRANCH  14  25
TORSDOF 5
