REMARK  Name = ZINC09373293
REMARK  5 active torsions:
REMARK  status: ('A' for Active; 'I' for Inactive)
REMARK    1  A    between atoms: C_3  and  N_15
REMARK    2  A    between atoms: C_5  and  S_7
REMARK    3  A    between atoms: S_7  and  N_10
REMARK    4  A    between atoms: N_15  and  S_16
REMARK    5  A    between atoms: S_16  and  C_19
REMARK                            x       y       z     vdW  Elec       q    Type
REMARK                         _______ _______ _______ _____ _____    ______ ____
ROOT
ATOM      1  C   UNL     1       5.721   2.128  -2.796  0.00  0.00    +0.004 A 
ATOM      2  C   UNL     1       5.442   1.044  -1.987  0.00  0.00    +0.024 A 
ATOM      3  C   UNL     1       4.622   0.025  -2.454  0.00  0.00    +0.050 A 
ATOM      4  C   UNL     1       4.090   0.097  -3.735  0.00  0.00    +0.053 A 
ATOM      5  C   UNL     1       4.369   1.186  -4.536  0.00  0.00    +0.110 A 
ATOM      6  C   UNL     1       5.186   2.200  -4.069  0.00  0.00    +0.029 A 
ENDROOT
BRANCH   5   7
ATOM      7  S   UNL     1       3.690   1.281  -6.159  0.00  0.00    +0.073 S 
ATOM      8  O   UNL     1       2.520   0.474  -6.158  0.00  0.00    -0.150 OA
ATOM      9  O   UNL     1       3.665   2.659  -6.509  0.00  0.00    -0.150 OA
BRANCH   7  10
ATOM     10  N   UNL     1       4.767   0.553  -7.184  0.00  0.00    -0.205 N 
ATOM     11  C   UNL     1       5.022  -0.789  -7.070  0.00  0.00    +0.088 C 
ATOM     12  C   UNL     1       4.938  -2.950  -6.317  0.00  0.00    +0.114 C 
ATOM     13  C   UNL     1       6.223  -2.875  -7.175  0.00  0.00    +0.028 C 
ATOM     14  C   UNL     1       5.979  -1.557  -7.953  0.00  0.00    +0.072 C 
ATOM     15  H   UNL     1       5.217   1.075  -7.866  0.00  0.00    +0.175 HD
ATOM     16  N   UNL     1       4.462  -1.556  -6.187  0.00  0.00    -0.375 N 
ATOM     17  H   UNL     1       3.778  -1.239  -5.490  0.00  0.00    +0.161 HD
ENDBRANCH   7  10
ENDBRANCH   5   7
BRANCH   3  18
ATOM     18  N   UNL     1       4.338  -1.074  -1.639  0.00  0.00    -0.216 N 
ATOM     19  H   UNL     1       4.380  -1.972  -2.003  0.00  0.00    +0.174 HD
BRANCH  18  20
ATOM     20  S   UNL     1       3.931  -0.843  -0.050  0.00  0.00    +0.072 S 
ATOM     21  O   UNL     1       4.904   0.039   0.494  0.00  0.00    -0.150 OA
ATOM     22  O   UNL     1       3.679  -2.130   0.496  0.00  0.00    -0.150 OA
BRANCH  20  23
ATOM     23  C   UNL     1       2.397   0.024  -0.026  0.00  0.00    +0.112 A 
ATOM     24  C   UNL     1       1.207  -0.680  -0.016  0.00  0.00    +0.032 A 
ATOM     25  C   UNL     1       0.002  -0.004   0.002  0.00  0.00    +0.051 A 
ATOM     26  C   UNL     1      -0.017   1.383   0.010  0.00  0.00    +0.162 A 
ATOM     27  C   UNL     1       1.179   2.090   0.002  0.00  0.00    +0.164 A 
ATOM     28  C   UNL     1       2.386   1.406  -0.017  0.00  0.00    +0.078 A 
ATOM     29  O   UNL     1       1.184   3.451   0.018  0.00  0.00    -0.485 OA
ATOM     30  C   UNL     1      -0.040   4.103  -0.340  0.00  0.00    +0.270 C 
ATOM     31  C   UNL     1      -1.189   3.413   0.408  0.00  0.00    +0.270 C 
ATOM     32  O   UNL     1      -1.212   2.035   0.019  0.00  0.00    -0.485 OA
ENDBRANCH  20  23
ENDBRANCH  18  20
ENDBRANCH   3  18
TORSDOF 5
