REMARK  Name = ZINC13021168
REMARK  7 active torsions:
REMARK  status: ('A' for Active; 'I' for Inactive)
REMARK    1  A    between atoms: C_1  and  C_2
REMARK    2  A    between atoms: C_2  and  C_3
REMARK    3  A    between atoms: C_2  and  C_4
REMARK    4  A    between atoms: C_7  and  C_10
REMARK    5  A    between atoms: C_12  and  C_15
REMARK    6  A    between atoms: N_17  and  N_18
REMARK    7  A    between atoms: C_19  and  C_21
REMARK                            x       y       z     vdW  Elec       q    Type
REMARK                         _______ _______ _______ _____ _____    ______ ____
ROOT
ATOM      1  C   UNL     1       1.116   3.466   0.009  0.00  0.00    +0.279 C 
ATOM      2  O   UNL     1       2.166   4.079   0.002  0.00  0.00    -0.267 OA
ATOM      3  N   UNL     1      -0.055   4.134   0.024  0.00  0.00    -0.229 N 
ATOM      4  H   UNL     1      -0.892   3.645   0.030  0.00  0.00    +0.173 HD
ENDROOT
BRANCH   1   7
ATOM      5  C   UNL     1       0.002  -0.004   0.002  0.00  0.00    +0.109 A 
ATOM      6  N   UNL     1      -0.016   1.316   0.009  0.00  0.00    -0.234 NA
ATOM      7  C   UNL     1       1.123   1.993   0.002  0.00  0.00    +0.135 A 
ATOM      8  C   UNL     1       2.310   1.303  -0.013  0.00  0.00    +0.080 A 
ATOM      9  S   UNL     1       1.755  -0.343  -0.017  0.00  0.00    -0.075 S 
BRANCH   5  13
ATOM     10  C   UNL     1      -3.256  -2.730   0.020  0.00  0.00    -0.045 A 
ATOM     11  C   UNL     1      -1.958  -3.208   0.005  0.00  0.00    +0.004 A 
ATOM     12  C   UNL     1      -0.895  -2.328  -0.001  0.00  0.00    +0.011 A 
ATOM     13  C   UNL     1      -1.132  -0.953   0.009  0.00  0.00    +0.007 A 
ATOM     14  C   UNL     1      -2.444  -0.477   0.030  0.00  0.00    +0.011 A 
ATOM     15  C   UNL     1      -3.498  -1.368   0.031  0.00  0.00    +0.004 A 
BRANCH  10  17
ATOM     16  C   UNL     1      -5.253  -3.478   1.286  0.00  0.00    +0.012 C 
ATOM     17  C   UNL     1      -4.412  -3.697   0.027  0.00  0.00    +0.013 C 
ATOM     18  C   UNL     1      -5.278  -3.465  -1.212  0.00  0.00    +0.012 C 
ENDBRANCH  10  17
ENDBRANCH   5  13
ENDBRANCH   1   7
BRANCH   3  19
ATOM     19  N   UNL     1      -0.061   5.535   0.032  0.00  0.00    -0.229 N 
ATOM     20  C   UNL     1      -1.232   6.203   0.046  0.00  0.00    +0.281 C 
ATOM     21  O   UNL     1      -2.282   5.590   0.053  0.00  0.00    -0.267 OA
ATOM     22  H   UNL     1       0.776   6.024   0.026  0.00  0.00    +0.173 HD
BRANCH  20  23
ATOM     23  C   UNL     1      -1.239   7.679   0.054  0.00  0.00    +0.155 A 
ATOM     24  C   UNL     1      -2.512   8.418   0.064  0.00  0.00    +0.020 A 
ATOM     25  C   UNL     1      -3.750   7.785   0.079  0.00  0.00    +0.011 A 
ATOM     26  C   UNL     1      -4.899   8.546   0.094  0.00  0.00    +0.001 A 
ATOM     27  C   UNL     1      -4.833   9.933   0.100  0.00  0.00    +0.001 A 
ATOM     28  C   UNL     1      -3.616  10.581   0.092  0.00  0.00    +0.014 A 
ATOM     29  C   UNL     1      -2.445   9.830   0.077  0.00  0.00    +0.050 A 
ATOM     30  C   UNL     1      -1.107  10.439   0.067  0.00  0.00    +0.272 A 
ATOM     31  O   UNL     1      -0.973  11.649   0.072  0.00  0.00    -0.266 OA
ATOM     32  N   UNL     1      -0.031   9.625   0.052  0.00  0.00    -0.242 N 
ATOM     33  H   UNL     1       0.850  10.030   0.045  0.00  0.00    +0.192 HD
ATOM     34  N   UNL     1      -0.111   8.348   0.046  0.00  0.00    -0.166 NA
ENDBRANCH  20  23
ENDBRANCH   3  19
TORSDOF 5
