REMARK  Name = ZINC43579607
REMARK  3 active torsions:
REMARK  status: ('A' for Active; 'I' for Inactive)
REMARK    1  A    between atoms: C_6  and  C_7
REMARK    2  A    between atoms: N_9  and  C_10
REMARK    3  A    between atoms: C_15  and  N_16
REMARK                            x       y       z     vdW  Elec       q    Type
REMARK                         _______ _______ _______ _____ _____    ______ ____
ROOT
ATOM      1  C   UNL     1      -1.265  -0.764   0.009  0.00  0.00    +0.248 C 
ATOM      2  O   UNL     1      -2.327  -0.173   0.007  0.00  0.00    -0.270 OA
ATOM      3  N   UNL     1      -1.244  -2.111   0.005  0.00  0.00    -0.280 N 
ATOM      4  H   UNL     1      -0.400  -2.583  -0.075  0.00  0.00    +0.155 HD
ENDROOT
BRANCH   1  10
ATOM      5  C   UNL     1      -0.016   1.391   0.017  0.00  0.00    +0.014 A 
ATOM      6  C   UNL     1       1.171   2.095   0.022  0.00  0.00    +0.019 A 
ATOM      7  C   UNL     1       2.379   1.420   0.023  0.00  0.00    +0.053 A 
ATOM      8  C   UNL     1       2.406   0.034   0.020  0.00  0.00    +0.138 A 
ATOM      9  C   UNL     1       1.224  -0.682   0.015  0.00  0.00    +0.052 A 
ATOM     10  C   UNL     1       0.003  -0.005   0.013  0.00  0.00    +0.040 A 
ATOM     11  F   UNL     1       3.589  -0.619   0.021  0.00  0.00    -0.204 F 
ATOM     12 BR   UNL     1       4.001   2.394   0.029  0.00  0.00    -0.047 Br
ENDBRANCH   1  10
BRANCH   3  13
ATOM     13  C   UNL     1      -2.439  -2.830   0.118  0.00  0.00    +0.064 A 
ATOM     14  C   UNL     1      -3.541  -2.255   0.738  0.00  0.00    +0.028 A 
ATOM     15  C   UNL     1      -4.720  -2.966   0.848  0.00  0.00    +0.040 A 
ATOM     16  C   UNL     1      -4.804  -4.252   0.340  0.00  0.00    +0.126 A 
ATOM     17  C   UNL     1      -3.707  -4.827  -0.279  0.00  0.00    +0.073 A 
ATOM     18  C   UNL     1      -2.528  -4.117  -0.395  0.00  0.00    +0.150 A 
ATOM     19  F   UNL     1      -5.958  -4.946   0.448  0.00  0.00    -0.205 F 
BRANCH  18  20
ATOM     20  N   UNL     1      -1.357  -4.731  -1.062  0.00  0.00    +0.058 N 
ATOM     21  O   UNL     1      -1.460  -5.815  -1.587  0.00  0.00    -0.126 OA
ATOM     22  O   UNL     1      -0.298  -4.148  -1.082  0.00  0.00    -0.126 OA
ENDBRANCH  18  20
ENDBRANCH   3  13
TORSDOF 3
