REMARK  Name = ZINC04027654
REMARK  6 active torsions:
REMARK  status: ('A' for Active; 'I' for Inactive)
REMARK    1  A    between atoms: C_1  and  C_2
REMARK    2  A    between atoms: C_5  and  C_14
REMARK    3  A    between atoms: C_6  and  C_8
REMARK    4  A    between atoms: C_6  and  O_9
REMARK    5  A    between atoms: C_11  and  C_12
REMARK    6  A    between atoms: C_11  and  O_13
REMARK                            x       y       z     vdW  Elec       q    Type
REMARK                         _______ _______ _______ _____ _____    ______ ____
ROOT
ATOM      1  C   UNL     1      -0.019   1.526   0.010  0.00  0.00    +0.047 C 
ATOM      2  C   UNL     1       0.002  -0.004   0.002  0.00  0.00    +0.123 C 
ATOM      3  C   UNL     1       0.724  -0.513  -1.253  0.00  0.00    +0.043 C 
ATOM      4  C   UNL     1       0.746  -2.075  -1.191  0.00  0.00    +0.043 C 
ATOM      5  C   UNL     1       0.026  -2.503   0.095  0.00  0.00    +0.123 C 
ATOM      6  C   UNL     1      -1.401  -1.942   0.085  0.00  0.00    +0.194 C 
ATOM      7  O   UNL     1      -1.337  -0.513   0.020  0.00  0.00    -0.335 OA
ATOM      8  C   UNL     1      -2.127  -2.365   1.364  0.00  0.00    +0.077 C 
ATOM      9  O   UNL     1       0.728  -1.958   1.218  0.00  0.00    -0.335 OA
ATOM     10  C   UNL     1       0.742  -0.527   1.240  0.00  0.00    +0.194 C 
ATOM     11  C   UNL     1       0.041  -0.026   2.505  0.00  0.00    +0.077 C 
ATOM     12  C   UNL     1      -0.011  -4.030   0.191  0.00  0.00    +0.047 C 
ENDROOT
BRANCH   6  13
ATOM     13  O   UNL     1      -2.104  -2.442  -1.054  0.00  0.00    -0.363 OA
ATOM     14  H   UNL     1      -3.015  -2.126  -1.124  0.00  0.00    +0.213 HD
ENDBRANCH   6  13
BRANCH  10  15
ATOM     15  O   UNL     1       2.092  -0.061   1.223  0.00  0.00    -0.363 OA
ATOM     16  H   UNL     1       2.619  -0.354   1.979  0.00  0.00    +0.213 HD
ENDBRANCH  10  15
TORSDOF 2
