REMARK  Name = ZINC08839589
REMARK  5 active torsions:
REMARK  status: ('A' for Active; 'I' for Inactive)
REMARK    1  A    between atoms: C_10  and  C_11
REMARK    2  A    between atoms: C_11  and  N_12
REMARK    3  A    between atoms: N_15  and  C_16
REMARK    4  A    between atoms: C_16  and  C_17
REMARK    5  A    between atoms: N_20  and  C_24
REMARK                            x       y       z     vdW  Elec       q    Type
REMARK                         _______ _______ _______ _____ _____    ______ ____
ROOT
ATOM      1  N   UNL     1      -1.952   6.022   1.414  0.00  0.00    -0.295 N 
ATOM      2  C   UNL     1      -3.123   6.637   1.671  0.00  0.00    +0.300 C 
ATOM      3  O   UNL     1      -3.741   7.170   0.770  0.00  0.00    -0.253 OA
ATOM      4  N   UNL     1      -3.610   6.660   2.928  0.00  0.00    -0.296 N 
ATOM      5  H   UNL     1      -1.459   5.596   2.133  0.00  0.00    +0.151 HD
ATOM      6  H   UNL     1      -3.118   6.235   3.647  0.00  0.00    +0.150 HD
ENDROOT
BRANCH   1   7
ATOM      7  C   UNL     1      -1.422   5.996   0.048  0.00  0.00    +0.141 C 
BRANCH   7  17
ATOM      8  C   UNL     1      -0.013   1.076   0.008  0.00  0.00    +0.001 A 
ATOM      9  C   UNL     1      -1.235   1.746   0.018  0.00  0.00    +0.001 A 
ATOM     10  C   UNL     1      -1.289   3.105   0.031  0.00  0.00    +0.009 A 
ATOM     11  C   UNL     1      -0.096   3.849   0.024  0.00  0.00    -0.013 A 
ATOM     12  C   UNL     1       1.147   3.167   0.008  0.00  0.00    -0.018 A 
ATOM     13  C   UNL     1       1.163   1.762   0.000  0.00  0.00    +0.008 A 
ATOM     14  C   UNL     1       2.340   3.910   0.000  0.00  0.00    +0.008 A 
ATOM     15  C   UNL     1       2.286   5.271   0.008  0.00  0.00    +0.001 A 
ATOM     16  C   UNL     1       1.064   5.940   0.023  0.00  0.00    +0.006 A 
ATOM     17  C   UNL     1      -0.111   5.253   0.032  0.00  0.00    -0.023 A 
ENDBRANCH   7  17
ENDBRANCH   1   7
BRANCH   4  18
ATOM     18  C   UNL     1      -4.884   7.329   3.207  0.00  0.00    +0.152 C 
BRANCH  18  19
ATOM     19  C   UNL     1      -5.205   7.210   4.698  0.00  0.00    +0.213 C 
ATOM     20  C   UNL     1      -6.565   7.864   5.011  0.00  0.00    +0.163 C 
ATOM     21  N   UNL     1      -7.376   6.753   5.532  0.00  0.00    -0.234 N 
ATOM     22  C   UNL     1      -6.635   5.637   5.531  0.00  0.00    +0.408 C 
ATOM     23  O   UNL     1      -7.055   4.562   5.911  0.00  0.00    -0.226 OA
ATOM     24  O   UNL     1      -5.387   5.814   5.072  0.00  0.00    -0.444 OA
BRANCH  21  25
ATOM     25  C   UNL     1      -8.705   6.847   5.960  0.00  0.00    +0.041 A 
ATOM     26  C   UNL     1      -9.366   8.069   5.917  0.00  0.00    +0.024 A 
ATOM     27  C   UNL     1     -10.679   8.158   6.335  0.00  0.00    +0.003 A 
ATOM     28  C   UNL     1     -11.334   7.034   6.806  0.00  0.00    +0.020 A 
ATOM     29  C   UNL     1     -10.678   5.817   6.855  0.00  0.00    +0.043 A 
ATOM     30  C   UNL     1      -9.365   5.721   6.433  0.00  0.00    +0.043 A 
ATOM     31 CL   UNL     1     -11.504   4.410   7.447  0.00  0.00    -0.083 Cl
ENDBRANCH  21  25
ENDBRANCH  18  19
ENDBRANCH   4  18
TORSDOF 5
