REMARK  Name = ZINC18370434
REMARK  9 active torsions:
REMARK  status: ('A' for Active; 'I' for Inactive)
REMARK    1  A    between atoms: C_1  and  C_2
REMARK    2  A    between atoms: C_2  and  C_4
REMARK    3  A    between atoms: C_2  and  O_16
REMARK    4  A    between atoms: O_16  and  C_17
REMARK    5  A    between atoms: C_17  and  C_19
REMARK    6  A    between atoms: C_22  and  S_25
REMARK    7  A    between atoms: S_25  and  N_28
REMARK    8  A    between atoms: N_28  and  C_29
REMARK    9  A    between atoms: N_28  and  C_30
REMARK                            x       y       z     vdW  Elec       q    Type
REMARK                         _______ _______ _______ _____ _____    ______ ____
ROOT
ATOM      1  C   UNL     1      -1.924  -0.704  -1.184  0.00  0.00    +0.340 C 
ATOM      2  O   UNL     1      -1.313  -0.469  -2.207  0.00  0.00    -0.245 OA
ENDROOT
BRANCH   1   3
ATOM      3  C   UNL     1      -3.308  -1.214  -1.250  0.00  0.00    +0.059 A 
ATOM      4  C   UNL     1      -4.016  -1.479  -0.076  0.00  0.00    +0.017 A 
ATOM      5  C   UNL     1      -5.308  -1.956  -0.146  0.00  0.00    +0.029 A 
ATOM      6  C   UNL     1      -5.904  -2.171  -1.376  0.00  0.00    +0.106 A 
ATOM      7  C   UNL     1      -5.209  -1.911  -2.544  0.00  0.00    +0.029 A 
ATOM      8  C   UNL     1      -3.918  -1.428  -2.488  0.00  0.00    +0.017 A 
BRANCH   6   9
ATOM      9  S   UNL     1      -7.556  -2.779  -1.456  0.00  0.00    +0.061 S 
ATOM     10  O   UNL     1      -7.695  -3.413  -2.720  0.00  0.00    -0.153 OA
ATOM     11  O   UNL     1      -7.798  -3.460  -0.232  0.00  0.00    -0.153 OA
BRANCH   9  12
ATOM     12  N   UNL     1      -8.562  -1.464  -1.472  0.00  0.00    -0.177 NA
ATOM     13  C   UNL     1      -8.955  -0.858  -2.747  0.00  0.00    +0.132 C 
BRANCH  12  14
ATOM     14  C   UNL     1      -9.060  -0.906  -0.212  0.00  0.00    +0.080 C 
ATOM     15  C   UNL     1     -10.588  -0.968  -0.195  0.00  0.00    +0.020 C 
ATOM     16  C   UNL     1     -11.108  -0.386   1.121  0.00  0.00    +0.002 C 
ATOM     17  C   UNL     1     -10.655   1.070   1.248  0.00  0.00    +0.000 C 
ATOM     18  C   UNL     1      -9.126   1.132   1.232  0.00  0.00    +0.002 C 
ATOM     19  C   UNL     1      -8.607   0.549  -0.085  0.00  0.00    +0.020 C 
ENDBRANCH  12  14
ENDBRANCH   9  12
ENDBRANCH   6   9
ENDBRANCH   1   3
BRANCH   1  20
ATOM     20  O   UNL     1      -1.339  -0.499   0.012  0.00  0.00    -0.450 OA
BRANCH  20  22
ATOM     21  C   UNL     1      -0.019   1.526   0.010  0.00  0.00    +0.060 C 
ATOM     22  C   UNL     1       0.002  -0.004   0.002  0.00  0.00    +0.239 C 
BRANCH  22  23
ATOM     23  C   UNL     1       0.731  -0.503   1.223  0.00  0.00    +0.151 A 
ATOM     24  N   UNL     1       1.133  -1.801   1.248  0.00  0.00    -0.307 N 
ATOM     25  H   UNL     1       0.947  -2.376   0.489  0.00  0.00    +0.170 HD
ATOM     26  C   UNL     1       1.792  -2.298   2.321  0.00  0.00    +0.259 A 
ATOM     27  O   UNL     1       2.158  -3.458   2.356  0.00  0.00    -0.267 OA
ATOM     28  C   UNL     1       2.047  -1.381   3.442  0.00  0.00    +0.065 A 
ATOM     29  C   UNL     1       2.717  -1.793   4.593  0.00  0.00    +0.015 A 
ATOM     30  C   UNL     1       2.929  -0.892   5.613  0.00  0.00    +0.001 A 
ATOM     31  C   UNL     1       2.482   0.418   5.503  0.00  0.00    +0.002 A 
ATOM     32  C   UNL     1       1.818   0.845   4.375  0.00  0.00    +0.028 A 
ATOM     33  C   UNL     1       1.591  -0.049   3.327  0.00  0.00    +0.078 A 
ATOM     34  N   UNL     1       0.947   0.330   2.195  0.00  0.00    -0.230 NA
ENDBRANCH  22  23
ENDBRANCH  20  22
ENDBRANCH   1  20
TORSDOF 7
