REMARK  Name = ZINC39699839
REMARK  5 active torsions:
REMARK  status: ('A' for Active; 'I' for Inactive)
REMARK    1  A    between atoms: N_15  and  N_16
REMARK    2  A    between atoms: C_17  and  C_18
REMARK    3  A    between atoms: C_21  and  O_24
REMARK    4  A    between atoms: O_24  and  C_25
REMARK    5  A    between atoms: C_25  and  C_27
REMARK                            x       y       z     vdW  Elec       q    Type
REMARK                         _______ _______ _______ _____ _____    ______ ____
ROOT
ATOM      1  N   UNL     1       4.615  -4.817   2.486  0.00  0.00    -0.188 NA
ATOM      2  C   UNL     1       5.029  -5.634   3.406  0.00  0.00    +0.138 C 
ENDROOT
BRANCH   1  16
ATOM      3  C   UNL     1       0.283   1.262  -0.632  0.00  0.00    +0.001 A 
ATOM      4  C   UNL     1       1.480   1.990  -0.676  0.00  0.00    +0.002 A 
ATOM      5  C   UNL     1       2.687   1.380  -0.635  0.00  0.00    +0.026 A 
ATOM      6  C   UNL     1       2.747  -0.084  -0.541  0.00  0.00    +0.046 A 
ATOM      7  N   UNL     1       3.760  -0.913  -0.455  0.00  0.00    -0.358 N 
ATOM      8  C   UNL     1       3.257  -2.276  -0.512  0.00  0.00    +0.253 C 
ATOM      9  C   UNL     1       1.748  -2.165  -0.381  0.00  0.00    +0.115 C 
ATOM     10  C   UNL     1       1.462  -0.825  -0.484  0.00  0.00    +0.025 A 
ATOM     11  C   UNL     1       0.257  -0.087  -0.540  0.00  0.00    +0.012 A 
ATOM     12  N   UNL     1       0.990  -3.222  -0.079  0.00  0.00    -0.171 NA
ATOM     13  N   UNL     1       1.581  -4.158   0.601  0.00  0.00    -0.247 N 
ATOM     14  C   UNL     1       2.860  -4.036   1.033  0.00  0.00    +0.227 C 
ATOM     15  N   UNL     1       3.707  -3.143   0.575  0.00  0.00    -0.220 NA
ATOM     16  N   UNL     1       3.300  -4.906   2.010  0.00  0.00    -0.206 N 
ATOM     17  H   UNL     1       2.699  -5.578   2.368  0.00  0.00    +0.177 HD
ATOM     18  H   UNL     1       1.091  -4.969   0.807  0.00  0.00    +0.192 HD
ATOM     19  H   UNL     1       4.692  -0.659  -0.367  0.00  0.00    +0.162 HD
ENDBRANCH   1  16
BRANCH   2  20
ATOM     20  C   UNL     1       6.412  -5.541   3.907  0.00  0.00    -0.005 A 
ATOM     21  C   UNL     1       7.277  -4.569   3.398  0.00  0.00    +0.013 A 
ATOM     22  C   UNL     1       8.569  -4.484   3.870  0.00  0.00    +0.047 A 
ATOM     23  C   UNL     1       9.012  -5.364   4.849  0.00  0.00    +0.132 A 
ATOM     24  C   UNL     1       8.155  -6.332   5.358  0.00  0.00    +0.047 A 
ATOM     25  C   UNL     1       6.860  -6.420   4.897  0.00  0.00    +0.013 A 
BRANCH  23  26
ATOM     26  O   UNL     1      10.287  -5.278   5.311  0.00  0.00    -0.422 OA
BRANCH  26  27
ATOM     27  C   UNL     1      10.620  -4.205   6.054  0.00  0.00    +0.344 C 
ATOM     28  O   UNL     1       9.766  -3.404   6.381  0.00  0.00    -0.245 OA
BRANCH  27  29
ATOM     29  C   UNL     1      12.021  -4.001   6.472  0.00  0.00    +0.059 A 
ATOM     30  C   UNL     1      13.006  -4.916   6.092  0.00  0.00    +0.016 A 
ATOM     31  C   UNL     1      14.313  -4.720   6.485  0.00  0.00    +0.016 A 
ATOM     32  C   UNL     1      14.650  -3.619   7.255  0.00  0.00    +0.018 A 
ATOM     33  C   UNL     1      13.679  -2.708   7.634  0.00  0.00    +0.016 A 
ATOM     34  C   UNL     1      12.369  -2.889   7.242  0.00  0.00    +0.016 A 
ATOM     35 BR   UNL     1      16.445  -3.359   7.790  0.00  0.00    -0.050 Br
ENDBRANCH  27  29
ENDBRANCH  26  27
ENDBRANCH  23  26
ENDBRANCH   2  20
TORSDOF 5
