REMARK  Name = ZINC14461235
REMARK  6 active torsions:
REMARK  status: ('A' for Active; 'I' for Inactive)
REMARK    1  A    between atoms: C_6  and  S_7
REMARK    2  A    between atoms: S_7  and  N_10
REMARK    3  A    between atoms: N_10  and  C_11
REMARK    4  A    between atoms: C_11  and  C_12
REMARK    5  A    between atoms: C_25  and  C_28
REMARK    6  A    between atoms: C_33  and  O_34
REMARK                            x       y       z     vdW  Elec       q    Type
REMARK                         _______ _______ _______ _____ _____    ______ ____
ROOT
ATOM      1  C   UNL     1       4.907   2.883   1.397  0.00  0.00    +0.030 A 
ATOM      2  C   UNL     1       5.911   2.439   2.234  0.00  0.00    +0.025 A 
ATOM      3  C   UNL     1       6.604   1.274   1.932  0.00  0.00    +0.031 A 
ATOM      4  C   UNL     1       6.293   0.546   0.793  0.00  0.00    -0.018 A 
ATOM      5  C   UNL     1       5.279   1.000  -0.038  0.00  0.00    +0.034 A 
ATOM      6  C   UNL     1       4.590   2.157   0.263  0.00  0.00    +0.106 A 
ATOM      7  C   UNL     1       7.011  -0.714   0.428  0.00  0.00    +0.049 C 
ATOM      8  C   UNL     1       6.161  -1.931   0.704  0.00  0.00    -0.023 C 
ATOM      9  C   UNL     1       6.908  -2.920   1.130  0.00  0.00    -0.030 C 
ATOM     10  C   UNL     1       8.364  -2.498   1.190  0.00  0.00    +0.033 C 
ATOM     11  C   UNL     1       8.286  -0.945   1.263  0.00  0.00    +0.029 C 
ATOM     12  C   UNL     1       8.029  -0.569   2.725  0.00  0.00    +0.108 C 
ATOM     13  N   UNL     1       7.620   0.838   2.789  0.00  0.00    -0.336 N 
ATOM     14  H   UNL     1       8.043   1.451   3.411  0.00  0.00    +0.147 HD
ENDROOT
BRANCH  12  15
ATOM     15  C   UNL     1       6.933  -1.439   3.284  0.00  0.00    +0.015 A 
ATOM     16  C   UNL     1       5.614  -1.046   3.173  0.00  0.00    +0.024 A 
ATOM     17  C   UNL     1       4.607  -1.843   3.687  0.00  0.00    +0.018 A 
ATOM     18  C   UNL     1       4.920  -3.037   4.314  0.00  0.00    +0.019 A 
ATOM     19  C   UNL     1       6.238  -3.434   4.426  0.00  0.00    +0.047 A 
ATOM     20  C   UNL     1       7.249  -2.638   3.907  0.00  0.00    +0.122 A 
ATOM     21 BR   UNL     1       2.802  -1.302   3.534  0.00  0.00    -0.050 Br
BRANCH  20  22
ATOM     22  O   UNL     1       8.546  -3.029   4.012  0.00  0.00    -0.506 OA
ATOM     23  H   UNL     1       8.985  -2.723   4.818  0.00  0.00    +0.292 HD
ENDBRANCH  20  22
ENDBRANCH  12  15
BRANCH   6  24
ATOM     24  S   UNL     1       3.305   2.716  -0.805  0.00  0.00    +0.058 S 
ATOM     25  O   UNL     1       3.571   2.162  -2.086  0.00  0.00    -0.153 OA
ATOM     26  O   UNL     1       3.179   4.116  -0.592  0.00  0.00    -0.153 OA
BRANCH  24  27
ATOM     27  N   UNL     1       1.894   2.029  -0.276  0.00  0.00    -0.187 NA
ATOM     28  H   UNL     1       1.423   1.394  -0.838  0.00  0.00    +0.148 HD
BRANCH  27  29
ATOM     29  C   UNL     1       1.357   2.380   1.041  0.00  0.00    +0.137 C 
BRANCH  29  30
ATOM     30  C   UNL     1      -0.099   1.921   1.137  0.00  0.00    +0.134 C 
ATOM     31  C   UNL     1      -0.697   2.314   2.511  0.00  0.00    +0.035 C 
ATOM     32  C   UNL     1      -2.213   2.370   2.165  0.00  0.00    +0.031 C 
ATOM     33  C   UNL     1      -2.199   2.886   0.710  0.00  0.00    +0.160 C 
ATOM     34  O   UNL     1      -0.903   2.608   0.165  0.00  0.00    -0.375 OA
ENDBRANCH  29  30
ENDBRANCH  27  29
ENDBRANCH  24  27
ENDBRANCH   6  24
TORSDOF 6
