REMARK  Name = ZINC20833102
REMARK  9 active torsions:
REMARK  status: ('A' for Active; 'I' for Inactive)
REMARK    1  A    between atoms: C_3  and  S_29
REMARK    2  A    between atoms: C_6  and  N_7
REMARK    3  A    between atoms: C_8  and  C_10
REMARK    4  A    between atoms: C_10  and  C_11
REMARK    5  A    between atoms: C_11  and  S_12
REMARK    6  A    between atoms: S_12  and  C_13
REMARK    7  A    between atoms: N_18  and  N_19
REMARK    8  A    between atoms: C_20  and  C_21
REMARK    9  A    between atoms: S_29  and  N_32
REMARK                            x       y       z     vdW  Elec       q    Type
REMARK                         _______ _______ _______ _____ _____    ______ ____
ROOT
ATOM      1  S   UNL     1      -0.883   1.698  -1.462  0.00  0.00    -0.084 S 
ENDROOT
BRANCH   1   2
ATOM      2  C   UNL     1       0.049   1.049  -2.809  0.00  0.00    +0.210 A 
ATOM      3  N   UNL     1      -0.220   1.238  -4.135  0.00  0.00    -0.186 NA
ATOM      4  C   UNL     1       0.733   0.575  -4.858  0.00  0.00    +0.232 A 
ATOM      5  N   UNL     1       1.555   0.001  -4.013  0.00  0.00    -0.245 N 
ATOM      6  N   UNL     1       1.125   0.305  -2.715  0.00  0.00    -0.144 NA
ATOM      7  N   UNL     1       0.815   0.519  -6.242  0.00  0.00    -0.205 N 
ATOM      8  H   UNL     1       0.067   1.040  -6.858  0.00  0.00    +0.177 HD
ATOM      9  H   UNL     1       2.402  -0.594  -4.388  0.00  0.00    +0.192 HD
BRANCH   7  10
ATOM     10  N   UNL     1       1.849  -0.201  -6.854  0.00  0.00    -0.188 NA
ATOM     11  C   UNL     1       1.925  -0.254  -8.149  0.00  0.00    +0.139 C 
BRANCH  11  12
ATOM     12  C   UNL     1       3.014  -1.012  -8.793  0.00  0.00    +0.013 A 
ATOM     13  C   UNL     1       3.099  -1.070 -10.186  0.00  0.00    +0.012 A 
ATOM     14  C   UNL     1       4.119  -1.780 -10.783  0.00  0.00    +0.021 A 
ATOM     15  C   UNL     1       5.059  -2.436 -10.004  0.00  0.00    +0.042 A 
ATOM     16  C   UNL     1       4.981  -2.383  -8.622  0.00  0.00    +0.040 A 
ATOM     17  C   UNL     1       3.968  -1.670  -8.012  0.00  0.00    +0.051 A 
ATOM     18 CL   UNL     1       3.876  -1.598  -6.280  0.00  0.00    -0.083 Cl
ATOM     19 CL   UNL     1       6.340  -3.328 -10.763  0.00  0.00    -0.083 Cl
ENDBRANCH  11  12
ENDBRANCH   7  10
ENDBRANCH   1   2
BRANCH   1  20
ATOM     20  C   UNL     1      -0.011   1.088   0.008  0.00  0.00    +0.086 C 
BRANCH  20  21
ATOM     21  C   UNL     1      -0.725   1.585   1.267  0.00  0.00    +0.107 C 
BRANCH  21  23
ATOM     22  N   UNL     1      -0.453   1.393   3.718  0.00  0.00    -0.285 N 
ATOM     23  C   UNL     1      -0.001   1.079   2.488  0.00  0.00    +0.218 C 
ATOM     24  O   UNL     1       0.989   0.389   2.363  0.00  0.00    -0.275 OA
ATOM     25  H   UNL     1      -1.304   2.080   3.832  0.00  0.00    +0.155 HD
BRANCH  22  31
ATOM     26  C   UNL     1      -0.599   0.529   5.969  0.00  0.00    +0.025 A 
ATOM     27  C   UNL     1       0.009  -0.018   7.082  0.00  0.00    +0.030 A 
ATOM     28  C   UNL     1       1.373  -0.240   7.088  0.00  0.00    +0.105 A 
ATOM     29  C   UNL     1       2.133   0.079   5.977  0.00  0.00    +0.030 A 
ATOM     30  C   UNL     1       1.531   0.621   4.859  0.00  0.00    +0.025 A 
ATOM     31  C   UNL     1       0.160   0.845   4.850  0.00  0.00    +0.033 A 
BRANCH  28  32
ATOM     32  S   UNL     1       2.146  -0.930   8.513  0.00  0.00    +0.056 S 
ATOM     33  O   UNL     1       1.139  -1.646   9.214  0.00  0.00    -0.153 OA
ATOM     34  O   UNL     1       3.347  -1.545   8.066  0.00  0.00    -0.153 OA
BRANCH  32  35
ATOM     35  N   UNL     1       2.595   0.332   9.486  0.00  0.00    -0.204 NA
ATOM     36  H   UNL     1       3.083  -0.058  10.392  0.00  0.00    +0.144 HD
ATOM     37  H   UNL     1       1.703   0.910   9.771  0.00  0.00    +0.144 HD
ENDBRANCH  32  35
ENDBRANCH  28  32
ENDBRANCH  22  31
ENDBRANCH  21  23
ENDBRANCH  20  21
ENDBRANCH   1  20
TORSDOF 9
