REMARK  Name = ZINC08219474
REMARK  10 active torsions:
REMARK  status: ('A' for Active; 'I' for Inactive)
REMARK    1  A    between atoms: C_1  and  C_2
REMARK    2  A    between atoms: C_2  and  C_3
REMARK    3  A    between atoms: C_2  and  C_4
REMARK    4  A    between atoms: C_2  and  N_5
REMARK    5  A    between atoms: C_7  and  C_12
REMARK    6  A    between atoms: N_14  and  C_15
REMARK    7  A    between atoms: C_20  and  C_21
REMARK    8  A    between atoms: N_23  and  C_24
REMARK    9  A    between atoms: C_27  and  O_30
REMARK   10  A    between atoms: O_30  and  C_31
REMARK                            x       y       z     vdW  Elec       q    Type
REMARK                         _______ _______ _______ _____ _____    ______ ____
ROOT
ATOM      1  C   UNL     1       0.978  -1.866   3.839  0.00  0.00    +0.046 A 
ATOM      2  C   UNL     1       1.793  -1.088   4.651  0.00  0.00    +0.024 A 
ATOM      3  C   UNL     1       1.935  -1.398   5.988  0.00  0.00    +0.002 A 
ATOM      4  C   UNL     1       1.267  -2.484   6.531  0.00  0.00    +0.001 A 
ATOM      5  C   UNL     1       0.455  -3.268   5.740  0.00  0.00    +0.015 A 
ATOM      6  C   UNL     1       0.298  -2.964   4.386  0.00  0.00    +0.058 A 
ENDROOT
BRANCH   1   9
ATOM      7  C   UNL     1       1.877  -1.057   1.796  0.00  0.00    +0.222 C 
ATOM      8  O   UNL     1       2.917  -0.803   2.366  0.00  0.00    -0.275 OA
ATOM      9  N   UNL     1       0.834  -1.555   2.489  0.00  0.00    -0.285 N 
ATOM     10  H   UNL     1      -0.018  -1.696   2.047  0.00  0.00    +0.155 HD
BRANCH   7  13
ATOM     11  N   UNL     1       2.700   1.329  -0.186  0.00  0.00    -0.296 N 
ATOM     12  C   UNL     1       3.007  -0.105  -0.239  0.00  0.00    +0.121 C 
ATOM     13  C   UNL     1       1.752  -0.817   0.314  0.00  0.00    +0.101 C 
ATOM     14  C   UNL     1       0.644   0.220   0.013  0.00  0.00    +0.110 C 
ATOM     15  C   UNL     1       1.379   1.540  -0.050  0.00  0.00    +0.217 C 
ATOM     16  O   UNL     1       0.853   2.631   0.008  0.00  0.00    -0.276 OA
BRANCH  11  18
ATOM     17  C   UNL     1       3.011   3.754  -0.179  0.00  0.00    +0.031 C 
ATOM     18  C   UNL     1       3.703   2.393  -0.270  0.00  0.00    +0.029 C 
ATOM     19  C   UNL     1       4.698   2.248   0.883  0.00  0.00    +0.031 C 
ATOM     20  C   UNL     1       4.448   2.287  -1.602  0.00  0.00    +0.031 C 
ENDBRANCH  11  18
ENDBRANCH   7  13
ENDBRANCH   1   9
BRANCH   6  21
ATOM     21  C   UNL     1      -0.575  -3.794   3.536  0.00  0.00    +0.250 C 
ATOM     22  O   UNL     1      -0.632  -3.589   2.338  0.00  0.00    -0.270 OA
ATOM     23  N   UNL     1      -1.310  -4.781   4.086  0.00  0.00    -0.281 N 
ATOM     24  H   UNL     1      -1.216  -4.988   5.029  0.00  0.00    +0.155 HD
BRANCH  23  25
ATOM     25  C   UNL     1      -2.210  -5.507   3.296  0.00  0.00    +0.034 A 
ATOM     26  C   UNL     1      -3.408  -5.954   3.839  0.00  0.00    +0.027 A 
ATOM     27  C   UNL     1      -4.297  -6.665   3.058  0.00  0.00    +0.047 A 
ATOM     28  C   UNL     1      -3.990  -6.942   1.734  0.00  0.00    +0.120 A 
ATOM     29  C   UNL     1      -2.791  -6.502   1.192  0.00  0.00    +0.047 A 
ATOM     30  C   UNL     1      -1.903  -5.785   1.970  0.00  0.00    +0.027 A 
BRANCH  28  31
ATOM     31  O   UNL     1      -4.864  -7.647   0.967  0.00  0.00    -0.495 OA
ATOM     32  C   UNL     1      -6.078  -8.070   1.589  0.00  0.00    +0.277 C 
ENDBRANCH  28  31
ENDBRANCH  23  25
ENDBRANCH   6  21
TORSDOF 6
