REMARK  Name = ZINC09559611
REMARK  8 active torsions:
REMARK  status: ('A' for Active; 'I' for Inactive)
REMARK    1  A    between atoms: C_5  and  S_7
REMARK    2  A    between atoms: S_7  and  N_10
REMARK    3  A    between atoms: C_14  and  C_17
REMARK    4  A    between atoms: N_19  and  C_20
REMARK    5  A    between atoms: C_20  and  C_21
REMARK    6  A    between atoms: C_21  and  C_22
REMARK    7  A    between atoms: C_25  and  S_28
REMARK    8  A    between atoms: S_28  and  N_31
REMARK                            x       y       z     vdW  Elec       q    Type
REMARK                         _______ _______ _______ _____ _____    ______ ____
ROOT
ATOM      1  N   UNL     1      -0.020   1.652   0.011  0.00  0.00    -0.176 NA
ATOM      2  C   UNL     1       1.234   2.417   0.003  0.00  0.00    +0.109 C 
ATOM      3  C   UNL     1       1.217   3.403   1.176  0.00  0.00    +0.018 C 
ATOM      4  C   UNL     1      -0.046   4.264   1.096  0.00  0.00    +0.015 C 
ATOM      5  C   UNL     1      -1.283   3.369   1.199  0.00  0.00    +0.091 C 
ATOM      6  C   UNL     1      -1.295   2.383   0.021  0.00  0.00    +0.122 C 
ENDROOT
BRANCH   5   7
ATOM      7  C   UNL     1      -2.525   4.221   1.153  0.00  0.00    +0.217 C 
ATOM      8  O   UNL     1      -3.342   4.055   0.272  0.00  0.00    -0.275 OA
ATOM      9  N   UNL     1      -2.729   5.167   2.091  0.00  0.00    -0.315 N 
ATOM     10  H   UNL     1      -2.076   5.299   2.796  0.00  0.00    +0.149 HD
BRANCH   9  11
ATOM     11  C   UNL     1      -3.937   5.995   2.047  0.00  0.00    +0.109 C 
BRANCH  11  12
ATOM     12  C   UNL     1      -3.922   6.981   3.216  0.00  0.00    +0.054 C 
BRANCH  12  13
ATOM     13  C   UNL     1      -5.164   7.833   3.170  0.00  0.00    -0.046 A 
ATOM     14  C   UNL     1      -5.159   9.026   2.472  0.00  0.00    +0.005 A 
ATOM     15  C   UNL     1      -6.300   9.806   2.426  0.00  0.00    +0.029 A 
ATOM     16  C   UNL     1      -7.443   9.396   3.086  0.00  0.00    +0.105 A 
ATOM     17  C   UNL     1      -7.447   8.206   3.789  0.00  0.00    +0.029 A 
ATOM     18  C   UNL     1      -6.308   7.424   3.831  0.00  0.00    +0.005 A 
BRANCH  16  19
ATOM     19  S   UNL     1      -8.896  10.391   3.032  0.00  0.00    +0.056 S 
ATOM     20  O   UNL     1      -8.800  11.187   1.858  0.00  0.00    -0.153 OA
ATOM     21  O   UNL     1      -9.993   9.522   3.275  0.00  0.00    -0.153 OA
BRANCH  19  22
ATOM     22  N   UNL     1      -8.824  11.434   4.317  0.00  0.00    -0.204 NA
ATOM     23  H   UNL     1      -8.067  11.406   4.922  0.00  0.00    +0.144 HD
ATOM     24  H   UNL     1      -9.540  12.072   4.464  0.00  0.00    +0.144 HD
ENDBRANCH  19  22
ENDBRANCH  16  19
ENDBRANCH  12  13
ENDBRANCH  11  12
ENDBRANCH   9  11
ENDBRANCH   5   7
BRANCH   1  25
ATOM     25  S   UNL     1       0.002  -0.004   0.002  0.00  0.00    +0.063 S 
ATOM     26  O   UNL     1      -1.243  -0.424  -0.539  0.00  0.00    -0.153 OA
ATOM     27  O   UNL     1       1.248  -0.390  -0.563  0.00  0.00    -0.153 OA
BRANCH  25  32
ATOM     28  C   UNL     1      -1.039  -1.664   3.526  0.00  0.00    +0.004 A 
ATOM     29  C   UNL     1      -0.011  -1.420   4.375  0.00  0.00    +0.033 A 
ATOM     30  C   UNL     1       1.112  -0.707   3.914  0.00  0.00    +0.136 A 
ATOM     31  C   UNL     1       1.131  -0.243   2.504  0.00  0.00    +0.160 A 
ATOM     32  C   UNL     1       0.025  -0.534   1.682  0.00  0.00    +0.136 A 
ATOM     33  C   UNL     1      -1.024  -1.221   2.197  0.00  0.00    +0.031 A 
ATOM     34  N   UNL     1       2.287   0.367   2.416  0.00  0.00    -0.047 NA
ATOM     35  O   UNL     1       2.852   0.305   3.489  0.00  0.00    -0.242 OA
ATOM     36  N   UNL     1       2.261  -0.278   4.375  0.00  0.00    -0.049 NA
ENDBRANCH  25  32
ENDBRANCH   1  25
TORSDOF 8
