REMARK  Name = ZINC63699740
REMARK  5 active torsions:
REMARK  status: ('A' for Active; 'I' for Inactive)
REMARK    1  A    between atoms: C_5  and  C_7
REMARK    2  A    between atoms: N_9  and  C_10
REMARK    3  A    between atoms: C_13  and  S_16
REMARK    4  A    between atoms: S_16  and  N_19
REMARK    5  A    between atoms: C_22  and  C_25
REMARK                            x       y       z     vdW  Elec       q    Type
REMARK                         _______ _______ _______ _____ _____    ______ ____
ROOT
ATOM      1  S   UNL     1       0.442  -8.763   0.332  0.00  0.00    +0.061 S 
ATOM      2  O   UNL     1      -0.754  -9.274  -0.240  0.00  0.00    -0.153 OA
ATOM      3  O   UNL     1       1.730  -9.123  -0.147  0.00  0.00    -0.153 OA
ENDROOT
BRANCH   1   7
ATOM      4  C   UNL     1       0.177  -4.249   0.068  0.00  0.00    +0.034 A 
ATOM      5  C   UNL     1       1.417  -4.870   0.153  0.00  0.00    +0.025 A 
ATOM      6  C   UNL     1       1.494  -6.247   0.234  0.00  0.00    +0.030 A 
ATOM      7  C   UNL     1       0.339  -7.007   0.229  0.00  0.00    +0.106 A 
ATOM      8  C   UNL     1      -0.897  -6.392   0.144  0.00  0.00    +0.030 A 
ATOM      9  C   UNL     1      -0.981  -5.015   0.069  0.00  0.00    +0.025 A 
BRANCH   4  12
ATOM     10  C   UNL     1      -0.921  -2.204   0.585  0.00  0.00    +0.250 C 
ATOM     11  O   UNL     1      -1.811  -2.832   1.124  0.00  0.00    -0.270 OA
ATOM     12  N   UNL     1       0.096  -2.856  -0.014  0.00  0.00    -0.281 N 
ATOM     13  H   UNL     1       0.770  -2.358  -0.502  0.00  0.00    +0.155 HD
BRANCH  10  18
ATOM     14  C   UNL     1       0.034   1.376  -0.025  0.00  0.00    +0.001 A 
ATOM     15  C   UNL     1      -1.011   2.043   0.590  0.00  0.00    +0.001 A 
ATOM     16  C   UNL     1      -2.026   1.333   1.204  0.00  0.00    +0.021 A 
ATOM     17  C   UNL     1      -2.004  -0.048   1.207  0.00  0.00    +0.053 A 
ATOM     18  C   UNL     1      -0.952  -0.727   0.587  0.00  0.00    +0.055 A 
ATOM     19  C   UNL     1       0.070  -0.003  -0.031  0.00  0.00    +0.014 A 
ATOM     20 CL   UNL     1      -3.279  -0.938   1.979  0.00  0.00    -0.083 Cl
ENDBRANCH  10  18
ENDBRANCH   4  12
ENDBRANCH   1   7
BRANCH   1  21
ATOM     21  N   UNL     1       0.406  -9.162   1.939  0.00  0.00    -0.177 NA
ATOM     22  C   UNL     1       1.650  -9.260   2.714  0.00  0.00    +0.110 C 
ATOM     23  C   UNL     1       1.530  -8.370   3.954  0.00  0.00    +0.024 C 
ATOM     24  C   UNL     1       0.272  -8.756   4.735  0.00  0.00    +0.034 C 
ATOM     25  C   UNL     1      -0.963  -8.533   3.858  0.00  0.00    +0.024 C 
ATOM     26  C   UNL     1      -0.871  -9.419   2.618  0.00  0.00    +0.110 C 
BRANCH  24  27
ATOM     27  C   UNL     1       0.166  -7.892   5.993  0.00  0.00    +0.177 C 
ATOM     28  N   UNL     1       1.308  -8.152   6.879  0.00  0.00    -0.363 N 
ATOM     29  C   UNL     1       0.834  -8.602   8.005  0.00  0.00    +0.060 A 
ATOM     30  C   UNL     1       1.472  -9.031   9.257  0.00  0.00    +0.027 A 
ATOM     31  C   UNL     1       0.707  -9.461  10.280  0.00  0.00    +0.002 A 
ATOM     32  C   UNL     1      -0.696  -9.522  10.204  0.00  0.00    +0.002 A 
ATOM     33  C   UNL     1      -1.381  -9.154   9.103  0.00  0.00    +0.027 A 
ATOM     34  C   UNL     1      -0.651  -8.666   7.925  0.00  0.00    +0.060 A 
ATOM     35  N   UNL     1      -1.038  -8.252   6.753  0.00  0.00    -0.363 N 
ATOM     36  H   UNL     1       2.244  -8.013   6.665  0.00  0.00    +0.162 HD
ATOM     37  H   UNL     1      -1.953  -8.193   6.439  0.00  0.00    +0.162 HD
ENDBRANCH  24  27
ENDBRANCH   1  21
TORSDOF 5
