REMARK  Name = ZINC04065349
REMARK  7 active torsions:
REMARK  status: ('A' for Active; 'I' for Inactive)
REMARK    1  A    between atoms: C_1  and  C_2
REMARK    2  A    between atoms: C_7  and  O_10
REMARK    3  A    between atoms: O_10  and  C_11
REMARK    4  A    between atoms: C_11  and  C_13
REMARK    5  A    between atoms: C_14  and  C_30
REMARK    6  A    between atoms: C_19  and  C_21
REMARK    7  A    between atoms: C_25  and  N_27
REMARK                            x       y       z     vdW  Elec       q    Type
REMARK                         _______ _______ _______ _____ _____    ______ ____
ROOT
ATOM      1  C   UNL     1       3.689  -2.406  -2.026  0.00  0.00    +0.078 C 
ATOM      2  C   UNL     1       4.737  -3.123  -2.483  0.00  0.00    +0.021 C 
ATOM      3  N   UNL     1       4.718  -4.489  -2.467  0.00  0.00    -0.273 N 
ATOM      4  C   UNL     1       3.688  -5.211  -2.009  0.00  0.00    +0.304 C 
ATOM      5  O   UNL     1       3.763  -6.424  -2.034  0.00  0.00    -0.252 OA
ATOM      6  N   UNL     1       2.571  -4.637  -1.520  0.00  0.00    -0.288 N 
ATOM      7  C   UNL     1       2.494  -3.167  -1.488  0.00  0.00    +0.144 C 
ATOM      8  C   UNL     1       5.949  -2.406  -3.021  0.00  0.00    +0.061 C 
ATOM      9  H   UNL     1       5.494  -4.962  -2.806  0.00  0.00    +0.156 HD
ATOM     10  H   UNL     1       1.836  -5.180  -1.192  0.00  0.00    +0.151 HD
ENDROOT
BRANCH   7  11
ATOM     11  C   UNL     1       1.283  -2.752  -2.284  0.00  0.00    -0.020 A 
ATOM     12  C   UNL     1       1.060  -3.296  -3.535  0.00  0.00    +0.009 A 
ATOM     13  C   UNL     1      -0.050  -2.918  -4.266  0.00  0.00    +0.053 A 
ATOM     14  C   UNL     1      -0.941  -1.991  -3.743  0.00  0.00    +0.209 A 
ATOM     15  C   UNL     1      -0.714  -1.447  -2.487  0.00  0.00    +0.173 A 
ATOM     16  C   UNL     1       0.394  -1.833  -1.758  0.00  0.00    +0.042 A 
ATOM     17  O   UNL     1      -2.033  -1.617  -4.460  0.00  0.00    -0.285 OA
BRANCH  15  18
ATOM     18  N   UNL     1      -1.663  -0.459  -1.926  0.00  0.00    +0.060 N 
ATOM     19  O   UNL     1      -1.416   0.088  -0.867  0.00  0.00    -0.126 OA
ATOM     20  O   UNL     1      -2.690  -0.193  -2.525  0.00  0.00    -0.126 OA
ENDBRANCH  15  18
ENDBRANCH   7  11
BRANCH   1  21
ATOM     21  C   UNL     1       3.708  -0.991  -2.043  0.00  0.00    +0.339 C 
ATOM     22  O   UNL     1       3.946  -0.374  -1.022  0.00  0.00    -0.245 OA
BRANCH  21  23
ATOM     23  O   UNL     1       3.461  -0.327  -3.192  0.00  0.00    -0.458 OA
BRANCH  23  29
ATOM     24  C   UNL     1       2.144   1.819  -6.653  0.00  0.00    +0.007 C 
ATOM     25  C   UNL     1       3.063   1.200  -5.599  0.00  0.00    -0.011 C 
ATOM     26  C   UNL     1       4.513   1.590  -5.894  0.00  0.00    +0.003 C 
ATOM     27  C   UNL     1       5.432   0.971  -4.839  0.00  0.00    +0.004 C 
ATOM     28  C   UNL     1       5.038   1.485  -3.453  0.00  0.00    +0.045 C 
ATOM     29  C   UNL     1       3.588   1.096  -3.158  0.00  0.00    +0.177 C 
ATOM     30  C   UNL     1       2.669   1.715  -4.213  0.00  0.00    +0.048 C 
ENDBRANCH  23  29
ENDBRANCH  21  23
ENDBRANCH   1  21
TORSDOF 5
