REMARK  Name = ZINC13269368
REMARK  7 active torsions:
REMARK  status: ('A' for Active; 'I' for Inactive)
REMARK    1  A    between atoms: C_1  and  C_2
REMARK    2  A    between atoms: C_5  and  S_10
REMARK    3  A    between atoms: C_7  and  C_8
REMARK    4  A    between atoms: S_10  and  N_13
REMARK    5  A    between atoms: N_13  and  C_14
REMARK    6  A    between atoms: C_14  and  C_16
REMARK    7  A    between atoms: C_14  and  C_25
REMARK                            x       y       z     vdW  Elec       q    Type
REMARK                         _______ _______ _______ _____ _____    ______ ____
ROOT
ATOM      1  N   UNL     1      -3.820   1.946  -1.003  0.00  0.00    -0.178 NA
ATOM      2  H   UNL     1      -3.979   2.884  -1.190  0.00  0.00    +0.149 HD
ENDROOT
BRANCH   1   3
ATOM      3  S   UNL     1      -4.676   0.783  -1.813  0.00  0.00    +0.059 S 
ATOM      4  O   UNL     1      -5.570   1.467  -2.680  0.00  0.00    -0.153 OA
ATOM      5  O   UNL     1      -3.728  -0.163  -2.289  0.00  0.00    -0.153 OA
BRANCH   3  10
ATOM      6  C   UNL     1      -8.061  -2.115   2.270  0.00  0.00    +0.044 C 
ATOM      7  C   UNL     1      -7.220  -1.389   1.252  0.00  0.00    -0.036 A 
ATOM      8  C   UNL     1      -5.945  -1.833   0.965  0.00  0.00    +0.006 A 
ATOM      9  C   UNL     1      -5.174  -1.173   0.026  0.00  0.00    +0.029 A 
ATOM     10  C   UNL     1      -5.670  -0.056  -0.624  0.00  0.00    +0.106 A 
ATOM     11  C   UNL     1      -6.942   0.399  -0.347  0.00  0.00    +0.044 A 
ATOM     12  C   UNL     1      -7.729  -0.267   0.596  0.00  0.00    +0.068 A 
BRANCH  12  13
ATOM     13  C   UNL     1      -9.092   0.214   0.897  0.00  0.00    +0.387 C 
ATOM     14  O   UNL     1      -9.815  -0.429   1.631  0.00  0.00    -0.241 OA
ATOM     15  O   UNL     1      -9.534   1.367   0.358  0.00  0.00    -0.241 OA
ENDBRANCH  12  13
ENDBRANCH   3  10
ENDBRANCH   1   3
BRANCH   1  16
ATOM     16  C   UNL     1      -2.821   1.557  -0.004  0.00  0.00    +0.143 C 
BRANCH  16  17
ATOM     17  C   UNL     1      -1.669   2.528  -0.042  0.00  0.00    -0.024 A 
ATOM     18  C   UNL     1      -1.909   3.880  -0.200  0.00  0.00    +0.006 A 
ATOM     19  C   UNL     1      -0.851   4.767  -0.240  0.00  0.00    +0.004 A 
ATOM     20  C   UNL     1       0.450   4.308  -0.115  0.00  0.00    -0.044 A 
ATOM     21  C   UNL     1       0.689   2.956   0.049  0.00  0.00    -0.044 A 
ATOM     22  C   UNL     1      -0.373   2.068   0.088  0.00  0.00    +0.009 A 
ATOM     23  C   UNL     1       2.178   2.710   0.161  0.00  0.00    +0.036 C 
ATOM     24  C   UNL     1       2.842   3.991  -0.389  0.00  0.00    +0.009 C 
ATOM     25  C   UNL     1       1.762   5.062  -0.126  0.00  0.00    +0.036 C 
ENDBRANCH  16  17
BRANCH  16  26
ATOM     26  C   UNL     1      -3.448   1.574   1.366  0.00  0.00    +0.013 A 
ATOM     27  C   UNL     1      -3.284   0.702   2.391  0.00  0.00    +0.013 A 
ATOM     28  C   UNL     1      -3.966   0.922   3.573  0.00  0.00    +0.008 A 
ATOM     29  C   UNL     1      -4.787   1.996   3.669  0.00  0.00    +0.045 A 
ATOM     30  S   UNL     1      -4.605   2.744   2.059  0.00  0.00    -0.100 S 
ENDBRANCH  16  26
ENDBRANCH   1  16
TORSDOF 6
