REMARK  Name = ZINC21246864
REMARK  10 active torsions:
REMARK  status: ('A' for Active; 'I' for Inactive)
REMARK    1  A    between atoms: C_1  and  C_2
REMARK    2  A    between atoms: C_2  and  C_3
REMARK    3  A    between atoms: C_3  and  C_5
REMARK    4  A    between atoms: C_3  and  O_6
REMARK    5  A    between atoms: O_6  and  C_7
REMARK    6  A    between atoms: C_12  and  C_13
REMARK    7  A    between atoms: C_18  and  C_23
REMARK    8  A    between atoms: C_26  and  N_29
REMARK    9  A    between atoms: N_29  and  C_30
REMARK   10  A    between atoms: N_29  and  C_31
REMARK                            x       y       z     vdW  Elec       q    Type
REMARK                         _______ _______ _______ _____ _____    ______ ____
ROOT
ATOM      1  C   UNL     1       2.520   1.409  -0.134  0.00  0.00    +0.139 C 
ATOM      2  C   UNL     1       2.657   1.545  -1.632  0.00  0.00    +0.037 C 
ATOM      3  C   UNL     1       2.641   0.542  -2.522  0.00  0.00    +0.017 C 
ATOM      4  C   UNL     1       2.796   0.824  -4.007  0.00  0.00    +0.059 C 
ATOM      5  C   UNL     1       2.198   2.187  -4.347  0.00  0.00    +0.032 C 
ATOM      6  C   UNL     1       2.943   3.243  -3.520  0.00  0.00    +0.088 C 
ATOM      7  C   UNL     1       2.816   2.885  -2.069  0.00  0.00    +0.163 C 
ATOM      8  O   UNL     1       2.849   3.774  -1.240  0.00  0.00    -0.292 OA
ATOM      9  N   UNL     1       2.509  -0.773  -2.207  0.00  0.00    -0.316 N 
ATOM     10  C   UNL     1       1.566  -1.290  -1.325  0.00  0.00    +0.052 A 
ATOM     11  C   UNL     1       0.586  -2.180  -1.726  0.00  0.00    +0.025 A 
ATOM     12  C   UNL     1      -0.268  -2.721  -0.779  0.00  0.00    +0.002 A 
ATOM     13  C   UNL     1      -0.141  -2.372   0.553  0.00  0.00    +0.002 A 
ATOM     14  C   UNL     1       0.824  -1.463   0.951  0.00  0.00    +0.025 A 
ATOM     15  C   UNL     1       1.668  -0.905   0.003  0.00  0.00    +0.049 A 
ATOM     16  N   UNL     1       2.619   0.050   0.353  0.00  0.00    -0.331 N 
ATOM     17  H   UNL     1       3.179  -1.517  -2.661  0.00  0.00    +0.152 HD
ATOM     18  H   UNL     1       3.453  -0.239   1.009  0.00  0.00    +0.147 HD
ENDROOT
BRANCH   1  24
ATOM     19  C   UNL     1       0.983   2.412   1.574  0.00  0.00    +0.126 A 
ATOM     20  C   UNL     1      -0.250   2.926   1.948  0.00  0.00    +0.046 A 
ATOM     21  C   UNL     1      -1.277   2.995   1.027  0.00  0.00    +0.004 A 
ATOM     22  C   UNL     1      -1.075   2.557  -0.269  0.00  0.00    +0.001 A 
ATOM     23  C   UNL     1       0.151   2.039  -0.643  0.00  0.00    +0.009 A 
ATOM     24  C   UNL     1       1.182   1.968   0.275  0.00  0.00    +0.019 A 
BRANCH  19  25
ATOM     25  O   UNL     1       1.994   2.343   2.479  0.00  0.00    -0.489 OA
BRANCH  25  26
ATOM     26  C   UNL     1       1.758   2.926   3.762  0.00  0.00    +0.170 C 
ATOM     27  C   UNL     1       1.125   1.885   4.687  0.00  0.00    +0.052 C 
BRANCH  26  29
ATOM     28  C   UNL     1       3.664   4.519   3.492  0.00  0.00    +0.007 C 
ATOM     29  C   UNL     1       3.085   3.400   4.360  0.00  0.00    +0.041 C 
ENDBRANCH  26  29
ENDBRANCH  25  26
ENDBRANCH  19  25
ENDBRANCH   1  24
BRANCH   5  30
ATOM     30  C   UNL     1       2.376   2.471  -5.816  0.00  0.00    -0.043 A 
ATOM     31  C   UNL     1       3.646   2.529  -6.359  0.00  0.00    +0.006 A 
ATOM     32  C   UNL     1       3.813   2.783  -7.706  0.00  0.00    +0.023 A 
ATOM     33  C   UNL     1       2.702   2.993  -8.514  0.00  0.00    +0.029 A 
ATOM     34  C   UNL     1       1.427   2.940  -7.964  0.00  0.00    +0.023 A 
ATOM     35  C   UNL     1       1.268   2.679  -6.617  0.00  0.00    +0.006 A 
BRANCH  33  36
ATOM     36  N   UNL     1       2.867   3.255  -9.876  0.00  0.00    -0.336 N 
ATOM     37  C   UNL     1       1.705   3.592 -10.703  0.00  0.00    +0.129 C 
ATOM     38  C   UNL     1       4.201   3.195 -10.477  0.00  0.00    +0.129 C 
ENDBRANCH  33  36
ENDBRANCH   5  30
TORSDOF 6
