REMARK  Name = ZINC43730523
REMARK  8 active torsions:
REMARK  status: ('A' for Active; 'I' for Inactive)
REMARK    1  A    between atoms: C_1  and  C_2
REMARK    2  A    between atoms: C_2  and  C_3
REMARK    3  A    between atoms: C_2  and  C_4
REMARK    4  A    between atoms: C_2  and  C_5
REMARK    5  A    between atoms: C_12  and  C_14
REMARK    6  A    between atoms: C_19  and  C_22
REMARK    7  A    between atoms: C_22  and  C_23
REMARK    8  A    between atoms: N_29  and  C_30
REMARK                            x       y       z     vdW  Elec       q    Type
REMARK                         _______ _______ _______ _____ _____    ______ ____
ROOT
ATOM      1  C   UNL     1       6.007  -0.739  -4.546  0.00  0.00    +0.256 C 
ATOM      2  O   UNL     1       6.936  -0.498  -3.797  0.00  0.00    -0.269 OA
ATOM      3  N   UNL     1       6.245  -1.084  -5.826  0.00  0.00    -0.260 N 
ATOM      4  C   UNL     1       7.551  -1.166  -6.292  0.00  0.00    +0.165 A 
ATOM      5  N   UNL     1       7.970  -1.479  -7.499  0.00  0.00    -0.229 NA
ATOM      6  C   UNL     1       9.258  -1.512  -7.787  0.00  0.00    +0.058 A 
ATOM      7  C   UNL     1      10.121  -1.211  -6.785  0.00  0.00    +0.072 A 
ATOM      8  S   UNL     1       8.981  -0.880  -5.452  0.00  0.00    -0.060 S 
ATOM      9  H   UNL     1       5.504  -1.276  -6.423  0.00  0.00    +0.157 HD
ENDROOT
BRANCH   1  16
ATOM     10  C   UNL     1       0.718  -0.497  -1.257  0.00  0.00    -0.001 C 
ATOM     11  C   UNL     1      -0.026   0.007  -2.496  0.00  0.00    +0.009 C 
ATOM     12  C   UNL     1       0.533  -0.709  -3.733  0.00  0.00    +0.043 C 
ATOM     13  C   UNL     1       2.031  -0.643  -3.684  0.00  0.00    -0.006 A 
ATOM     14  C   UNL     1       2.798  -0.317  -2.603  0.00  0.00    -0.036 A 
ATOM     15  C   UNL     1       4.172  -0.320  -2.792  0.00  0.00    +0.024 A 
ATOM     16  C   UNL     1       4.629  -0.653  -4.054  0.00  0.00    +0.075 A 
ATOM     17  S   UNL     1       3.103  -0.949  -4.927  0.00  0.00    -0.088 S 
ATOM     18  C   UNL     1       2.154   0.029  -1.264  0.00  0.00    +0.040 C 
BRANCH  10  20
ATOM     19  C   UNL     1      -0.019   1.526   0.010  0.00  0.00    +0.011 C 
ATOM     20  C   UNL     1       0.002  -0.004   0.002  0.00  0.00    -0.035 C 
ATOM     21  C   UNL     1       0.742  -0.511   1.242  0.00  0.00    +0.011 C 
ATOM     22  C   UNL     1      -1.433  -0.534   0.013  0.00  0.00    +0.011 C 
ENDBRANCH  10  20
ENDBRANCH   1  16
BRANCH   6  23
ATOM     23  C   UNL     1       9.748  -1.871  -9.166  0.00  0.00    +0.132 C 
BRANCH  23  24
ATOM     24  C   UNL     1       9.179  -3.206  -9.570  0.00  0.00    +0.137 A 
ATOM     25  N   UNL     1       8.388  -3.936  -8.852  0.00  0.00    -0.158 NA
ATOM     26  N   UNL     1       8.085  -5.096  -9.578  0.00  0.00    -0.254 N 
ATOM     27  H   UNL     1       7.513  -5.824  -9.287  0.00  0.00    +0.191 HD
ATOM     28  C   UNL     1       8.737  -5.013 -10.756  0.00  0.00    +0.175 A 
ATOM     29  S   UNL     1       8.707  -6.173 -12.015  0.00  0.00    -0.011 S 
ATOM     30  N   UNL     1       9.412  -3.846 -10.762  0.00  0.00    -0.310 N 
ATOM     31  C   UNL     1      10.252  -3.347 -11.854  0.00  0.00    +0.152 C 
ENDBRANCH  23  24
ENDBRANCH   6  23
TORSDOF 4
