REMARK  Name = ZINC38752418
REMARK  9 active torsions:
REMARK  status: ('A' for Active; 'I' for Inactive)
REMARK    1  A    between atoms: C_1  and  C_2
REMARK    2  A    between atoms: C_2  and  C_3
REMARK    3  A    between atoms: C_2  and  N_4
REMARK    4  A    between atoms: C_5  and  O_36
REMARK    5  A    between atoms: C_7  and  C_14
REMARK    6  A    between atoms: C_19  and  O_35
REMARK    7  A    between atoms: N_27  and  C_32
REMARK    8  A    between atoms: C_32  and  C_33
REMARK    9  A    between atoms: C_32  and  C_34
REMARK                            x       y       z     vdW  Elec       q    Type
REMARK                         _______ _______ _______ _____ _____    ______ ____
ROOT
ATOM      1  C   UNL     1      -1.744  -3.238   0.218  0.00  0.00    +0.059 C 
ATOM      2  C   UNL     1      -0.796  -3.896  -0.754  0.00  0.00    +0.000 A 
ATOM      3  C   UNL     1      -0.287  -3.135  -1.795  0.00  0.00    +0.011 A 
ATOM      4  C   UNL     1       0.588  -3.691  -2.705  0.00  0.00    +0.046 A 
ATOM      5  C   UNL     1       0.965  -5.021  -2.581  0.00  0.00    +0.120 A 
ATOM      6  C   UNL     1       0.458  -5.785  -1.544  0.00  0.00    +0.092 A 
ATOM      7  C   UNL     1      -0.427  -5.224  -0.629  0.00  0.00    +0.137 A 
ATOM      8  O   UNL     1      -0.916  -6.016   0.364  0.00  0.00    -0.443 OA
ATOM      9  C   UNL     1      -1.608  -5.413   1.351  0.00  0.00    +0.202 C 
ATOM     10  N   UNL     1      -1.452  -5.774   2.587  0.00  0.00    -0.131 NA
ATOM     11  C   UNL     1      -2.109  -5.191   3.600  0.00  0.00    +0.335 C 
ATOM     12  O   UNL     1      -1.925  -5.591   4.734  0.00  0.00    -0.250 OA
ATOM     13  N   UNL     1      -2.965  -4.177   3.394  0.00  0.00    -0.221 N 
ATOM     14  C   UNL     1      -3.215  -3.714   2.160  0.00  0.00    +0.236 C 
ATOM     15  O   UNL     1      -3.989  -2.792   2.019  0.00  0.00    -0.274 OA
ATOM     16  C   UNL     1      -2.558  -4.311   0.948  0.00  0.00    +0.167 C 
ENDROOT
BRANCH   1  19
ATOM     17  N   UNL     1      -3.758  -4.031  -1.917  0.00  0.00    -0.256 N 
ATOM     18  C   UNL     1      -3.994  -3.052  -0.854  0.00  0.00    +0.219 C 
ATOM     19  C   UNL     1      -2.692  -2.310  -0.544  0.00  0.00    +0.131 C 
ATOM     20  C   UNL     1      -2.046  -1.880  -1.837  0.00  0.00    +0.228 C 
ATOM     21  O   UNL     1      -1.430  -0.838  -1.890  0.00  0.00    -0.275 OA
ATOM     22  N   UNL     1      -2.154  -2.654  -2.932  0.00  0.00    -0.240 N 
ATOM     23  C   UNL     1      -2.901  -3.771  -2.918  0.00  0.00    +0.311 C 
ATOM     24  O   UNL     1      -2.802  -4.561  -3.835  0.00  0.00    -0.252 OA
ATOM     25  H   UNL     1      -1.683  -2.404  -3.743  0.00  0.00    +0.159 HD
BRANCH  17  27
ATOM     26  C   UNL     1      -5.400  -5.414  -3.089  0.00  0.00    +0.028 C 
ATOM     27  C   UNL     1      -4.461  -5.316  -1.885  0.00  0.00    +0.074 C 
ATOM     28  C   UNL     1      -3.442  -6.457  -1.938  0.00  0.00    +0.028 C 
ENDBRANCH  17  27
BRANCH  18  29
ATOM     29  O   UNL     1      -4.450  -3.726   0.321  0.00  0.00    -0.373 OA
ATOM     30  H   UNL     1      -5.274  -4.216   0.198  0.00  0.00    +0.212 HD
ENDBRANCH  18  29
ENDBRANCH   1  19
BRANCH  13  31
ATOM     31  C   UNL     1      -3.639  -3.564   4.541  0.00  0.00    +0.080 C 
ATOM     32  C   UNL     1      -4.472  -4.621   5.269  0.00  0.00    +0.028 C 
ATOM     33  C   UNL     1      -2.594  -2.989   5.500  0.00  0.00    +0.028 C 
ENDBRANCH  13  31
BRANCH   5  34
ATOM     34  O   UNL     1       1.829  -5.571  -3.474  0.00  0.00    -0.507 OA
ATOM     35  H   UNL     1       2.759  -5.490  -3.222  0.00  0.00    +0.292 HD
ENDBRANCH   5  34
TORSDOF 5
