REMARK  Name = ZINC35884449
REMARK  5 active torsions:
REMARK  status: ('A' for Active; 'I' for Inactive)
REMARK    1  A    between atoms: C_1  and  C_2
REMARK    2  A    between atoms: C_5  and  N_8
REMARK    3  A    between atoms: C_9  and  C_11
REMARK    4  A    between atoms: N_15  and  C_18
REMARK    5  A    between atoms: C_22  and  C_24
REMARK                            x       y       z     vdW  Elec       q    Type
REMARK                         _______ _______ _______ _____ _____    ______ ____
ROOT
ATOM      1  C   UNL     1       0.309  -6.349   1.121  0.00  0.00    +0.163 C 
ATOM      2  C   UNL     1       0.474  -6.894   2.559  0.00  0.00    +0.041 C 
ATOM      3  C   UNL     1       1.467  -8.057   2.344  0.00  0.00    +0.115 C 
ATOM      4  N   UNL     1       2.216  -7.713   1.129  0.00  0.00    -0.271 N 
ATOM      5  C   UNL     1       1.583  -6.760   0.417  0.00  0.00    +0.232 C 
ATOM      6  O   UNL     1       1.977  -6.298  -0.633  0.00  0.00    -0.274 OA
ENDROOT
BRANCH   4   7
ATOM      7  C   UNL     1       3.430  -8.300   0.756  0.00  0.00    +0.037 A 
ATOM      8  C   UNL     1       4.001  -9.283   1.554  0.00  0.00    +0.025 A 
ATOM      9  C   UNL     1       5.199  -9.862   1.184  0.00  0.00    +0.022 A 
ATOM     10  C   UNL     1       5.831  -9.463   0.019  0.00  0.00    +0.044 A 
ATOM     11  C   UNL     1       5.264  -8.484  -0.778  0.00  0.00    -0.030 A 
ATOM     12  C   UNL     1       4.063  -7.906  -0.415  0.00  0.00    +0.028 A 
ATOM     13  C   UNL     1       5.955  -8.051  -2.045  0.00  0.00    +0.045 C 
ATOM     14 CL   UNL     1       7.337 -10.192  -0.444  0.00  0.00    -0.083 Cl
ENDBRANCH   4   7
BRANCH   1  16
ATOM     15  N   UNL     1       0.059  -4.170  -0.021  0.00  0.00    -0.285 N 
ATOM     16  C   UNL     1       0.175  -4.848   1.138  0.00  0.00    +0.229 C 
ATOM     17  O   UNL     1       0.173  -4.251   2.193  0.00  0.00    -0.275 OA
ATOM     18  H   UNL     1      -0.007  -4.651  -0.861  0.00  0.00    +0.155 HD
BRANCH  15  23
ATOM     19  C   UNL     1      -0.046   1.502   0.014  0.00  0.00    +0.044 C 
ATOM     20  C   UNL     1      -0.018  -0.004   0.005  0.00  0.00    -0.050 A 
ATOM     21  C   UNL     1      -0.604  -0.712   1.038  0.00  0.00    +0.005 A 
ATOM     22  C   UNL     1      -0.581  -2.092   1.033  0.00  0.00    +0.023 A 
ATOM     23  C   UNL     1       0.033  -2.771  -0.013  0.00  0.00    +0.033 A 
ATOM     24  C   UNL     1       0.620  -2.058  -1.049  0.00  0.00    +0.023 A 
ATOM     25  C   UNL     1       0.589  -0.677  -1.040  0.00  0.00    +0.005 A 
ENDBRANCH  15  23
ENDBRANCH   1  16
TORSDOF 3
