REMARK  Name = ZINC13349048
REMARK  8 active torsions:
REMARK  status: ('A' for Active; 'I' for Inactive)
REMARK    1  A    between atoms: C_1  and  C_2
REMARK    2  A    between atoms: C_5  and  S_10
REMARK    3  A    between atoms: C_7  and  C_8
REMARK    4  A    between atoms: S_10  and  N_13
REMARK    5  A    between atoms: N_13  and  C_14
REMARK    6  A    between atoms: C_17  and  C_30
REMARK    7  A    between atoms: C_18  and  S_20
REMARK    8  A    between atoms: S_20  and  N_23
REMARK                            x       y       z     vdW  Elec       q    Type
REMARK                         _______ _______ _______ _____ _____    ______ ____
ROOT
ATOM      1  C   UNL     1      -0.161  -0.994   0.081  0.00  0.00    +0.050 A 
ATOM      2  C   UNL     1       1.167  -0.607  -0.040  0.00  0.00    +0.025 A 
ATOM      3  C   UNL     1       2.152  -1.306   0.630  0.00  0.00    +0.007 A 
ATOM      4  C   UNL     1       1.819  -2.397   1.411  0.00  0.00    -0.024 A 
ATOM      5  C   UNL     1       0.498  -2.789   1.529  0.00  0.00    +0.110 A 
ATOM      6  C   UNL     1      -0.493  -2.091   0.867  0.00  0.00    +0.053 A 
ATOM      7  C   UNL     1       2.897  -3.161   2.135  0.00  0.00    +0.046 C 
ENDROOT
BRANCH   5   8
ATOM      8  S   UNL     1       0.078  -4.180   2.525  0.00  0.00    +0.061 S 
ATOM      9  O   UNL     1       0.709  -3.984   3.783  0.00  0.00    -0.153 OA
ATOM     10  O   UNL     1      -1.325  -4.364   2.397  0.00  0.00    -0.153 OA
BRANCH   8  11
ATOM     11  N   UNL     1       0.794  -5.507   1.839  0.00  0.00    -0.177 NA
ATOM     12  C   UNL     1       0.138  -6.148   0.721  0.00  0.00    +0.109 C 
ATOM     13  C   UNL     1      -0.837  -7.228   1.233  0.00  0.00    +0.017 C 
ATOM     14  C   UNL     1      -0.091  -8.377   1.768  0.00  0.00    +0.001 C 
ATOM     15  C   UNL     1       0.782  -8.052   2.976  0.00  0.00    +0.001 C 
ATOM     16  C   UNL     1       2.115  -7.526   2.503  0.00  0.00    +0.017 C 
ATOM     17  C   UNL     1       2.071  -5.991   2.399  0.00  0.00    +0.109 C 
ENDBRANCH   8  11
ENDBRANCH   5   8
BRANCH   1  18
ATOM     18  N   UNL     1      -1.161  -0.286  -0.590  0.00  0.00    -0.216 N 
ATOM     19  H   UNL     1      -1.255  -0.374  -1.551  0.00  0.00    +0.174 HD
BRANCH  18  20
ATOM     20  S   UNL     1      -2.184   0.704   0.255  0.00  0.00    +0.072 S 
ATOM     21  O   UNL     1      -3.094   1.249  -0.690  0.00  0.00    -0.150 OA
ATOM     22  O   UNL     1      -2.616  -0.033   1.391  0.00  0.00    -0.150 OA
BRANCH  20  27
ATOM     23  C   UNL     1       1.121   5.302   2.368  0.00  0.00    +0.044 C 
ATOM     24  C   UNL     1       0.295   4.157   1.838  0.00  0.00    -0.036 A 
ATOM     25  C   UNL     1       0.209   2.979   2.550  0.00  0.00    +0.006 A 
ATOM     26  C   UNL     1      -0.552   1.930   2.068  0.00  0.00    +0.029 A 
ATOM     27  C   UNL     1      -1.223   2.049   0.864  0.00  0.00    +0.109 A 
ATOM     28  C   UNL     1      -1.146   3.222   0.141  0.00  0.00    +0.044 A 
ATOM     29  C   UNL     1      -0.384   4.287   0.625  0.00  0.00    +0.068 A 
BRANCH  29  30
ATOM     30  C   UNL     1      -0.295   5.546  -0.144  0.00  0.00    +0.387 C 
ATOM     31  O   UNL     1       0.277   6.507   0.329  0.00  0.00    -0.241 OA
ATOM     32  O   UNL     1      -0.850   5.627  -1.369  0.00  0.00    -0.241 OA
ENDBRANCH  29  30
ENDBRANCH  20  27
ENDBRANCH  18  20
ENDBRANCH   1  18
TORSDOF 6
