REMARK  Name = ZINC45255361
REMARK  9 active torsions:
REMARK  status: ('A' for Active; 'I' for Inactive)
REMARK    1  A    between atoms: C_1  and  C_2
REMARK    2  A    between atoms: C_2  and  C_3
REMARK    3  A    between atoms: C_2  and  C_4
REMARK    4  A    between atoms: C_4  and  C_6
REMARK    5  A    between atoms: C_4  and  O_12
REMARK    6  A    between atoms: O_12  and  C_13
REMARK    7  A    between atoms: C_13  and  C_15
REMARK    8  A    between atoms: N_18  and  S_21
REMARK    9  A    between atoms: S_21  and  C_24
REMARK                            x       y       z     vdW  Elec       q    Type
REMARK                         _______ _______ _______ _____ _____    ______ ____
ROOT
ATOM      1  C   UNL     1      -3.480   1.648   2.300  0.00  0.00    +0.100 C 
ATOM      2  C   UNL     1      -4.560   0.657   2.739  0.00  0.00    +0.032 C 
ATOM      3  C   UNL     1      -5.275   1.203   3.979  0.00  0.00    +0.110 C 
ATOM      4  N   UNL     1      -5.779   2.551   3.679  0.00  0.00    -0.177 NA
ATOM      5  C   UNL     1      -4.840   3.557   3.164  0.00  0.00    +0.110 C 
ATOM      6  C   UNL     1      -4.130   2.985   1.933  0.00  0.00    +0.032 C 
ENDROOT
BRANCH   4   7
ATOM      7  S   UNL     1      -7.373   2.928   3.917  0.00  0.00    +0.061 S 
ATOM      8  O   UNL     1      -7.664   4.023   3.059  0.00  0.00    -0.153 OA
ATOM      9  O   UNL     1      -8.093   1.704   3.861  0.00  0.00    -0.153 OA
BRANCH   7  10
ATOM     10  C   UNL     1      -7.526   3.527   5.567  0.00  0.00    +0.109 A 
ATOM     11  C   UNL     1      -7.787   2.645   6.600  0.00  0.00    +0.032 A 
ATOM     12  C   UNL     1      -7.909   3.111   7.895  0.00  0.00    +0.051 A 
ATOM     13  C   UNL     1      -7.769   4.465   8.163  0.00  0.00    +0.162 A 
ATOM     14  C   UNL     1      -7.505   5.351   7.125  0.00  0.00    +0.164 A 
ATOM     15  C   UNL     1      -7.380   4.876   5.828  0.00  0.00    +0.078 A 
ATOM     16  O   UNL     1      -7.356   6.682   7.367  0.00  0.00    -0.485 OA
ATOM     17  C   UNL     1      -7.849   7.168   8.620  0.00  0.00    +0.270 C 
ATOM     18  C   UNL     1      -7.377   6.214   9.725  0.00  0.00    +0.270 C 
ATOM     19  O   UNL     1      -7.895   4.909   9.443  0.00  0.00    -0.485 OA
ENDBRANCH   7  10
ENDBRANCH   4   7
BRANCH   1  20
ATOM     20  C   UNL     1      -2.752   1.099   1.101  0.00  0.00    +0.311 C 
ATOM     21  O   UNL     1      -2.752   1.712   0.060  0.00  0.00    -0.251 OA
BRANCH  20  22
ATOM     22  O   UNL     1      -2.102  -0.073   1.189  0.00  0.00    -0.451 OA
BRANCH  22  23
ATOM     23  C   UNL     1      -1.433  -0.534   0.013  0.00  0.00    +0.264 C 
BRANCH  23  24
ATOM     24  C   UNL     1      -1.413  -2.041   0.005  0.00  0.00    +0.261 C 
ATOM     25  O   UNL     1      -1.839  -2.658   0.957  0.00  0.00    -0.271 OA
ATOM     26  N   UNL     1      -0.921  -2.702  -1.062  0.00  0.00    -0.237 N 
ATOM     27  C   UNL     1      -0.902  -4.050  -1.069  0.00  0.00    +0.303 C 
ATOM     28  O   UNL     1      -1.330  -4.668  -0.114  0.00  0.00    -0.253 OA
ATOM     29  N   UNL     1      -0.410  -4.711  -2.135  0.00  0.00    -0.313 N 
ATOM     30  H   UNL     1      -0.580  -2.208  -1.824  0.00  0.00    +0.159 HD
ATOM     31  H   UNL     1      -0.069  -4.217  -2.897  0.00  0.00    +0.146 HD
ATOM     32  H   UNL     1      -0.397  -5.681  -2.140  0.00  0.00    +0.146 HD
ENDBRANCH  23  24
BRANCH  23  34
ATOM     33  C   UNL     1      -0.019   1.526   0.010  0.00  0.00    +0.011 C 
ATOM     34  C   UNL     1       0.002  -0.004   0.002  0.00  0.00    +0.033 C 
ATOM     35  C   UNL     1       0.742  -0.511   1.242  0.00  0.00    +0.011 C 
ENDBRANCH  23  34
ENDBRANCH  22  23
ENDBRANCH  20  22
ENDBRANCH   1  20
TORSDOF 7
