REMARK  Name = ZINC39749183
REMARK  7 active torsions:
REMARK  status: ('A' for Active; 'I' for Inactive)
REMARK    1  A    between atoms: C_1  and  O_2
REMARK    2  A    between atoms: O_2  and  C_3
REMARK    3  A    between atoms: C_6  and  C_9
REMARK    4  A    between atoms: C_15  and  S_19
REMARK    5  A    between atoms: S_19  and  C_20
REMARK    6  A    between atoms: C_20  and  C_21
REMARK    7  A    between atoms: C_24  and  N_27
REMARK                            x       y       z     vdW  Elec       q    Type
REMARK                         _______ _______ _______ _____ _____    ______ ____
ROOT
ATOM      1  C   UNL     1      -4.981  -2.629   0.035  0.00  0.00    +0.073 C 
ATOM      2  C   UNL     1      -5.105  -3.514  -1.201  0.00  0.00    +0.156 C 
ATOM      3  C   UNL     1      -4.184  -4.696  -1.069  0.00  0.00    +0.145 C 
ATOM      4  N   UNL     1      -3.442  -5.085  -2.086  0.00  0.00    -0.208 NA
ATOM      5  C   UNL     1      -3.385  -4.395  -3.225  0.00  0.00    +0.182 C 
ATOM      6  N   UNL     1      -4.024  -3.243  -3.392  0.00  0.00    -0.154 NA
ATOM      7  C   UNL     1      -4.816  -2.759  -2.460  0.00  0.00    +0.250 C 
ATOM      8  O   UNL     1      -5.332  -1.673  -2.638  0.00  0.00    -0.273 OA
ATOM      9  N   UNL     1      -4.075  -5.311   0.104  0.00  0.00    -0.236 NA
ATOM     10  C   UNL     1      -4.597  -4.822   1.212  0.00  0.00    +0.050 C 
ATOM     11  C   UNL     1      -5.086  -3.511   1.262  0.00  0.00    +0.025 C 
ATOM     12  C   UNL     1      -5.654  -3.009   2.382  0.00  0.00    +0.162 C 
ATOM     13  O   UNL     1      -6.133  -1.752   2.364  0.00  0.00    -0.292 OA
ATOM     14  C   UNL     1      -5.766  -3.814   3.647  0.00  0.00    +0.080 C 
ATOM     15  C   UNL     1      -5.829  -5.305   3.306  0.00  0.00    +0.014 C 
ATOM     16  C   UNL     1      -4.603  -5.671   2.460  0.00  0.00    +0.056 C 
ENDROOT
BRANCH   1  20
ATOM     17  C   UNL     1      -1.200  -0.637   0.010  0.00  0.00    +0.120 A 
ATOM     18  C   UNL     1      -2.375   0.101   0.019  0.00  0.00    +0.046 A 
ATOM     19  C   UNL     1      -3.596  -0.545   0.027  0.00  0.00    +0.008 A 
ATOM     20  C   UNL     1      -3.648  -1.927   0.026  0.00  0.00    -0.038 A 
ATOM     21  C   UNL     1      -2.479  -2.665   0.017  0.00  0.00    +0.008 A 
ATOM     22  C   UNL     1      -1.255  -2.024   0.003  0.00  0.00    +0.046 A 
BRANCH  17  24
ATOM     23  C   UNL     1      -0.017   1.425   0.010  0.00  0.00    +0.277 C 
ATOM     24  O   UNL     1       0.002  -0.004   0.002  0.00  0.00    -0.495 OA
ENDBRANCH  17  24
ENDBRANCH   1  20
BRANCH   5  25
ATOM     25  S   UNL     1      -2.427  -5.036  -4.558  0.00  0.00    -0.084 S 
BRANCH  25  26
ATOM     26  C   UNL     1      -2.629  -3.804  -5.875  0.00  0.00    +0.112 C 
BRANCH  26  27
ATOM     27  C   UNL     1      -1.850  -4.236  -7.090  0.00  0.00    -0.037 A 
ATOM     28  C   UNL     1      -0.531  -3.848  -7.239  0.00  0.00    +0.007 A 
ATOM     29  C   UNL     1       0.184  -4.244  -8.354  0.00  0.00    +0.033 A 
ATOM     30  C   UNL     1      -0.419  -5.028  -9.319  0.00  0.00    +0.126 A 
ATOM     31  C   UNL     1      -1.737  -5.417  -9.169  0.00  0.00    +0.033 A 
ATOM     32  C   UNL     1      -2.451  -5.025  -8.053  0.00  0.00    +0.007 A 
BRANCH  30  33
ATOM     33  N   UNL     1       0.346  -5.452 -10.513  0.00  0.00    +0.056 N 
ATOM     34  O   UNL     1       1.499  -5.111 -10.644  0.00  0.00    -0.126 OA
ATOM     35  O   UNL     1      -0.181  -6.138 -11.357  0.00  0.00    -0.126 OA
ENDBRANCH  30  33
ENDBRANCH  26  27
ENDBRANCH  25  26
ENDBRANCH   5  25
TORSDOF 6
