REMARK  Name = ZINC64690362
REMARK  10 active torsions:
REMARK  status: ('A' for Active; 'I' for Inactive)
REMARK    1  A    between atoms: C_1  and  C_2
REMARK    2  A    between atoms: C_2  and  N_3
REMARK    3  A    between atoms: N_3  and  C_4
REMARK    4  A    between atoms: C_4  and  C_5
REMARK    5  A    between atoms: C_17  and  C_19
REMARK    6  A    between atoms: C_24  and  O_25
REMARK    7  A    between atoms: O_25  and  C_26
REMARK    8  A    between atoms: C_26  and  C_27
REMARK    9  A    between atoms: C_27  and  O_28
REMARK   10  A    between atoms: O_28  and  C_29
REMARK                            x       y       z     vdW  Elec       q    Type
REMARK                         _______ _______ _______ _____ _____    ______ ____
ROOT
ATOM      1  N   UNL     1       0.700  -0.402  -1.236  0.00  0.00    -0.290 N 
ATOM      2  C   UNL     1      -0.025  -0.801  -2.300  0.00  0.00    +0.251 C 
ATOM      3  O   UNL     1       0.523  -1.345  -3.239  0.00  0.00    -0.270 OA
ENDROOT
BRANCH   2   4
ATOM      4  C   UNL     1      -1.482  -0.576  -2.326  0.00  0.00    +0.078 A 
ATOM      5  C   UNL     1      -2.296  -1.124  -1.331  0.00  0.00    +0.017 A 
ATOM      6  C   UNL     1      -3.656  -0.910  -1.361  0.00  0.00    +0.001 A 
ATOM      7  C   UNL     1      -4.223  -0.153  -2.374  0.00  0.00    +0.004 A 
ATOM      8  C   UNL     1      -3.431   0.394  -3.364  0.00  0.00    +0.046 A 
ATOM      9  C   UNL     1      -2.059   0.193  -3.346  0.00  0.00    +0.133 A 
BRANCH   9  10
ATOM     10  O   UNL     1      -1.279   0.735  -4.315  0.00  0.00    -0.489 OA
BRANCH  10  11
ATOM     11  C   UNL     1      -1.937   1.506  -5.322  0.00  0.00    +0.257 C 
BRANCH  11  12
ATOM     12  C   UNL     1      -0.902   2.031  -6.319  0.00  0.00    +0.200 C 
BRANCH  12  13
ATOM     13  O   UNL     1      -0.309   0.932  -7.013  0.00  0.00    -0.380 OA
ATOM     14  C   UNL     1       0.676   1.315  -7.974  0.00  0.00    +0.194 C 
ENDBRANCH  12  13
ENDBRANCH  11  12
ENDBRANCH  10  11
ENDBRANCH   9  10
ENDBRANCH   2   4
BRANCH   1  16
ATOM     15  C   UNL     1      -0.002   1.688  -0.178  0.00  0.00    +0.024 C 
ATOM     16  C   UNL     1       0.028   0.163  -0.063  0.00  0.00    +0.105 C 
ENDBRANCH   1  16
BRANCH   1  17
ATOM     17  C   UNL     1       2.159  -0.534  -1.252  0.00  0.00    +0.182 C 
BRANCH  17  18
ATOM     18  C   UNL     1       2.548  -1.879  -0.696  0.00  0.00    +0.128 A 
ATOM     19  N   UNL     1       3.869  -2.189  -0.623  0.00  0.00    -0.309 N 
ATOM     20  H   UNL     1       4.530  -1.547  -0.926  0.00  0.00    +0.170 HD
ATOM     21  C   UNL     1       4.270  -3.384  -0.130  0.00  0.00    +0.259 A 
ATOM     22  O   UNL     1       5.450  -3.674  -0.058  0.00  0.00    -0.267 OA
ATOM     23  C   UNL     1       3.225  -4.318   0.316  0.00  0.00    +0.065 A 
ATOM     24  C   UNL     1       3.532  -5.573   0.838  0.00  0.00    +0.015 A 
ATOM     25  C   UNL     1       2.513  -6.408   1.239  0.00  0.00    +0.001 A 
ATOM     26  C   UNL     1       1.188  -6.010   1.128  0.00  0.00    +0.002 A 
ATOM     27  C   UNL     1       0.863  -4.774   0.615  0.00  0.00    +0.028 A 
ATOM     28  C   UNL     1       1.878  -3.909   0.201  0.00  0.00    +0.078 A 
ATOM     29  N   UNL     1       1.604  -2.681  -0.305  0.00  0.00    -0.232 NA
ENDBRANCH  17  18
ENDBRANCH   1  17
TORSDOF 8
