REMARK  Name = ZINC38605109
REMARK  7 active torsions:
REMARK  status: ('A' for Active; 'I' for Inactive)
REMARK    1  A    between atoms: C_1  and  C_2
REMARK    2  A    between atoms: C_2  and  C_4
REMARK    3  A    between atoms: C_2  and  N_22
REMARK    4  A    between atoms: N_6  and  C_7
REMARK    5  A    between atoms: C_15  and  C_17
REMARK    6  A    between atoms: C_17  and  O_19
REMARK    7  A    between atoms: O_19  and  C_20
REMARK                            x       y       z     vdW  Elec       q    Type
REMARK                         _______ _______ _______ _____ _____    ______ ____
ROOT
ATOM      1  C   UNL     1       0.665  -0.335  -1.311  0.00  0.00    +0.203 C 
ATOM      2  O   UNL     1       1.759  -0.835  -1.157  0.00  0.00    -0.277 OA
ATOM      3  N   UNL     1       0.160  -0.190  -2.552  0.00  0.00    -0.288 N 
ATOM      4  H   UNL     1      -0.735   0.163  -2.673  0.00  0.00    +0.155 HD
ENDROOT
BRANCH   3   5
ATOM      5  C   UNL     1       0.907  -0.539  -3.637  0.00  0.00    +0.053 C 
ATOM      6  C   UNL     1       0.660  -0.216  -4.960  0.00  0.00    +0.019 A 
ATOM      7  C   UNL     1      -0.371   0.526  -5.586  0.00  0.00    +0.026 A 
ATOM      8  C   UNL     1      -0.361   0.685  -6.933  0.00  0.00    +0.019 A 
ATOM      9  C   UNL     1       0.646   0.132  -7.729  0.00  0.00    +0.017 A 
ATOM     10  C   UNL     1       1.663  -0.589  -7.199  0.00  0.00    +0.027 A 
ATOM     11  C   UNL     1       1.723  -0.799  -5.797  0.00  0.00    +0.045 A 
ATOM     12  N   UNL     1       2.591  -1.452  -5.049  0.00  0.00    -0.367 N 
ATOM     13  C   UNL     1       2.182  -1.353  -3.644  0.00  0.00    +0.234 C 
ATOM     14 BR   UNL     1      -1.746   1.678  -7.754  0.00  0.00    -0.050 Br
ATOM     15  H   UNL     1       3.376  -1.918  -5.375  0.00  0.00    +0.161 HD
BRANCH  13  16
ATOM     16  C   UNL     1       1.923  -2.728  -3.085  0.00  0.00    +0.335 C 
ATOM     17  O   UNL     1       1.810  -3.672  -3.830  0.00  0.00    -0.248 OA
BRANCH  16  18
ATOM     18  O   UNL     1       1.817  -2.904  -1.758  0.00  0.00    -0.466 OA
ATOM     19  C   UNL     1       1.571  -4.234  -1.297  0.00  0.00    +0.280 C 
ENDBRANCH  16  18
ENDBRANCH  13  16
ENDBRANCH   3   5
BRANCH   1  21
ATOM     20  C   UNL     1      -0.402   1.625  -0.231  0.00  0.00    -0.004 C 
ATOM     21  C   UNL     1      -0.129   0.123  -0.116  0.00  0.00    +0.017 C 
BRANCH  21  22
ATOM     22  N   UNL     1       0.634  -0.143   1.111  0.00  0.00    +0.390 N 
ATOM     23  C   UNL     1       0.887  -1.587   1.229  0.00  0.00    -0.073 C 
ATOM     24  C   UNL     1       1.929  -1.812   2.326  0.00  0.00    +0.017 C 
ATOM     25  C   UNL     1       1.514  -1.085   3.579  0.00  0.00    -0.048 A 
ATOM     26  C   UNL     1       2.119  -1.428   4.778  0.00  0.00    +0.004 A 
ATOM     27  C   UNL     1       1.767  -0.782   5.946  0.00  0.00    +0.000 A 
ATOM     28  C   UNL     1       0.806   0.212   5.920  0.00  0.00    +0.000 A 
ATOM     29  C   UNL     1       0.202   0.553   4.726  0.00  0.00    +0.002 A 
ATOM     30  C   UNL     1       0.553  -0.096   3.552  0.00  0.00    -0.061 A 
ATOM     31  C   UNL     1      -0.138   0.302   2.275  0.00  0.00    -0.042 C 
ATOM     32  H   UNL     1       1.512   0.353   1.077  0.00  0.00    -0.080 HD
ENDBRANCH  21  22
ENDBRANCH   1  21
TORSDOF 5
