REMARK  Name = ZINC63588689
REMARK  8 active torsions:
REMARK  status: ('A' for Active; 'I' for Inactive)
REMARK    1  A    between atoms: C_1  and  C_2
REMARK    2  A    between atoms: C_5  and  N_9
REMARK    3  A    between atoms: C_6  and  C_8
REMARK    4  A    between atoms: N_11  and  C_12
REMARK    5  A    between atoms: C_12  and  C_13
REMARK    6  A    between atoms: C_13  and  C_14
REMARK    7  A    between atoms: N_23  and  C_24
REMARK    8  A    between atoms: C_24  and  C_26
REMARK                            x       y       z     vdW  Elec       q    Type
REMARK                         _______ _______ _______ _____ _____    ______ ____
ROOT
ATOM      1  N   UNL     1      -1.060  -4.531  -0.992  0.00  0.00    -0.328 N 
ATOM      2  C   UNL     1      -0.217  -5.282  -1.759  0.00  0.00    +0.194 C 
ATOM      3  N   UNL     1       0.263  -6.467  -1.285  0.00  0.00    -0.357 N 
ATOM      4  N   UNL     1       0.135  -4.859  -2.964  0.00  0.00    -0.143 NA
ATOM      5  H   UNL     1       0.905  -6.974  -1.807  0.00  0.00    +0.162 HD
ATOM      6  H   UNL     1      -2.000  -4.470  -1.222  0.00  0.00    +0.169 HD
ENDROOT
BRANCH   1  11
ATOM      7  C   UNL     1       0.937  -1.764   3.540  0.00  0.00    +0.044 C 
ATOM      8  C   UNL     1       0.406  -2.498   2.336  0.00  0.00    -0.050 A 
ATOM      9  C   UNL     1       1.282  -3.139   1.478  0.00  0.00    +0.005 A 
ATOM     10  C   UNL     1       0.799  -3.814   0.374  0.00  0.00    +0.026 A 
ATOM     11  C   UNL     1      -0.568  -3.849   0.126  0.00  0.00    +0.045 A 
ATOM     12  C   UNL     1      -1.444  -3.204   0.989  0.00  0.00    -0.027 A 
ATOM     13  C   UNL     1      -0.955  -2.535   2.095  0.00  0.00    +0.008 A 
ATOM     14  C   UNL     1      -2.926  -3.239   0.724  0.00  0.00    +0.046 C 
ENDBRANCH   1  11
BRANCH   4  15
ATOM     15  C   UNL     1      -0.186  -3.620  -3.360  0.00  0.00    +0.270 C 
ATOM     16  O   UNL     1      -0.692  -2.841  -2.572  0.00  0.00    -0.268 OA
BRANCH  15  17
ATOM     17  C   UNL     1       0.075  -3.198  -4.755  0.00  0.00    +0.039 A 
ATOM     18  C   UNL     1       0.544  -4.121  -5.690  0.00  0.00    +0.014 A 
ATOM     19  C   UNL     1       0.785  -3.722  -6.988  0.00  0.00    +0.016 A 
ATOM     20  C   UNL     1       0.562  -2.408  -7.364  0.00  0.00    +0.018 A 
ATOM     21  C   UNL     1       0.097  -1.487  -6.440  0.00  0.00    +0.016 A 
ATOM     22  C   UNL     1      -0.153  -1.877  -5.140  0.00  0.00    +0.014 A 
ATOM     23 BR   UNL     1       0.895  -1.868  -9.145  0.00  0.00    -0.050 Br
ENDBRANCH  15  17
ENDBRANCH   4  15
BRANCH   3  24
ATOM     24  C   UNL     1      -0.190  -6.975   0.013  0.00  0.00    +0.120 C 
BRANCH  24  25
ATOM     25  C   UNL     1       0.537  -8.283   0.331  0.00  0.00    +0.054 C 
BRANCH  25  26
ATOM     26  C   UNL     1      -0.013  -8.866   1.607  0.00  0.00    -0.040 C 
ATOM     27  C   UNL     1      -1.122  -9.629   1.740  0.00  0.00    -0.001 A 
ATOM     28  C   UNL     1      -2.110 -10.124   0.775  0.00  0.00    +0.010 A 
ATOM     29  C   UNL     1      -3.137 -10.885   1.218  0.00  0.00    +0.001 A 
ATOM     30  C   UNL     1      -3.281 -11.210   2.574  0.00  0.00    +0.002 A 
ATOM     31  C   UNL     1      -2.414 -10.791   3.521  0.00  0.00    +0.026 A 
ATOM     32  C   UNL     1      -1.297  -9.986   3.166  0.00  0.00    +0.043 A 
ATOM     33  N   UNL     1      -0.334  -9.465   3.886  0.00  0.00    -0.380 N 
ATOM     34  C   UNL     1       0.565  -8.721   2.997  0.00  0.00    +0.144 C 
ATOM     35  H   UNL     1      -0.230  -9.558   4.846  0.00  0.00    +0.160 HD
ENDBRANCH  25  26
ENDBRANCH  24  25
ENDBRANCH   3  24
TORSDOF 6
