REMARK  Name = ZINC13500203
REMARK  10 active torsions:
REMARK  status: ('A' for Active; 'I' for Inactive)
REMARK    1  A    between atoms: C_1  and  C_2
REMARK    2  A    between atoms: C_2  and  C_3
REMARK    3  A    between atoms: C_3  and  C_4
REMARK    4  A    between atoms: C_4  and  C_6
REMARK    5  A    between atoms: C_4  and  N_72
REMARK    6  A    between atoms: N_10  and  C_11
REMARK    7  A    between atoms: C_11  and  C_12
REMARK    8  A    between atoms: C_18  and  C_19
REMARK    9  A    between atoms: C_18  and  N_72
REMARK   10  A    between atoms: C_34  and  N_72
REMARK                            x       y       z     vdW  Elec       q    Type
REMARK                         _______ _______ _______ _____ _____    ______ ____
ROOT
ATOM      1  N   UNL     1      -1.557   0.929   0.986  0.00  0.00    +0.391 N 
ATOM      2  H   UNL     1      -1.399  -0.081   1.077  0.00  0.00    -0.080 HD
ENDROOT
BRANCH   1   3
ATOM      3  C   UNL     1      -2.534   1.357   2.009  0.00  0.00    -0.067 C 
ATOM      4  C   UNL     1      -1.806   1.627   3.326  0.00  0.00    -0.015 C 
ATOM      5  C   UNL     1      -2.820   2.043   4.394  0.00  0.00    -0.002 C 
ATOM      6  C   UNL     1      -3.838   0.919   4.595  0.00  0.00    -0.000 C 
ATOM      7  C   UNL     1      -4.567   0.650   3.277  0.00  0.00    -0.002 C 
ATOM      8  C   UNL     1      -3.553   0.234   2.210  0.00  0.00    -0.015 C 
ENDBRANCH   1   3
BRANCH   1   9
ATOM      9  C   UNL     1      -0.274   1.635   1.187  0.00  0.00    +0.003 C 
BRANCH   9  10
ATOM     10  C   UNL     1       0.824   0.835   0.535  0.00  0.00    +0.138 A 
ATOM     11  N   UNL     1       0.767   0.230  -0.626  0.00  0.00    -0.115 NA
ATOM     12  N   UNL     1       1.903  -0.342  -0.833  0.00  0.00    -0.023 NA
ATOM     13  N   UNL     1       2.680  -0.124   0.170  0.00  0.00    -0.044 NA
ATOM     14  N   UNL     1       2.051   0.598   1.034  0.00  0.00    -0.226 N 
BRANCH  14  15
ATOM     15  C   UNL     1       2.574   1.070   2.319  0.00  0.00    +0.182 C 
BRANCH  15  16
ATOM     16  C   UNL     1       2.405  -0.009   3.357  0.00  0.00    -0.026 A 
ATOM     17  C   UNL     1       1.246  -0.071   4.107  0.00  0.00    +0.005 A 
ATOM     18  C   UNL     1       1.089  -1.064   5.056  0.00  0.00    +0.000 A 
ATOM     19  C   UNL     1       2.096  -1.988   5.263  0.00  0.00    +0.000 A 
ATOM     20  C   UNL     1       3.258  -1.922   4.517  0.00  0.00    +0.000 A 
ATOM     21  C   UNL     1       3.413  -0.933   3.564  0.00  0.00    +0.005 A 
ENDBRANCH  15  16
ENDBRANCH  14  15
ENDBRANCH   9  10
BRANCH   9  22
ATOM     22  C   UNL     1      -0.328   3.031   0.563  0.00  0.00    -0.008 C 
BRANCH  22  24
ATOM     23  C   UNL     1      -1.285   5.327   0.798  0.00  0.00    +0.004 C 
ATOM     24  C   UNL     1      -1.342   3.890   1.321  0.00  0.00    -0.005 C 
ENDBRANCH  22  24
ENDBRANCH   9  22
ENDBRANCH   1   9
BRANCH   1  25
ATOM     25  C   UNL     1      -2.083   1.213  -0.366  0.00  0.00    -0.036 C 
BRANCH  25  26
ATOM     26  C   UNL     1      -3.295   0.351  -0.607  0.00  0.00    +0.001 A 
ATOM     27  C   UNL     1      -4.538   0.882  -0.484  0.00  0.00    +0.017 A 
ATOM     28  C   UNL     1      -5.694   0.022  -0.731  0.00  0.00    +0.002 A 
ATOM     29  C   UNL     1      -7.000   0.518  -0.623  0.00  0.00    +0.059 A 
ATOM     30  C   UNL     1      -8.069  -0.318  -0.858  0.00  0.00    +0.167 A 
ATOM     31  C   UNL     1      -7.855  -1.658  -1.203  0.00  0.00    +0.168 A 
ATOM     32  C   UNL     1      -6.569  -2.156  -1.310  0.00  0.00    +0.075 A 
ATOM     33  C   UNL     1      -5.480  -1.327  -1.076  0.00  0.00    +0.053 A 
ATOM     34  N   UNL     1      -4.190  -1.807  -1.179  0.00  0.00    -0.322 N 
ATOM     35  H   UNL     1      -4.043  -2.736  -1.416  0.00  0.00    +0.169 HD
ATOM     36  C   UNL     1      -3.134  -1.006  -0.954  0.00  0.00    +0.251 A 
ATOM     37  O   UNL     1      -2.009  -1.464  -1.053  0.00  0.00    -0.268 OA
ATOM     38  O   UNL     1      -9.067  -2.258  -1.381  0.00  0.00    -0.453 OA
ATOM     39  C   UNL     1     -10.010  -1.183  -1.544  0.00  0.00    +0.466 C 
ATOM     40  O   UNL     1      -9.415  -0.089  -0.821  0.00  0.00    -0.453 OA
ENDBRANCH  25  26
ENDBRANCH   1  25
TORSDOF 9
