REMARK  Name = ZINC37299441
REMARK  3 active torsions:
REMARK  status: ('A' for Active; 'I' for Inactive)
REMARK    1  A    between atoms: C_10  and  N_12
REMARK    2  A    between atoms: N_12  and  C_13
REMARK    3  A    between atoms: C_17  and  N_19
REMARK                            x       y       z     vdW  Elec       q    Type
REMARK                         _______ _______ _______ _____ _____    ______ ____
ROOT
ATOM      1  N   UNL     1       4.651   0.203  -0.814  0.00  0.00    -0.336 N 
ATOM      2  H   UNL     1       4.277   0.742  -1.529  0.00  0.00    +0.147 HD
ENDROOT
BRANCH   1  12
ATOM      3  C   UNL     1      -0.017   1.371   0.010  0.00  0.00    +0.000 A 
ATOM      4  C   UNL     1       1.181   2.063   0.002  0.00  0.00    +0.000 A 
ATOM      5  C   UNL     1       2.365   1.366  -0.003  0.00  0.00    +0.006 A 
ATOM      6  C   UNL     1       2.392  -0.034  -0.007  0.00  0.00    -0.023 A 
ATOM      7  C   UNL     1       1.204  -0.714  -0.017  0.00  0.00    -0.033 A 
ATOM      8  C   UNL     1       0.002  -0.004   0.002  0.00  0.00    +0.005 A 
ATOM      9  C   UNL     1       1.049  -2.215  -0.072  0.00  0.00    +0.104 C 
ATOM     10  S   UNL     1       2.594  -3.025   0.426  0.00  0.00    -0.154 S 
ATOM     11  C   UNL     1       3.831  -2.058  -0.497  0.00  0.00    +0.096 C 
ATOM     12  C   UNL     1       3.772  -0.626   0.014  0.00  0.00    +0.111 C 
ENDBRANCH   1  12
BRANCH   1  13
ATOM     13  C   UNL     1       6.027   0.217  -0.575  0.00  0.00    +0.030 A 
ATOM     14  C   UNL     1       6.565  -0.559   0.444  0.00  0.00    +0.024 A 
ATOM     15  C   UNL     1       7.926  -0.543   0.678  0.00  0.00    +0.024 A 
ATOM     16  C   UNL     1       8.754   0.246  -0.101  0.00  0.00    +0.071 A 
ATOM     17  C   UNL     1       8.221   1.020  -1.117  0.00  0.00    +0.146 A 
ATOM     18  C   UNL     1       6.862   1.003  -1.359  0.00  0.00    +0.057 A 
ATOM     19 CL   UNL     1      10.464   0.264   0.196  0.00  0.00    -0.081 Cl
BRANCH  17  20
ATOM     20  N   UNL     1       9.110   1.863  -1.948  0.00  0.00    +0.058 N 
ATOM     21  O   UNL     1       8.645   2.539  -2.836  0.00  0.00    -0.126 OA
ATOM     22  O   UNL     1      10.301   1.874  -1.740  0.00  0.00    -0.126 OA
ENDBRANCH  17  20
ENDBRANCH   1  13
TORSDOF 3
