REMARK  Name = ZINC09137691
REMARK  7 active torsions:
REMARK  status: ('A' for Active; 'I' for Inactive)
REMARK    1  A    between atoms: C_1  and  C_2
REMARK    2  A    between atoms: C_2  and  O_3
REMARK    3  A    between atoms: O_3  and  C_4
REMARK    4  A    between atoms: C_12  and  C_14
REMARK    5  A    between atoms: C_14  and  S_15
REMARK    6  A    between atoms: S_15  and  C_16
REMARK    7  A    between atoms: N_28  and  C_29
REMARK                            x       y       z     vdW  Elec       q    Type
REMARK                         _______ _______ _______ _____ _____    ______ ____
ROOT
ATOM      1  S   UNL     1       1.056   7.995   0.046  0.00  0.00    -0.078 S 
ENDROOT
BRANCH   1   2
ATOM      2  C   UNL     1       1.160   6.236   0.033  0.00  0.00    +0.173 A 
ATOM      3  N   UNL     1       0.053   5.521   0.036  0.00  0.00    -0.216 NA
ATOM      4  C   UNL     1       0.103   4.193   0.027  0.00  0.00    +0.117 A 
ATOM      5  C   UNL     1       1.319   3.494   0.013  0.00  0.00    +0.076 A 
ATOM      6  C   UNL     1       1.218   2.025   0.001  0.00  0.00    -0.023 A 
ATOM      7  C   UNL     1      -0.018   1.501   0.010  0.00  0.00    -0.004 A 
ATOM      8  S   UNL     1      -1.113   2.903   0.022  0.00  0.00    -0.073 S 
ATOM      9  C   UNL     1       0.002  -0.004   0.002  0.00  0.00    +0.043 C 
ATOM     10  C   UNL     1       1.441  -0.374   0.424  0.00  0.00    +0.010 C 
ATOM     11  C   UNL     1       2.228   0.874  -0.019  0.00  0.00    +0.037 C 
ATOM     12  C   UNL     1       2.504   4.294   0.011  0.00  0.00    +0.263 A 
ATOM     13  O   UNL     1       3.605   3.770  -0.001  0.00  0.00    -0.267 OA
ATOM     14  N   UNL     1       2.385   5.635   0.021  0.00  0.00    -0.290 N 
ATOM     15  C   UNL     1       3.593   6.464   0.020  0.00  0.00    +0.154 C 
ENDBRANCH   1   2
BRANCH   1  16
ATOM     16  C   UNL     1      -0.742   8.204   0.059  0.00  0.00    +0.173 C 
BRANCH  16  25
ATOM     17  C   UNL     1      -5.994  11.186   1.305  0.00  0.00    +0.403 C 
ATOM     18  O   UNL     1      -6.264  12.371   1.316  0.00  0.00    -0.226 OA
ATOM     19  N   UNL     1      -4.706  10.788   1.295  0.00  0.00    -0.264 N 
ATOM     20  C   UNL     1      -3.618  11.776   1.295  0.00  0.00    +0.130 C 
ATOM     21  C   UNL     1      -2.705  11.501   0.094  0.00  0.00    +0.127 C 
ATOM     22  N   UNL     1      -2.364  10.071   0.082  0.00  0.00    -0.298 N 
ATOM     23  C   UNL     1      -3.452   9.083   0.076  0.00  0.00    +0.127 C 
ATOM     24  C   UNL     1      -4.365   9.359   1.282  0.00  0.00    +0.130 C 
ATOM     25  C   UNL     1      -1.076   9.674   0.071  0.00  0.00    +0.226 C 
ATOM     26  O   UNL     1      -0.187  10.498   0.071  0.00  0.00    -0.275 OA
BRANCH  17  27
ATOM     27  O   UNL     1      -6.981  10.271   1.305  0.00  0.00    -0.451 OA
BRANCH  27  29
ATOM     28  C   UNL     1      -9.320   9.593   1.314  0.00  0.00    +0.048 C 
ATOM     29  C   UNL     1      -8.344  10.771   1.317  0.00  0.00    +0.230 C 
ENDBRANCH  27  29
ENDBRANCH  17  27
ENDBRANCH  16  25
ENDBRANCH   1  16
TORSDOF 5
