REMARK  Name = ZINC20343817
REMARK  5 active torsions:
REMARK  status: ('A' for Active; 'I' for Inactive)
REMARK    1  A    between atoms: C_1  and  C_2
REMARK    2  A    between atoms: N_9  and  C_10
REMARK    3  A    between atoms: C_13  and  O_16
REMARK    4  A    between atoms: O_16  and  C_17
REMARK    5  A    between atoms: N_18  and  C_19
REMARK                            x       y       z     vdW  Elec       q    Type
REMARK                         _______ _______ _______ _____ _____    ______ ____
ROOT
ATOM      1  C   UNL     1      -2.620   1.953   2.593  0.00  0.00    +0.053 C 
ATOM      2  C   UNL     1      -1.308   2.326   1.953  0.00  0.00    +0.007 A 
ATOM      3  C   UNL     1      -0.386   1.510   1.393  0.00  0.00    +0.058 A 
ATOM      4  C   UNL     1       0.751   2.111   0.860  0.00  0.00    +0.140 A 
ATOM      5  N   UNL     1       1.704   1.403   0.288  0.00  0.00    -0.283 NA
ATOM      6  N   UNL     1       0.830   3.483   0.958  0.00  0.00    -0.235 N 
ATOM      7  S   UNL     1      -0.619   3.902   1.760  0.00  0.00    -0.007 S 
ATOM      8  C   UNL     1       1.835   4.315   0.518  0.00  0.00    +0.213 C 
ATOM      9  N   UNL     1       2.957   3.806   0.065  0.00  0.00    -0.284 N 
ATOM     10  N   UNL     1       1.663   5.679   0.553  0.00  0.00    -0.214 NA
ATOM     11  H   UNL     1       1.623   0.438   0.231  0.00  0.00    +0.188 HD
ATOM     12  H   UNL     1       3.092   2.715   0.033  0.00  0.00    +0.155 HD
ENDROOT
BRANCH  10  13
ATOM     13  C   UNL     1       0.404   6.232   0.298  0.00  0.00    +0.087 A 
ATOM     14  C   UNL     1      -0.564   5.484  -0.360  0.00  0.00    +0.049 A 
ATOM     15  C   UNL     1      -1.809   6.031  -0.605  0.00  0.00    +0.043 A 
ATOM     16  C   UNL     1      -2.088   7.327  -0.206  0.00  0.00    +0.021 A 
ATOM     17  C   UNL     1      -1.124   8.076   0.443  0.00  0.00    +0.023 A 
ATOM     18  C   UNL     1       0.121   7.533   0.696  0.00  0.00    +0.066 A 
ATOM     19 CL   UNL     1       1.330   8.474   1.512  0.00  0.00    -0.081 Cl
ATOM     20 CL   UNL     1      -3.023   5.095  -1.420  0.00  0.00    -0.083 Cl
ENDBRANCH  10  13
BRANCH   9  21
ATOM     21  C   UNL     1       3.959   4.635  -0.368  0.00  0.00    +0.034 A 
ATOM     22  C   UNL     1       3.688   5.631  -1.307  0.00  0.00    +0.027 A 
ATOM     23  C   UNL     1       4.698   6.466  -1.735  0.00  0.00    +0.047 A 
ATOM     24  C   UNL     1       5.987   6.309  -1.243  0.00  0.00    +0.120 A 
ATOM     25  C   UNL     1       6.262   5.316  -0.314  0.00  0.00    +0.047 A 
ATOM     26  C   UNL     1       5.256   4.480   0.125  0.00  0.00    +0.027 A 
BRANCH  24  27
ATOM     27  O   UNL     1       6.981   7.131  -1.672  0.00  0.00    -0.495 OA
ATOM     28  C   UNL     1       6.609   8.200  -2.544  0.00  0.00    +0.277 C 
ENDBRANCH  24  27
ENDBRANCH   9  21
TORSDOF 3
