REMARK  Name = ZINC67539178
REMARK  10 active torsions:
REMARK  status: ('A' for Active; 'I' for Inactive)
REMARK    1  A    between atoms: C_1  and  C_2
REMARK    2  A    between atoms: C_9  and  C_11
REMARK    3  A    between atoms: C_11  and  C_13
REMARK    4  A    between atoms: C_11  and  N_14
REMARK    5  A    between atoms: N_17  and  C_18
REMARK    6  A    between atoms: C_21  and  C_24
REMARK    7  A    between atoms: N_26  and  C_27
REMARK    8  A    between atoms: C_27  and  C_28
REMARK    9  A    between atoms: C_27  and  C_29
REMARK   10  A    between atoms: C_27  and  C_30
REMARK                            x       y       z     vdW  Elec       q    Type
REMARK                         _______ _______ _______ _____ _____    ______ ____
ROOT
ATOM      1  N   UNL     1       2.548   0.961   4.046  0.00  0.00    -0.288 N 
ATOM      2  C   UNL     1       2.910   0.680   5.313  0.00  0.00    +0.304 C 
ATOM      3  O   UNL     1       3.018  -0.476   5.673  0.00  0.00    -0.252 OA
ATOM      4  N   UNL     1       3.153   1.681   6.182  0.00  0.00    -0.269 N 
ATOM      5  H   UNL     1       2.462   1.883   3.759  0.00  0.00    +0.151 HD
ATOM      6  H   UNL     1       2.996   2.601   5.918  0.00  0.00    +0.156 HD
ENDROOT
BRANCH   4   7
ATOM      7  C   UNL     1       3.629   1.395   7.461  0.00  0.00    +0.035 A 
ATOM      8  C   UNL     1       4.490   0.319   7.656  0.00  0.00    +0.024 A 
ATOM      9  C   UNL     1       4.963   0.033   8.917  0.00  0.00    +0.015 A 
ATOM     10  C   UNL     1       4.577   0.826  10.002  0.00  0.00    +0.037 A 
ATOM     11  C   UNL     1       3.713   1.905   9.802  0.00  0.00    +0.015 A 
ATOM     12  C   UNL     1       3.248   2.189   8.538  0.00  0.00    +0.024 A 
BRANCH  10  13
ATOM     13  C   UNL     1       5.081   0.522  11.355  0.00  0.00    +0.244 C 
ATOM     14  O   UNL     1       5.833  -0.418  11.527  0.00  0.00    -0.270 OA
ATOM     15  N   UNL     1       4.708   1.287  12.400  0.00  0.00    -0.307 N 
ATOM     16  H   UNL     1       4.109   2.037  12.263  0.00  0.00    +0.150 HD
BRANCH  15  17
ATOM     17  C   UNL     1       5.209   0.985  13.744  0.00  0.00    +0.026 C 
ATOM     18  C   UNL     1       6.737   1.070  13.750  0.00  0.00    +0.031 C 
ATOM     19  C   UNL     1       4.638   1.997  14.740  0.00  0.00    +0.031 C 
ATOM     20  C   UNL     1       4.775  -0.426  14.145  0.00  0.00    +0.031 C 
ENDBRANCH  15  17
ENDBRANCH  10  13
ENDBRANCH   4   7
BRANCH   1  21
ATOM     21  C   UNL     1       2.284  -0.128   3.102  0.00  0.00    +0.157 C 
ATOM     22  C   UNL     1       3.600  -0.584   2.469  0.00  0.00    +0.038 C 
BRANCH  21  30
ATOM     23  C   UNL     1       0.028   1.450  -0.046  0.00  0.00    +0.028 C 
ATOM     24  C   UNL     1      -0.100  -0.068   0.097  0.00  0.00    +0.073 C 
ATOM     25  C   UNL     1       0.382  -0.747  -1.189  0.00  0.00    +0.022 C 
ATOM     26  C   UNL     1       0.384  -2.264  -0.990  0.00  0.00    +0.003 C 
ATOM     27  C   UNL     1       1.348  -2.631   0.140  0.00  0.00    +0.019 C 
ATOM     28  C   UNL     1       0.878  -1.973   1.441  0.00  0.00    +0.108 C 
ATOM     29  N   UNL     1       0.731  -0.528   1.218  0.00  0.00    -0.297 N 
ATOM     30  C   UNL     1       1.350   0.358   2.023  0.00  0.00    +0.236 C 
ATOM     31  O   UNL     1       1.155   1.547   1.880  0.00  0.00    -0.274 OA
ENDBRANCH  21  30
ENDBRANCH   1  21
TORSDOF 5
