REMARK  Name = ZINC25384021
REMARK  10 active torsions:
REMARK  status: ('A' for Active; 'I' for Inactive)
REMARK    1  A    between atoms: C_1  and  C_2
REMARK    2  A    between atoms: C_2  and  C_3
REMARK    3  A    between atoms: C_3  and  C_4
REMARK    4  A    between atoms: C_4  and  C_5
REMARK    5  A    between atoms: C_5  and  C_7
REMARK    6  A    between atoms: C_5  and  N_23
REMARK    7  A    between atoms: N_9  and  C_10
REMARK    8  A    between atoms: C_10  and  C_11
REMARK    9  A    between atoms: C_11  and  C_13
REMARK   10  A    between atoms: C_11  and  N_18
REMARK                            x       y       z     vdW  Elec       q    Type
REMARK                         _______ _______ _______ _____ _____    ______ ____
ROOT
ATOM      1  C   UNL     1       4.742   4.643   0.096  0.00  0.00    +0.158 C 
ENDROOT
BRANCH   1   2
ATOM      2  N   UNL     1       3.600   3.726   0.046  0.00  0.00    -0.316 N 
ATOM      3  C   UNL     1       2.317   4.216   0.153  0.00  0.00    +0.150 C 
ATOM      4  N   UNL     1       2.112   5.487   0.298  0.00  0.00    -0.113 NA
ATOM      5  S   UNL     1       0.451   5.674   0.390  0.00  0.00    +0.101 S 
ATOM      6  O   UNL     1       0.029   6.365  -0.778  0.00  0.00    -0.146 OA
ATOM      7  O   UNL     1       0.134   6.099   1.708  0.00  0.00    -0.146 OA
ATOM      8  C   UNL     1      -0.054   3.983   0.230  0.00  0.00    +0.123 A 
ATOM      9  C   UNL     1       1.165   3.303   0.105  0.00  0.00    +0.043 A 
ATOM     10  C   UNL     1       1.114   1.909  -0.042  0.00  0.00    +0.013 A 
ATOM     11  C   UNL     1      -0.098   1.256  -0.059  0.00  0.00    +0.001 A 
ATOM     12  C   UNL     1      -1.286   1.955   0.061  0.00  0.00    +0.002 A 
ATOM     13  C   UNL     1      -1.254   3.334   0.213  0.00  0.00    +0.030 A 
ATOM     14  H   UNL     1       3.768   2.646  -0.076  0.00  0.00    +0.148 HD
ENDBRANCH   1   2
BRANCH   1  15
ATOM     15  C   UNL     1       5.913   4.026  -0.625  0.00  0.00    +0.233 C 
ATOM     16  O   UNL     1       5.805   2.929  -1.129  0.00  0.00    -0.274 OA
ATOM     17  N   UNL     1       7.080   4.694  -0.708  0.00  0.00    -0.312 N 
ATOM     18  H   UNL     1       7.178   5.690  -0.250  0.00  0.00    +0.149 HD
BRANCH  17  19
ATOM     19  C   UNL     1       8.219   4.095  -1.408  0.00  0.00    +0.128 C 
BRANCH  19  20
ATOM     20  C   UNL     1       9.372   5.099  -1.460  0.00  0.00    +0.111 C 
BRANCH  20  21
ATOM     21  C   UNL     1       9.868   5.367  -0.062  0.00  0.00    +0.008 A 
ATOM     22  C   UNL     1       9.597   6.416   0.753  0.00  0.00    +0.013 A 
ATOM     23  C   UNL     1      10.171   6.453   2.010  0.00  0.00    +0.008 A 
ATOM     24  C   UNL     1      10.986   5.440   2.391  0.00  0.00    +0.045 A 
ATOM     25  S   UNL     1      10.958   4.383   0.953  0.00  0.00    -0.100 S 
ENDBRANCH  20  21
BRANCH  20  26
ATOM     26  N   UNL     1      10.466   4.547  -2.270  0.00  0.00    -0.294 NA
ATOM     27  C   UNL     1      10.010   4.255  -3.653  0.00  0.00    +0.085 C 
ATOM     28  C   UNL     1      11.331   4.206  -4.460  0.00  0.00    +0.017 C 
ATOM     29  C   UNL     1      12.176   5.325  -3.809  0.00  0.00    +0.017 C 
ATOM     30  C   UNL     1      11.569   5.524  -2.407  0.00  0.00    +0.085 C 
ENDBRANCH  20  26
ENDBRANCH  19  20
ENDBRANCH  17  19
ENDBRANCH   1  15
BRANCH   1  31
ATOM     31  C   UNL     1       5.121   4.907   1.554  0.00  0.00    +0.032 C 
BRANCH  31  32
ATOM     32  C   UNL     1       3.978   5.646   2.253  0.00  0.00    +0.002 C 
BRANCH  32  34
ATOM     33  C   UNL     1       3.214   6.648   4.410  0.00  0.00    +0.004 C 
ATOM     34  C   UNL     1       4.358   5.910   3.711  0.00  0.00    -0.003 C 
ENDBRANCH  32  34
ENDBRANCH  31  32
ENDBRANCH   1  31
TORSDOF 9
