REMARK  Name = ZINC35483602
REMARK  9 active torsions:
REMARK  status: ('A' for Active; 'I' for Inactive)
REMARK    1  A    between atoms: C_1  and  C_2
REMARK    2  A    between atoms: C_9  and  C_12
REMARK    3  A    between atoms: C_10  and  C_11
REMARK    4  A    between atoms: C_12  and  C_13
REMARK    5  A    between atoms: C_14  and  C_31
REMARK    6  A    between atoms: C_23  and  C_30
REMARK    7  A    between atoms: C_24  and  C_26
REMARK    8  A    between atoms: C_26  and  O_28
REMARK    9  A    between atoms: O_28  and  C_29
REMARK                            x       y       z     vdW  Elec       q    Type
REMARK                         _______ _______ _______ _____ _____    ______ ____
ROOT
ATOM      1  C   UNL     1      -0.232  -0.068   5.574  0.00  0.00    +0.078 C 
ATOM      2  C   UNL     1      -0.563   1.237   4.889  0.00  0.00    +0.152 C 
ATOM      3  N   UNL     1      -0.504   2.272   5.929  0.00  0.00    -0.232 N 
ATOM      4  C   UNL     1      -0.179   1.673   7.089  0.00  0.00    +0.293 C 
ATOM      5  O   UNL     1      -0.046   2.243   8.154  0.00  0.00    -0.266 OA
ATOM      6  C   UNL     1      -0.014   0.221   6.879  0.00  0.00    +0.250 C 
ATOM      7  O   UNL     1       0.307  -0.678   7.838  0.00  0.00    -0.282 OA
ATOM      8  C   UNL     1      -0.739   3.621   5.748  0.00  0.00    +0.169 A 
ATOM      9  N   UNL     1      -0.692   4.587   6.648  0.00  0.00    -0.229 NA
ATOM     10  C   UNL     1      -0.940   5.832   6.329  0.00  0.00    +0.062 A 
ATOM     11  C   UNL     1      -1.253   6.077   4.998  0.00  0.00    +0.120 A 
ATOM     12  S   UNL     1      -1.146   4.426   4.326  0.00  0.00    -0.045 S 
ATOM     13  C   UNL     1      -0.889   6.939   7.351  0.00  0.00    +0.067 C 
ENDROOT
BRANCH   2  14
ATOM     14  C   UNL     1       0.448   1.528   3.810  0.00  0.00    -0.022 A 
ATOM     15  C   UNL     1       1.696   2.019   4.147  0.00  0.00    +0.008 A 
ATOM     16  C   UNL     1       2.624   2.286   3.159  0.00  0.00    +0.038 A 
ATOM     17  C   UNL     1       2.304   2.061   1.831  0.00  0.00    +0.123 A 
ATOM     18  C   UNL     1       1.055   1.569   1.494  0.00  0.00    +0.038 A 
ATOM     19  C   UNL     1       0.130   1.298   2.485  0.00  0.00    +0.008 A 
ATOM     20  F   UNL     1       3.211   2.321   0.864  0.00  0.00    -0.205 F 
ENDBRANCH   2  14
BRANCH   1  21
ATOM     21  C   UNL     1      -0.165  -1.392   4.948  0.00  0.00    +0.215 C 
ATOM     22  O   UNL     1      -0.558  -1.546   3.807  0.00  0.00    -0.285 OA
BRANCH  21  31
ATOM     23  C   UNL     1       2.349  -3.246   9.547  0.00  0.00    +0.047 C 
ATOM     24  C   UNL     1       1.961  -4.190   8.438  0.00  0.00    -0.008 A 
ATOM     25  C   UNL     1       2.217  -5.520   8.549  0.00  0.00    +0.008 A 
ATOM     26  C   UNL     1       1.851  -6.390   7.508  0.00  0.00    +0.018 A 
ATOM     27  C   UNL     1       1.247  -5.911   6.401  0.00  0.00    +0.093 A 
ATOM     28  N   UNL     1       0.983  -4.576   6.274  0.00  0.00    -0.303 N 
ATOM     29  C   UNL     1       1.323  -3.702   7.277  0.00  0.00    +0.141 A 
ATOM     30  N   UNL     1       0.958  -2.483   6.916  0.00  0.00    -0.224 NA
ATOM     31  C   UNL     1       0.380  -2.538   5.703  0.00  0.00    +0.133 A 
ATOM     32  C   UNL     1       0.397  -3.850   5.282  0.00  0.00    +0.051 A 
ATOM     33  C   UNL     1      -0.145  -4.382   3.981  0.00  0.00    +0.066 C 
ENDBRANCH  21  31
ENDBRANCH   1  21
BRANCH  11  34
ATOM     34  C   UNL     1      -1.576   7.337   4.332  0.00  0.00    +0.347 C 
ATOM     35  O   UNL     1      -1.595   8.374   4.968  0.00  0.00    -0.244 OA
BRANCH  34  36
ATOM     36  O   UNL     1      -1.853   7.350   3.011  0.00  0.00    -0.464 OA
ATOM     37  C   UNL     1      -2.160   8.617   2.426  0.00  0.00    +0.280 C 
ENDBRANCH  34  36
ENDBRANCH  11  34
TORSDOF 5
