REMARK  Name = ZINC20414242
REMARK  8 active torsions:
REMARK  status: ('A' for Active; 'I' for Inactive)
REMARK    1  A    between atoms: C_3  and  O_32
REMARK    2  A    between atoms: C_6  and  C_7
REMARK    3  A    between atoms: C_8  and  C_9
REMARK    4  A    between atoms: N_11  and  C_22
REMARK    5  A    between atoms: C_12  and  C_15
REMARK    6  A    between atoms: C_18  and  O_21
REMARK    7  A    between atoms: C_25  and  S_28
REMARK    8  A    between atoms: S_28  and  N_31
REMARK                            x       y       z     vdW  Elec       q    Type
REMARK                         _______ _______ _______ _____ _____    ______ ____
ROOT
ATOM      1  C   UNL     1       0.002  -0.004   0.002  0.00  0.00    +0.062 C 
ATOM      2  N   UNL     1      -1.044  -0.766   0.007  0.00  0.00    -0.184 NA
ATOM      3  N   UNL     1      -0.753  -2.128  -0.003  0.00  0.00    -0.216 N 
ATOM      4  C   UNL     1       0.708  -2.304  -0.017  0.00  0.00    +0.134 C 
ATOM      5  C   UNL     1       1.248  -0.860  -0.021  0.00  0.00    +0.086 C 
ENDROOT
BRANCH   4   6
ATOM      6  C   UNL     1       1.165  -3.043   1.214  0.00  0.00    -0.025 A 
ATOM      7  C   UNL     1       0.572  -2.781   2.436  0.00  0.00    +0.009 A 
ATOM      8  C   UNL     1       0.985  -3.462   3.565  0.00  0.00    +0.046 A 
ATOM      9  C   UNL     1       2.003  -4.400   3.475  0.00  0.00    +0.117 A 
ATOM     10  C   UNL     1       2.600  -4.657   2.249  0.00  0.00    +0.046 A 
ATOM     11  C   UNL     1       2.179  -3.978   1.122  0.00  0.00    +0.009 A 
BRANCH   9  12
ATOM     12  O   UNL     1       2.416  -5.066   4.585  0.00  0.00    -0.507 OA
ATOM     13  H   UNL     1       3.223  -5.809   4.513  0.00  0.00    +0.292 HD
ENDBRANCH   9  12
ENDBRANCH   4   6
BRANCH   3  14
ATOM     14  C   UNL     1      -1.694  -3.158  -0.000  0.00  0.00    +0.052 A 
ATOM     15  C   UNL     1      -1.275  -4.484  -0.017  0.00  0.00    +0.027 A 
ATOM     16  C   UNL     1      -2.209  -5.500  -0.010  0.00  0.00    +0.030 A 
ATOM     17  C   UNL     1      -3.560  -5.201   0.004  0.00  0.00    +0.105 A 
ATOM     18  C   UNL     1      -3.980  -3.884   0.015  0.00  0.00    +0.030 A 
ATOM     19  C   UNL     1      -3.051  -2.861   0.013  0.00  0.00    +0.027 A 
BRANCH  17  20
ATOM     20  S   UNL     1      -4.748  -6.503   0.005  0.00  0.00    +0.056 S 
ATOM     21  O   UNL     1      -4.098  -7.646   0.543  0.00  0.00    -0.153 OA
ATOM     22  O   UNL     1      -5.937  -5.966   0.570  0.00  0.00    -0.153 OA
BRANCH  20  23
ATOM     23  N   UNL     1      -5.091  -6.854  -1.576  0.00  0.00    -0.204 NA
ATOM     24  H   UNL     1      -5.833  -7.665  -1.619  0.00  0.00    +0.144 HD
ATOM     25  H   UNL     1      -4.171  -7.171  -2.089  0.00  0.00    +0.144 HD
ENDBRANCH  20  23
ENDBRANCH  17  20
ENDBRANCH   3  14
BRANCH   1  27
ATOM     26  C   UNL     1      -1.195   2.072   0.019  0.00  0.00    +0.010 C 
ATOM     27  C   UNL     1      -0.017   1.413   0.010  0.00  0.00    +0.025 C 
BRANCH  26  33
ATOM     28  C   UNL     1      -0.014   4.261   0.031  0.00  0.00    +0.011 A 
ATOM     29  C   UNL     1      -0.039   5.639   0.032  0.00  0.00    +0.046 A 
ATOM     30  C   UNL     1      -1.252   6.315   0.042  0.00  0.00    +0.117 A 
ATOM     31  C   UNL     1      -2.447   5.606   0.044  0.00  0.00    +0.046 A 
ATOM     32  C   UNL     1      -2.434   4.229   0.037  0.00  0.00    +0.011 A 
ATOM     33  C   UNL     1      -1.215   3.543   0.027  0.00  0.00    -0.025 A 
BRANCH  30  34
ATOM     34  O   UNL     1      -1.271   7.673   0.050  0.00  0.00    -0.507 OA
ATOM     35  H   UNL     1      -2.231   8.210   0.057  0.00  0.00    +0.292 HD
ENDBRANCH  30  34
ENDBRANCH  26  33
ENDBRANCH   1  27
TORSDOF 8
