REMARK  Name = ZINC66421448
REMARK  8 active torsions:
REMARK  status: ('A' for Active; 'I' for Inactive)
REMARK    1  A    between atoms: C_1  and  C_2
REMARK    2  A    between atoms: C_2  and  C_3
REMARK    3  A    between atoms: C_3  and  C_4
REMARK    4  A    between atoms: C_6  and  C_10
REMARK    5  A    between atoms: N_15  and  C_18
REMARK    6  A    between atoms: C_18  and  C_19
REMARK    7  A    between atoms: N_21  and  C_22
REMARK    8  A    between atoms: C_27  and  C_30
REMARK                            x       y       z     vdW  Elec       q    Type
REMARK                         _______ _______ _______ _____ _____    ______ ____
ROOT
ATOM      1  C   UNL     1      -2.182  -5.417   1.159  0.00  0.00    +0.264 C 
ATOM      2  O   UNL     1      -2.868  -5.377   2.163  0.00  0.00    -0.268 OA
ATOM      3  N   UNL     1      -1.896  -6.602   0.585  0.00  0.00    -0.294 N 
ATOM      4  C   UNL     1      -1.056  -6.674  -0.621  0.00  0.00    +0.123 C 
ATOM      5  C   UNL     1      -1.788  -7.512  -1.675  0.00  0.00    +0.104 C 
ATOM      6  N   UNL     1      -2.155  -8.811  -1.095  0.00  0.00    -0.291 NA
ATOM      7  C   UNL     1      -3.095  -8.649   0.022  0.00  0.00    +0.104 C 
ATOM      8  C   UNL     1      -2.411  -7.859   1.149  0.00  0.00    +0.123 C 
ENDROOT
BRANCH   1  11
ATOM      9  C   UNL     1      -1.374  -2.069  -0.051  0.00  0.00    +0.064 A 
ATOM     10  C   UNL     1      -2.232  -2.913   0.658  0.00  0.00    +0.057 A 
ATOM     11  C   UNL     1      -1.662  -4.171   0.573  0.00  0.00    +0.121 A 
ATOM     12  N   UNL     1      -0.521  -4.024  -0.163  0.00  0.00    -0.272 N 
ATOM     13  H   UNL     1       0.093  -4.740  -0.391  0.00  0.00    +0.189 HD
ATOM     14  N   UNL     1      -0.388  -2.796  -0.512  0.00  0.00    -0.178 NA
BRANCH   9  15
ATOM     15  C   UNL     1      -1.555  -0.587  -0.255  0.00  0.00    +0.057 C 
BRANCH  15  17
ATOM     16  C   UNL     1      -0.485   1.655   0.014  0.00  0.00    +0.004 C 
ATOM     17  C   UNL     1      -0.301   0.150   0.221  0.00  0.00    +0.003 C 
ENDBRANCH  15  17
ENDBRANCH   9  15
ENDBRANCH   1  11
BRANCH   6  18
ATOM     18  C   UNL     1      -2.704  -9.709  -2.120  0.00  0.00    +0.180 C 
BRANCH  18  19
ATOM     19  C   UNL     1      -2.838 -11.098  -1.551  0.00  0.00    +0.227 C 
ATOM     20  O   UNL     1      -2.508 -11.318  -0.405  0.00  0.00    -0.274 OA
ATOM     21  N   UNL     1      -3.324 -12.095  -2.316  0.00  0.00    -0.311 N 
ATOM     22  H   UNL     1      -3.588 -11.919  -3.233  0.00  0.00    +0.149 HD
BRANCH  21  23
ATOM     23  C   UNL     1      -3.455 -13.445  -1.763  0.00  0.00    +0.073 C 
ATOM     24  C   UNL     1      -4.786 -13.565  -1.018  0.00  0.00    +0.022 C 
ATOM     25  C   UNL     1      -5.939 -13.298  -1.988  0.00  0.00    +0.002 C 
ATOM     26  C   UNL     1      -5.897 -14.320  -3.125  0.00  0.00    +0.003 C 
ATOM     27  C   UNL     1      -4.566 -14.201  -3.870  0.00  0.00    -0.012 C 
ATOM     28  C   UNL     1      -3.413 -14.468  -2.900  0.00  0.00    +0.025 C 
ATOM     29  C   UNL     1      -4.524 -15.223  -5.007  0.00  0.00    +0.007 C 
ENDBRANCH  21  23
ENDBRANCH  18  19
ENDBRANCH   6  18
TORSDOF 6
