REMARK  Name = ZINC33916239
REMARK  7 active torsions:
REMARK  status: ('A' for Active; 'I' for Inactive)
REMARK    1  A    between atoms: C_1  and  C_2
REMARK    2  A    between atoms: C_2  and  C_4
REMARK    3  A    between atoms: C_7  and  N_10
REMARK    4  A    between atoms: C_15  and  C_33
REMARK    5  A    between atoms: C_18  and  C_23
REMARK    6  A    between atoms: C_18  and  C_30
REMARK    7  A    between atoms: C_23  and  C_24
REMARK                            x       y       z     vdW  Elec       q    Type
REMARK                         _______ _______ _______ _____ _____    ______ ____
ROOT
ATOM      1  N   UNL     1      -0.125  -2.617  -5.093  0.00  0.00    -0.210 N 
ATOM      2  C   UNL     1      -0.093  -2.107  -6.367  0.00  0.00    +0.229 C 
ATOM      3  O   UNL     1       0.101  -0.957  -6.699  0.00  0.00    -0.275 OA
ATOM      4  C   UNL     1      -0.341  -3.240  -7.224  0.00  0.00    +0.080 C 
ATOM      5  C   UNL     1      -0.150  -3.675  -8.618  0.00  0.00    +0.010 C 
ATOM      6  N   UNL     1      -0.498  -5.136  -8.542  0.00  0.00    +0.398 N 
ATOM      7  C   UNL     1      -0.308  -5.578  -7.128  0.00  0.00    +0.048 C 
ATOM      8  C   UNL     1       0.391  -4.398  -6.437  0.00  0.00    +0.086 C 
ATOM      9  C   UNL     1      -0.075  -3.982  -5.069  0.00  0.00    +0.229 C 
ATOM     10  O   UNL     1      -0.352  -4.708  -4.139  0.00  0.00    -0.275 OA
ATOM     11  H   UNL     1      -1.459  -5.274  -8.818  0.00  0.00    -0.083 HD
ATOM     12  H   UNL     1       0.111  -5.664  -9.150  0.00  0.00    -0.083 HD
ENDROOT
BRANCH   5  13
ATOM     13  C   UNL     1      -1.091  -2.945  -9.542  0.00  0.00    +0.093 A 
ATOM     14  C   UNL     1      -0.755  -1.897 -10.306  0.00  0.00    +0.051 A 
ATOM     15  C   UNL     1      -1.972  -1.514 -11.033  0.00  0.00    +0.020 A 
ATOM     16  C   UNL     1      -2.280  -0.523 -11.964  0.00  0.00    +0.011 A 
ATOM     17  C   UNL     1      -3.550  -0.434 -12.464  0.00  0.00    +0.001 A 
ATOM     18  C   UNL     1      -4.532  -1.323 -12.049  0.00  0.00    +0.004 A 
ATOM     19  C   UNL     1      -4.245  -2.309 -11.130  0.00  0.00    +0.047 A 
ATOM     20  C   UNL     1      -2.961  -2.417 -10.610  0.00  0.00    +0.135 A 
ATOM     21  O   UNL     1      -2.386  -3.255  -9.724  0.00  0.00    -0.461 OA
ENDBRANCH   5  13
BRANCH   1  25
ATOM     22  C   UNL     1      -0.334  -0.254  -1.665  0.00  0.00    +0.017 A 
ATOM     23  C   UNL     1      -0.311   0.345  -2.930  0.00  0.00    +0.013 A 
ATOM     24  C   UNL     1      -0.242  -0.439  -4.059  0.00  0.00    +0.024 A 
ATOM     25  C   UNL     1      -0.195  -1.825  -3.944  0.00  0.00    +0.044 A 
ATOM     26  C   UNL     1      -0.217  -2.425  -2.689  0.00  0.00    +0.024 A 
ATOM     27  C   UNL     1      -0.280  -1.649  -1.554  0.00  0.00    +0.013 A 
BRANCH  22  29
ATOM     28  C   UNL     1      -0.467   2.080  -0.579  0.00  0.00    +0.091 C 
ATOM     29  C   UNL     1      -0.409   0.579  -0.457  0.00  0.00    +0.160 C 
ATOM     30  O   UNL     1      -0.423   0.058   0.639  0.00  0.00    -0.292 OA
ENDBRANCH  22  29
ENDBRANCH   1  25
BRANCH   7  31
ATOM     31  C   UNL     1       0.576  -6.797  -7.077  0.00  0.00    +0.346 C 
ATOM     32  O   UNL     1       1.080  -7.228  -8.100  0.00  0.00    -0.248 OA
ATOM     33  O   UNL     1       0.787  -7.352  -6.012  0.00  0.00    -0.248 OA
ENDBRANCH   7  31
BRANCH   7  34
ATOM     34  C   UNL     1      -1.662  -5.876  -6.481  0.00  0.00    +0.003 C 
BRANCH  34  35
ATOM     35  C   UNL     1      -2.439  -6.864  -7.354  0.00  0.00    -0.012 C 
ATOM     36  C   UNL     1      -3.864  -7.008  -6.818  0.00  0.00    +0.003 C 
ATOM     37  C   UNL     1      -4.641  -7.995  -7.691  0.00  0.00    +0.000 C 
ATOM     38  C   UNL     1      -3.945  -9.358  -7.662  0.00  0.00    +0.000 C 
ATOM     39  C   UNL     1      -2.519  -9.214  -8.198  0.00  0.00    +0.000 C 
ATOM     40  C   UNL     1      -1.743  -8.227  -7.325  0.00  0.00    +0.003 C 
ENDBRANCH  34  35
ENDBRANCH   7  34
TORSDOF 6
