REMARK  Name = ZINC64701117
REMARK  9 active torsions:
REMARK  status: ('A' for Active; 'I' for Inactive)
REMARK    1  A    between atoms: C_1  and  C_2
REMARK    2  A    between atoms: C_5  and  N_8
REMARK    3  A    between atoms: C_9  and  C_11
REMARK    4  A    between atoms: C_11  and  S_12
REMARK    5  A    between atoms: S_12  and  C_13
REMARK    6  A    between atoms: C_23  and  C_25
REMARK    7  A    between atoms: C_28  and  C_31
REMARK    8  A    between atoms: C_31  and  C_32
REMARK    9  A    between atoms: C_31  and  C_33
REMARK                            x       y       z     vdW  Elec       q    Type
REMARK                         _______ _______ _______ _____ _____    ______ ____
ROOT
ATOM      1  C   UNL     1      -0.336  -8.717   2.261  0.00  0.00    +0.272 C 
ATOM      2  N   UNL     1      -1.644  -8.962   1.627  0.00  0.00    -0.163 NA
ATOM      3  N   UNL     1      -1.811  -8.999   0.406  0.00  0.00    -0.081 NA
ATOM      4  C   UNL     1      -0.820  -8.783  -0.496  0.00  0.00    +0.276 C 
ATOM      5  O   UNL     1      -0.993  -8.935  -1.682  0.00  0.00    -0.270 OA
ATOM      6  C   UNL     1       0.500  -8.345   0.061  0.00  0.00    +0.193 C 
ATOM      7  N   UNL     1       0.678  -9.141   1.321  0.00  0.00    -0.178 NA
ATOM      8  N   UNL     1       2.002  -8.970   1.544  0.00  0.00    -0.274 N 
ATOM      9  C   UNL     1       2.607  -9.139   0.276  0.00  0.00    +0.047 C 
ATOM     10  C   UNL     1       1.725  -8.762  -0.707  0.00  0.00    +0.027 C 
ATOM     11  H   UNL     1       2.439  -8.774   2.388  0.00  0.00    +0.167 HD
ENDROOT
BRANCH   9  12
ATOM     12  C   UNL     1       3.985  -9.631   0.044  0.00  0.00    -0.003 A 
ATOM     13  C   UNL     1       4.475  -9.751  -1.256  0.00  0.00    +0.010 A 
ATOM     14  C   UNL     1       5.760 -10.210  -1.466  0.00  0.00    +0.004 A 
ATOM     15  C   UNL     1       6.560 -10.551  -0.390  0.00  0.00    -0.045 A 
ATOM     16  C   UNL     1       6.078 -10.435   0.901  0.00  0.00    +0.004 A 
ATOM     17  C   UNL     1       4.798  -9.971   1.124  0.00  0.00    +0.010 A 
BRANCH  15  18
ATOM     18  C   UNL     1       7.961 -11.053  -0.626  0.00  0.00    +0.013 C 
ATOM     19  C   UNL     1       8.960 -10.118   0.059  0.00  0.00    +0.012 C 
ATOM     20  C   UNL     1       8.103 -12.462  -0.048  0.00  0.00    +0.012 C 
ENDBRANCH  15  18
ENDBRANCH   9  12
BRANCH   1  21
ATOM     21  S   UNL     1      -0.144  -6.950   2.623  0.00  0.00    -0.107 S 
BRANCH  21  22
ATOM     22  C   UNL     1      -1.145  -6.697   4.115  0.00  0.00    +0.168 C 
BRANCH  22  24
ATOM     23  N   UNL     1      -1.858  -4.803   5.537  0.00  0.00    -0.285 N 
ATOM     24  C   UNL     1      -1.171  -5.230   4.460  0.00  0.00    +0.227 C 
ATOM     25  O   UNL     1      -0.574  -4.434   3.766  0.00  0.00    -0.275 OA
ATOM     26  H   UNL     1      -2.273  -5.445   6.134  0.00  0.00    +0.155 HD
BRANCH  23  31
ATOM     27  C   UNL     1      -2.325   0.753   6.586  0.00  0.00    +0.044 C 
ATOM     28  C   UNL     1      -2.201  -0.723   6.307  0.00  0.00    -0.050 A 
ATOM     29  C   UNL     1      -2.150  -1.177   5.002  0.00  0.00    +0.005 A 
ATOM     30  C   UNL     1      -2.036  -2.529   4.743  0.00  0.00    +0.023 A 
ATOM     31  C   UNL     1      -1.973  -3.433   5.796  0.00  0.00    +0.033 A 
ATOM     32  C   UNL     1      -2.024  -2.973   7.106  0.00  0.00    +0.023 A 
ATOM     33  C   UNL     1      -2.133  -1.620   7.357  0.00  0.00    +0.005 A 
ENDBRANCH  23  31
ENDBRANCH  22  24
ENDBRANCH  21  22
ENDBRANCH   1  21
TORSDOF 6
