REMARK  Name = ZINC20449746
REMARK  9 active torsions:
REMARK  status: ('A' for Active; 'I' for Inactive)
REMARK    1  A    between atoms: C_1  and  C_2
REMARK    2  A    between atoms: C_3  and  C_34
REMARK    3  A    between atoms: C_5  and  N_25
REMARK    4  A    between atoms: C_6  and  C_7
REMARK    5  A    between atoms: N_9  and  C_10
REMARK    6  A    between atoms: C_13  and  C_16
REMARK    7  A    between atoms: C_16  and  O_18
REMARK    8  A    between atoms: O_18  and  C_19
REMARK    9  A    between atoms: C_26  and  C_28
REMARK                            x       y       z     vdW  Elec       q    Type
REMARK                         _______ _______ _______ _____ _____    ______ ____
ROOT
ATOM      1  C   UNL     1      -1.255   3.409   0.128  0.00  0.00    +0.251 C 
ATOM      2  O   UNL     1      -0.212   4.037   0.127  0.00  0.00    -0.270 OA
ATOM      3  N   UNL     1      -1.234   2.066   0.019  0.00  0.00    -0.281 N 
ATOM      4  H   UNL     1      -2.176   1.506  -0.067  0.00  0.00    +0.155 HD
ENDROOT
BRANCH   1  10
ATOM      5  C   UNL     1      -2.727   4.355  -2.306  0.00  0.00    +0.045 C 
ATOM      6  C   UNL     1      -3.257   4.577  -0.913  0.00  0.00    -0.027 A 
ATOM      7  C   UNL     1      -4.422   5.213  -0.698  0.00  0.00    -0.008 A 
ATOM      8  S   UNL     1      -4.574   5.204   1.076  0.00  0.00    -0.078 S 
ATOM      9  C   UNL     1      -3.116   4.365   1.487  0.00  0.00    +0.085 A 
ATOM     10  C   UNL     1      -2.535   4.114   0.248  0.00  0.00    +0.069 A 
ATOM     11  C   UNL     1      -5.371   5.794  -1.715  0.00  0.00    +0.052 C 
BRANCH   9  12
ATOM     12  N   UNL     1      -2.642   4.027   2.744  0.00  0.00    -0.275 N 
ATOM     13  C   UNL     1      -3.351   4.357   3.842  0.00  0.00    +0.249 C 
ATOM     14  O   UNL     1      -4.405   4.951   3.729  0.00  0.00    -0.270 OA
ATOM     15  H   UNL     1      -1.688   3.489   2.846  0.00  0.00    +0.156 HD
BRANCH  13  16
ATOM     16  C   UNL     1      -2.845   3.997   5.183  0.00  0.00    +0.037 A 
ATOM     17  C   UNL     1      -1.638   3.309   5.316  0.00  0.00    +0.013 A 
ATOM     18  C   UNL     1      -1.169   2.981   6.571  0.00  0.00    +0.001 A 
ATOM     19  C   UNL     1      -1.899   3.322   7.697  0.00  0.00    +0.000 A 
ATOM     20  C   UNL     1      -3.099   3.998   7.572  0.00  0.00    +0.001 A 
ATOM     21  C   UNL     1      -3.577   4.337   6.323  0.00  0.00    +0.013 A 
ENDBRANCH  13  16
ENDBRANCH   9  12
ENDBRANCH   1  10
BRANCH   3  22
ATOM     22  C   UNL     1      -0.017   1.387   0.016  0.00  0.00    +0.034 A 
ATOM     23  C   UNL     1       1.050   1.870   0.768  0.00  0.00    +0.024 A 
ATOM     24  C   UNL     1       2.255   1.205   0.762  0.00  0.00    +0.017 A 
ATOM     25  C   UNL     1       2.406   0.043  -0.001  0.00  0.00    +0.059 A 
ATOM     26  C   UNL     1       1.333  -0.439  -0.755  0.00  0.00    +0.017 A 
ATOM     27  C   UNL     1       0.130   0.231  -0.745  0.00  0.00    +0.024 A 
BRANCH  25  28
ATOM     28  C   UNL     1       3.696  -0.671  -0.010  0.00  0.00    +0.339 C 
ATOM     29  O   UNL     1       3.826  -1.681  -0.674  0.00  0.00    -0.245 OA
BRANCH  28  30
ATOM     30  O   UNL     1       4.730  -0.205   0.717  0.00  0.00    -0.458 OA
BRANCH  30  31
ATOM     31  C   UNL     1       5.969  -0.960   0.661  0.00  0.00    +0.177 C 
ATOM     32  C   UNL     1       5.972  -2.019   1.764  0.00  0.00    +0.044 C 
ATOM     33  C   UNL     1       7.278  -2.814   1.704  0.00  0.00    +0.004 C 
ATOM     34  C   UNL     1       8.462  -1.866   1.905  0.00  0.00    +0.000 C 
ATOM     35  C   UNL     1       8.459  -0.806   0.801  0.00  0.00    +0.004 C 
ATOM     36  C   UNL     1       7.153  -0.011   0.861  0.00  0.00    +0.044 C 
ENDBRANCH  30  31
ENDBRANCH  28  30
ENDBRANCH  25  28
ENDBRANCH   3  22
TORSDOF 7
