REMARK  Name = ZINC01314861
REMARK  4 active torsions:
REMARK  status: ('A' for Active; 'I' for Inactive)
REMARK    1  A    between atoms: C_16  and  N_17
REMARK    2  A    between atoms: C_16  and  N_60
REMARK    3  A    between atoms: N_25  and  N_26
REMARK    4  A    between atoms: C_27  and  C_29
REMARK                            x       y       z     vdW  Elec       q    Type
REMARK                         _______ _______ _______ _____ _____    ______ ____
ROOT
ATOM      1  N   UNL     1       4.085   7.691   0.005  0.00  0.00    -0.282 N 
ATOM      2  C   UNL     1       5.475   7.750  -0.008  0.00  0.00    +0.044 A 
ATOM      3  C   UNL     1       6.353   8.829  -0.010  0.00  0.00    +0.025 A 
ATOM      4  C   UNL     1       7.716   8.613  -0.023  0.00  0.00    +0.017 A 
ATOM      5  C   UNL     1       8.226   7.324  -0.035  0.00  0.00    +0.019 A 
ATOM      6  C   UNL     1       7.369   6.241  -0.033  0.00  0.00    +0.027 A 
ATOM      7  C   UNL     1       5.995   6.449  -0.013  0.00  0.00    +0.029 A 
ATOM      8  C   UNL     1       4.830   5.534  -0.013  0.00  0.00    +0.153 C 
ATOM      9  N   UNL     1       4.845   4.223  -0.021  0.00  0.00    -0.174 NA
ATOM     10  C   UNL     1       3.648   6.420   0.003  0.00  0.00    +0.270 C 
ATOM     11  O   UNL     1       2.485   6.062   0.012  0.00  0.00    -0.268 OA
ATOM     12 BR   UNL     1      10.097   7.049  -0.053  0.00  0.00    -0.050 Br
ENDROOT
BRANCH   9  13
ATOM     13  N   UNL     1       3.639   3.509  -0.013  0.00  0.00    -0.202 N 
ATOM     14  C   UNL     1       3.655   2.161  -0.021  0.00  0.00    +0.263 C 
ATOM     15  O   UNL     1       4.714   1.565  -0.034  0.00  0.00    -0.268 OA
ATOM     16  H   UNL     1       2.794   3.984  -0.003  0.00  0.00    +0.178 HD
BRANCH  14  17
ATOM     17  C   UNL     1       2.385   1.408  -0.013  0.00  0.00    +0.039 A 
ATOM     18  C   UNL     1       1.166   2.090   0.002  0.00  0.00    +0.016 A 
ATOM     19  C   UNL     1      -0.017   1.383   0.010  0.00  0.00    +0.039 A 
ATOM     20  C   UNL     1       0.002  -0.004   0.002  0.00  0.00    +0.123 A 
ATOM     21  C   UNL     1       1.209  -0.686  -0.013  0.00  0.00    +0.039 A 
ATOM     22  C   UNL     1       2.398   0.011  -0.021  0.00  0.00    +0.016 A 
ATOM     23  F   UNL     1      -1.160  -0.693   0.010  0.00  0.00    -0.205 F 
ENDBRANCH  14  17
ENDBRANCH   9  13
BRANCH   1  24
ATOM     24  C   UNL     1       3.209   8.864   0.020  0.00  0.00    +0.039 C 
BRANCH  24  38
ATOM     25  C   UNL     1       4.736   7.189   5.152  0.00  0.00    +0.007 A 
ATOM     26  C   UNL     1       3.459   7.405   4.621  0.00  0.00    +0.022 A 
ATOM     27  C   UNL     1       3.125   8.615   4.098  0.00  0.00    +0.023 A 
ATOM     28  N   UNL     1       4.001   9.646   4.136  0.00  0.00    -0.312 N 
ATOM     29  C   UNL     1       5.271   9.437   4.562  0.00  0.00    +0.251 A 
ATOM     30  O   UNL     1       6.096  10.331   4.465  0.00  0.00    -0.268 OA
ATOM     31  C   UNL     1       5.647   8.203   5.112  0.00  0.00    +0.070 A 
ATOM     32  C   UNL     1       3.637  11.023   3.767  0.00  0.00    +0.126 C 
ATOM     33  C   UNL     1       2.359  11.088   2.948  0.00  0.00    -0.007 C 
ATOM     34  C   UNL     1       1.289  10.209   3.601  0.00  0.00    +0.011 C 
ATOM     35  C   UNL     1       1.752   8.752   3.481  0.00  0.00    +0.020 C 
ATOM     36  C   UNL     1       1.867   8.412   1.986  0.00  0.00    -0.067 C 
ATOM     37  C   UNL     1       2.590  10.673   1.502  0.00  0.00    -0.071 C 
ATOM     38  N   UNL     1       2.955   9.245   1.425  0.00  0.00    +0.391 N 
ATOM     39  H   UNL     1       3.810   9.090   1.973  0.00  0.00    -0.079 HD
ENDBRANCH  24  38
ENDBRANCH   1  24
TORSDOF 4
