REMARK  Name = ZINC39688755
REMARK  9 active torsions:
REMARK  status: ('A' for Active; 'I' for Inactive)
REMARK    1  A    between atoms: C_1  and  C_2
REMARK    2  A    between atoms: C_2  and  O_3
REMARK    3  A    between atoms: O_3  and  C_4
REMARK    4  A    between atoms: C_8  and  C_10
REMARK    5  A    between atoms: C_14  and  C_23
REMARK    6  A    between atoms: N_25  and  C_26
REMARK    7  A    between atoms: C_26  and  C_28
REMARK    8  A    between atoms: C_26  and  C_29
REMARK    9  A    between atoms: C_29  and  C_30
REMARK                            x       y       z     vdW  Elec       q    Type
REMARK                         _______ _______ _______ _____ _____    ______ ____
ROOT
ATOM      1  C   UNL     1      -4.157  -4.033  -0.166  0.00  0.00    +0.247 C 
ATOM      2  O   UNL     1      -5.160  -3.352  -0.257  0.00  0.00    -0.270 OA
ATOM      3  N   UNL     1      -4.237  -5.371  -0.304  0.00  0.00    -0.296 N 
ATOM      4  C   UNL     1      -3.126  -6.352  -0.307  0.00  0.00    +0.121 C 
ATOM      5  C   UNL     1      -3.671  -7.563   0.483  0.00  0.00    +0.100 C 
ATOM      6  C   UNL     1      -5.200  -7.455   0.359  0.00  0.00    -0.004 C 
ATOM      7  C   UNL     1      -5.457  -6.196  -0.481  0.00  0.00    +0.115 C 
ATOM      8  C   UNL     1      -5.832  -7.299   1.739  0.00  0.00    -0.010 C 
ATOM      9  C   UNL     1      -7.356  -7.252   1.595  0.00  0.00    -0.082 C 
ATOM     10  N   UNL     1      -7.827  -8.486   0.956  0.00  0.00    +0.379 N 
ATOM     11  C   UNL     1      -7.288  -8.582  -0.406  0.00  0.00    -0.082 C 
ATOM     12  C   UNL     1      -5.762  -8.686  -0.347  0.00  0.00    -0.010 C 
ATOM     13  H   UNL     1      -7.519  -9.281   1.496  0.00  0.00    -0.086 HD
ATOM     14  H   UNL     1      -8.835  -8.479   0.918  0.00  0.00    -0.086 HD
ENDROOT
BRANCH   1  19
ATOM     15  C   UNL     1      -1.565  -1.568   0.991  0.00  0.00    +0.121 A 
ATOM     16  C   UNL     1      -0.397  -2.199   0.586  0.00  0.00    +0.046 A 
ATOM     17  C   UNL     1      -0.452  -3.420  -0.060  0.00  0.00    +0.004 A 
ATOM     18  C   UNL     1      -1.671  -4.020  -0.306  0.00  0.00    +0.013 A 
ATOM     19  C   UNL     1      -2.851  -3.393   0.097  0.00  0.00    +0.040 A 
ATOM     20  C   UNL     1      -2.792  -2.164   0.754  0.00  0.00    +0.058 A 
BRANCH  15  21
ATOM     21  O   UNL     1      -1.504  -0.368   1.626  0.00  0.00    -0.492 OA
BRANCH  21  23
ATOM     22  C   UNL     1      -0.364   1.632   2.361  0.00  0.00    +0.048 C 
ATOM     23  C   UNL     1      -0.218   0.245   1.733  0.00  0.00    +0.225 C 
ENDBRANCH  21  23
ENDBRANCH  15  21
ENDBRANCH   1  19
BRANCH   5  24
ATOM     24  C   UNL     1      -3.252  -7.478   1.927  0.00  0.00    +0.218 C 
ATOM     25  O   UNL     1      -3.154  -6.397   2.469  0.00  0.00    -0.275 OA
ATOM     26  N   UNL     1      -2.984  -8.604   2.619  0.00  0.00    -0.312 N 
ATOM     27  H   UNL     1      -2.990  -9.463   2.168  0.00  0.00    +0.149 HD
BRANCH  26  28
ATOM     28  C   UNL     1      -2.684  -8.531   4.051  0.00  0.00    +0.074 C 
ATOM     29  C   UNL     1      -3.985  -8.627   4.850  0.00  0.00    +0.028 C 
BRANCH  28  30
ATOM     30  C   UNL     1      -1.761  -9.688   4.438  0.00  0.00    +0.057 C 
BRANCH  30  31
ATOM     31  C   UNL     1      -0.446  -9.545   3.715  0.00  0.00    -0.045 A 
ATOM     32  C   UNL     1      -0.304 -10.046   2.434  0.00  0.00    +0.006 A 
ATOM     33  C   UNL     1       0.901  -9.915   1.770  0.00  0.00    +0.038 A 
ATOM     34  C   UNL     1       1.966  -9.281   2.388  0.00  0.00    +0.123 A 
ATOM     35  C   UNL     1       1.823  -8.780   3.671  0.00  0.00    +0.038 A 
ATOM     36  C   UNL     1       0.615  -8.908   4.331  0.00  0.00    +0.006 A 
ATOM     37  F   UNL     1       3.144  -9.153   1.740  0.00  0.00    -0.205 F 
ENDBRANCH  30  31
ENDBRANCH  28  30
ENDBRANCH  26  28
ENDBRANCH   5  24
TORSDOF 7
