REMARK  Name = ZINC37382240
REMARK  7 active torsions:
REMARK  status: ('A' for Active; 'I' for Inactive)
REMARK    1  A    between atoms: C_7  and  N_18
REMARK    2  A    between atoms: C_9  and  C_11
REMARK    3  A    between atoms: N_18  and  C_19
REMARK    4  A    between atoms: C_19  and  C_20
REMARK    5  A    between atoms: C_20  and  N_21
REMARK    6  A    between atoms: N_21  and  S_22
REMARK    7  A    between atoms: S_22  and  C_25
REMARK                            x       y       z     vdW  Elec       q    Type
REMARK                         _______ _______ _______ _____ _____    ______ ____
ROOT
ATOM      1  C   UNL     1      -0.016   1.360   0.009  0.00  0.00    +0.001 A 
ATOM      2  C   UNL     1       1.168   2.091   0.002  0.00  0.00    +0.002 A 
ATOM      3  C   UNL     1       2.379   1.466  -0.013  0.00  0.00    +0.028 A 
ATOM      4  C   UNL     1       2.435   0.065  -0.021  0.00  0.00    +0.077 A 
ATOM      5  C   UNL     1       1.228  -0.677  -0.013  0.00  0.00    +0.040 A 
ATOM      6  C   UNL     1       0.002  -0.004   0.002  0.00  0.00    +0.013 A 
ATOM      7  C   UNL     1       1.309  -2.092  -0.021  0.00  0.00    +0.130 A 
ATOM      8  N   UNL     1       2.509  -2.653  -0.036  0.00  0.00    -0.212 NA
ATOM      9  C   UNL     1       3.619  -1.917  -0.043  0.00  0.00    +0.164 A 
ATOM     10  N   UNL     1       3.600  -0.597  -0.036  0.00  0.00    -0.227 NA
ENDROOT
BRANCH   9  11
ATOM     11  C   UNL     1       4.929  -2.609  -0.059  0.00  0.00    +0.037 A 
ATOM     12  C   UNL     1       4.986  -4.002  -0.072  0.00  0.00    +0.013 A 
ATOM     13  C   UNL     1       6.208  -4.640  -0.087  0.00  0.00    +0.001 A 
ATOM     14  C   UNL     1       7.379  -3.902  -0.089  0.00  0.00    +0.001 A 
ATOM     15  C   UNL     1       7.331  -2.520  -0.076  0.00  0.00    +0.021 A 
ATOM     16  C   UNL     1       6.112  -1.869  -0.067  0.00  0.00    +0.052 A 
ATOM     17 CL   UNL     1       6.053  -0.134  -0.058  0.00  0.00    -0.083 Cl
ENDBRANCH   9  11
BRANCH   7  18
ATOM     18  N   UNL     1       0.167  -2.865  -0.013  0.00  0.00    -0.327 N 
ATOM     19  H   UNL     1      -0.705  -2.442  -0.003  0.00  0.00    +0.148 HD
BRANCH  18  20
ATOM     20  C   UNL     1       0.272  -4.326  -0.022  0.00  0.00    +0.120 C 
BRANCH  20  21
ATOM     21  C   UNL     1      -1.130  -4.938  -0.011  0.00  0.00    +0.124 C 
BRANCH  21  22
ATOM     22  N   UNL     1      -1.025  -6.399  -0.019  0.00  0.00    -0.188 NA
ATOM     23  H   UNL     1      -0.183  -6.824  -0.247  0.00  0.00    +0.148 HD
BRANCH  22  24
ATOM     24  S   UNL     1      -2.344  -7.327   0.361  0.00  0.00    +0.058 S 
ATOM     25  O   UNL     1      -1.936  -8.682   0.238  0.00  0.00    -0.153 OA
ATOM     26  O   UNL     1      -2.878  -6.798   1.567  0.00  0.00    -0.153 OA
BRANCH  24  27
ATOM     27  C   UNL     1      -3.553  -7.050  -0.890  0.00  0.00    +0.105 A 
ATOM     28  C   UNL     1      -4.477  -6.031  -0.745  0.00  0.00    +0.031 A 
ATOM     29  C   UNL     1      -5.425  -5.813  -1.726  0.00  0.00    +0.040 A 
ATOM     30  C   UNL     1      -5.451  -6.614  -2.855  0.00  0.00    +0.124 A 
ATOM     31  C   UNL     1      -4.525  -7.634  -2.999  0.00  0.00    +0.040 A 
ATOM     32  C   UNL     1      -3.574  -7.847  -2.019  0.00  0.00    +0.031 A 
ATOM     33  F   UNL     1      -6.378  -6.402  -3.814  0.00  0.00    -0.205 F 
ENDBRANCH  24  27
ENDBRANCH  22  24
ENDBRANCH  21  22
ENDBRANCH  20  21
ENDBRANCH  18  20
ENDBRANCH   7  18
TORSDOF 7
