REMARK  Name = ZINC16192429
REMARK  10 active torsions:
REMARK  status: ('A' for Active; 'I' for Inactive)
REMARK    1  A    between atoms: C_1  and  C_2
REMARK    2  A    between atoms: N_6  and  C_14
REMARK    3  A    between atoms: C_14  and  C_15
REMARK    4  A    between atoms: C_15  and  C_16
REMARK    5  A    between atoms: C_16  and  O_18
REMARK    6  A    between atoms: O_18  and  C_19
REMARK    7  A    between atoms: C_19  and  C_21
REMARK    8  A    between atoms: C_19  and  C_22
REMARK    9  A    between atoms: N_24  and  C_25
REMARK   10  A    between atoms: C_25  and  C_26
REMARK                            x       y       z     vdW  Elec       q    Type
REMARK                         _______ _______ _______ _____ _____    ______ ____
ROOT
ATOM      1  C   UNL     1       3.914  -0.328  -4.478  0.00  0.00    +0.309 C 
ATOM      2  O   UNL     1       4.068  -1.507  -4.696  0.00  0.00    -0.251 OA
ENDROOT
BRANCH   1   3
ATOM      3  C   UNL     1       3.188   0.120  -3.236  0.00  0.00    +0.140 C 
BRANCH   3   4
ATOM      4  C   UNL     1       2.752  -1.105  -2.430  0.00  0.00    +0.125 C 
BRANCH   4   9
ATOM      5  C   UNL     1      -0.019   1.526   0.010  0.00  0.00    +0.062 C 
ATOM      6  C   UNL     1       0.002  -0.004   0.002  0.00  0.00    +0.256 C 
ATOM      7  C   UNL     1       0.706  -0.490  -1.239  0.00  0.00    +0.260 C 
ATOM      8  O   UNL     1       0.074  -0.718  -2.249  0.00  0.00    -0.271 OA
ATOM      9  N   UNL     1       2.045  -0.669  -1.223  0.00  0.00    -0.265 N 
ATOM     10  C   UNL     1       2.748  -0.433  -0.033  0.00  0.00    +0.078 A 
ATOM     11  C   UNL     1       4.126  -0.291  -0.041  0.00  0.00    +0.027 A 
ATOM     12  C   UNL     1       4.800  -0.060   1.144  0.00  0.00    +0.002 A 
ATOM     13  C   UNL     1       4.102   0.031   2.335  0.00  0.00    +0.004 A 
ATOM     14  C   UNL     1       2.726  -0.109   2.349  0.00  0.00    +0.047 A 
ATOM     15  C   UNL     1       2.045  -0.340   1.167  0.00  0.00    +0.143 A 
ATOM     16  O   UNL     1       0.692  -0.477   1.161  0.00  0.00    -0.478 OA
ENDBRANCH   4   9
ENDBRANCH   3   4
ENDBRANCH   1   3
BRANCH   1  17
ATOM     17  O   UNL     1       4.391   0.582  -5.342  0.00  0.00    -0.452 OA
BRANCH  17  18
ATOM     18  C   UNL     1       5.070   0.086  -6.498  0.00  0.00    +0.258 C 
ATOM     19  C   UNL     1       4.063  -0.121  -7.631  0.00  0.00    +0.062 C 
BRANCH  18  20
ATOM     20  C   UNL     1       6.116   1.080  -6.931  0.00  0.00    +0.254 C 
ATOM     21  O   UNL     1       6.266   2.112  -6.311  0.00  0.00    -0.272 OA
ATOM     22  N   UNL     1       6.885   0.823  -8.007  0.00  0.00    -0.308 N 
ATOM     23  H   UNL     1       6.766  -0.002  -8.503  0.00  0.00    +0.149 HD
BRANCH  22  24
ATOM     24  C   UNL     1       7.903   1.789  -8.428  0.00  0.00    +0.139 C 
BRANCH  24  25
ATOM     25  C   UNL     1       8.618   1.266  -9.647  0.00  0.00    -0.030 A 
ATOM     26  C   UNL     1       9.747   0.482  -9.502  0.00  0.00    +0.005 A 
ATOM     27  C   UNL     1      10.404   0.003 -10.620  0.00  0.00    +0.000 A 
ATOM     28  C   UNL     1       9.931   0.307 -11.883  0.00  0.00    +0.000 A 
ATOM     29  C   UNL     1       8.801   1.090 -12.028  0.00  0.00    +0.000 A 
ATOM     30  C   UNL     1       8.142   1.566 -10.910  0.00  0.00    +0.005 A 
ENDBRANCH  24  25
ENDBRANCH  22  24
ENDBRANCH  18  20
ENDBRANCH  17  18
ENDBRANCH   1  17
TORSDOF 8
