REMARK  Name = ZINC40487600
REMARK  15 active torsions:
REMARK  status: ('A' for Active; 'I' for Inactive)
REMARK    1  A    between atoms: C_1  and  C_2
REMARK    2  A    between atoms: N_4  and  C_5
REMARK    3  A    between atoms: C_7  and  O_42
REMARK    4  A    between atoms: C_9  and  O_41
REMARK    5  A    between atoms: C_11  and  C_39
REMARK    6  A    between atoms: C_14  and  O_16
REMARK    7  A    between atoms: O_16  and  C_17
REMARK    8  A    between atoms: C_20  and  N_36
REMARK    9  A    between atoms: C_22  and  C_23
REMARK   10  A    between atoms: C_23  and  C_25
REMARK   11  A    between atoms: C_26  and  C_27
REMARK   12  A    between atoms: C_30  and  N_33
REMARK   13  A    between atoms: N_33  and  C_34
REMARK   14  A    between atoms: N_33  and  C_35
REMARK   15  A    between atoms: C_39  and  O_40
REMARK                            x       y       z     vdW  Elec       q    Type
REMARK                         _______ _______ _______ _____ _____    ______ ____
ROOT
ATOM      1  C   UNL     1      -2.990  -2.727   0.832  0.00  0.00    +0.135 A 
ATOM      2  C   UNL     1      -3.648  -3.717   0.118  0.00  0.00    +0.049 A 
ATOM      3  C   UNL     1      -4.830  -4.247   0.597  0.00  0.00    +0.036 A 
ATOM      4  C   UNL     1      -5.367  -3.795   1.792  0.00  0.00    +0.127 A 
ATOM      5  C   UNL     1      -4.726  -2.812   2.514  0.00  0.00    +0.048 A 
ATOM      6  C   UNL     1      -3.526  -2.272   2.044  0.00  0.00    +0.066 A 
ENDROOT
BRANCH   4   7
ATOM      7  N   UNL     1      -6.634  -4.372   2.295  0.00  0.00    +0.056 N 
ATOM      8  O   UNL     1      -7.199  -5.234   1.663  0.00  0.00    -0.126 OA
ATOM      9  O   UNL     1      -7.105  -3.980   3.337  0.00  0.00    -0.126 OA
ENDBRANCH   4   7
BRANCH   6  10
ATOM     10  C   UNL     1      -2.831  -1.223   2.817  0.00  0.00    +0.190 C 
ATOM     11  O   UNL     1      -1.788  -0.751   2.401  0.00  0.00    -0.287 OA
BRANCH  10  12
ATOM     12  C   UNL     1      -3.377  -0.766   4.043  0.00  0.00    +0.052 C 
ATOM     13  C   UNL     1      -2.741   0.195   4.750  0.00  0.00    +0.012 C 
BRANCH  13  14
ATOM     14  C   UNL     1      -3.306   0.668   6.020  0.00  0.00    -0.025 A 
ATOM     15  C   UNL     1      -4.503   0.122   6.503  0.00  0.00    +0.010 A 
ATOM     16  C   UNL     1      -5.025   0.566   7.685  0.00  0.00    +0.023 A 
ATOM     17  C   UNL     1      -4.370   1.559   8.409  0.00  0.00    +0.029 A 
ATOM     18  C   UNL     1      -3.181   2.104   7.932  0.00  0.00    +0.023 A 
ATOM     19  C   UNL     1      -2.648   1.663   6.755  0.00  0.00    +0.010 A 
BRANCH  17  20
ATOM     20  N   UNL     1      -4.906   2.007   9.612  0.00  0.00    -0.336 N 
ATOM     21  C   UNL     1      -6.089   1.352  10.176  0.00  0.00    +0.129 C 
ATOM     22  C   UNL     1      -4.287   3.133  10.315  0.00  0.00    +0.129 C 
ENDBRANCH  17  20
ENDBRANCH  13  14
ENDBRANCH  10  12
ENDBRANCH   6  10
BRANCH   1  23
ATOM     23  O   UNL     1      -1.829  -2.205   0.362  0.00  0.00    -0.461 OA
BRANCH  23  29
ATOM     24  C   UNL     1       0.078  -2.204  -1.124  0.00  0.00    +0.173 C 
ATOM     25  C   UNL     1       0.571  -2.709  -2.484  0.00  0.00    +0.172 C 
ATOM     26  C   UNL     1      -0.406  -2.250  -3.571  0.00  0.00    +0.176 C 
ATOM     27  C   UNL     1      -1.809  -2.762  -3.234  0.00  0.00    +0.179 C 
ATOM     28  O   UNL     1      -2.194  -2.282  -1.944  0.00  0.00    -0.332 OA
ATOM     29  C   UNL     1      -1.343  -2.718  -0.880  0.00  0.00    +0.331 C 
BRANCH  24  33
ATOM     30  C   UNL     1       1.175   1.440  -0.714  0.00  0.00    +0.109 C 
ATOM     31  C   UNL     1       1.176  -0.067  -0.722  0.00  0.00    +0.210 C 
ATOM     32  O   UNL     1       2.166  -0.674  -0.373  0.00  0.00    -0.276 OA
ATOM     33  N   UNL     1       0.077  -0.739  -1.116  0.00  0.00    -0.304 N 
ATOM     34  H   UNL     1      -0.715  -0.254  -1.395  0.00  0.00    +0.149 HD
ENDBRANCH  24  33
BRANCH  26  35
ATOM     35  O   UNL     1      -0.419  -0.822  -3.629  0.00  0.00    -0.387 OA
ATOM     36  H   UNL     1      -1.018  -0.462  -4.297  0.00  0.00    +0.210 HD
ENDBRANCH  26  35
BRANCH  25  37
ATOM     37  O   UNL     1       0.636  -4.136  -2.469  0.00  0.00    -0.387 OA
ATOM     38  H   UNL     1       0.941  -4.525  -3.300  0.00  0.00    +0.210 HD
ENDBRANCH  25  37
BRANCH  27  39
ATOM     39  C   UNL     1      -2.802  -2.258  -4.283  0.00  0.00    +0.190 C 
BRANCH  39  40
ATOM     40  O   UNL     1      -4.088  -2.830  -4.036  0.00  0.00    -0.392 OA
ATOM     41  H   UNL     1      -4.769  -2.553  -4.665  0.00  0.00    +0.210 HD
ENDBRANCH  39  40
ENDBRANCH  27  39
ENDBRANCH  23  29
ENDBRANCH   1  23
TORSDOF 12
