REMARK  Name = ZINC39660414
REMARK  11 active torsions:
REMARK  status: ('A' for Active; 'I' for Inactive)
REMARK    1  A    between atoms: C_1  and  C_2
REMARK    2  A    between atoms: C_2  and  C_3
REMARK    3  A    between atoms: C_3  and  C_4
REMARK    4  A    between atoms: C_4  and  C_5
REMARK    5  A    between atoms: C_5  and  C_6
REMARK    6  A    between atoms: C_6  and  N_7
REMARK    7  A    between atoms: C_8  and  C_10
REMARK    8  A    between atoms: C_21  and  C_23
REMARK    9  A    between atoms: C_29  and  O_31
REMARK   10  A    between atoms: O_31  and  C_32
REMARK   11  A    between atoms: C_32  and  C_33
REMARK                            x       y       z     vdW  Elec       q    Type
REMARK                         _______ _______ _______ _____ _____    ______ ____
ROOT
ATOM      1  C   UNL     1       3.006  -6.331  -5.199  0.00  0.00    +0.100 C 
ATOM      2  C   UNL     1       4.443  -5.766  -5.257  0.00  0.00    +0.121 C 
ATOM      3  N   UNL     1       5.287  -6.829  -4.662  0.00  0.00    -0.300 N 
ATOM      4  C   UNL     1       4.707  -8.092  -5.177  0.00  0.00    +0.115 C 
ATOM      5  C   UNL     1       3.184  -7.858  -5.151  0.00  0.00    -0.004 C 
ATOM      6  C   UNL     1       2.529  -8.505  -6.367  0.00  0.00    -0.010 C 
ATOM      7  C   UNL     1       2.667 -10.027  -6.266  0.00  0.00    -0.082 C 
ATOM      8  N   UNL     1       2.027 -10.498  -5.032  0.00  0.00    +0.379 N 
ATOM      9  C   UNL     1       2.723  -9.944  -3.865  0.00  0.00    -0.082 C 
ATOM     10  C   UNL     1       2.587  -8.419  -3.863  0.00  0.00    -0.010 C 
ATOM     11  C   UNL     1       6.344  -6.680  -3.839  0.00  0.00    +0.219 C 
ATOM     12  O   UNL     1       6.938  -7.656  -3.433  0.00  0.00    -0.275 OA
ATOM     13  H   UNL     1       1.063 -10.201  -5.020  0.00  0.00    -0.086 HD
ATOM     14  H   UNL     1       2.066 -11.506  -4.998  0.00  0.00    -0.086 HD
ENDROOT
BRANCH  11  15
ATOM     15  C   UNL     1       6.787  -5.301  -3.424  0.00  0.00    +0.078 C 
ATOM     16  C   UNL     1       7.168  -4.492  -4.666  0.00  0.00    +0.032 C 
ATOM     17  C   UNL     1       7.585  -3.080  -4.242  0.00  0.00    +0.112 C 
ATOM     18  N   UNL     1       8.653  -3.183  -3.239  0.00  0.00    -0.267 N 
ATOM     19  C   UNL     1       8.425  -4.012  -2.047  0.00  0.00    +0.112 C 
ATOM     20  C   UNL     1       7.999  -5.413  -2.495  0.00  0.00    +0.032 C 
ATOM     21  C   UNL     1       9.820  -2.531  -3.409  0.00  0.00    +0.403 C 
ATOM     22  O   UNL     1       9.996  -1.849  -4.400  0.00  0.00    -0.226 OA
BRANCH  21  23
ATOM     23  O   UNL     1      10.791  -2.634  -2.482  0.00  0.00    -0.445 OA
BRANCH  23  24
ATOM     24  C   UNL     1      12.001  -1.916  -2.727  0.00  0.00    +0.269 C 
BRANCH  24  25
ATOM     25  C   UNL     1      12.963  -2.150  -1.591  0.00  0.00    -0.010 A 
ATOM     26  C   UNL     1      12.953  -1.310  -0.492  0.00  0.00    +0.007 A 
ATOM     27  C   UNL     1      13.835  -1.525   0.550  0.00  0.00    +0.000 A 
ATOM     28  C   UNL     1      14.727  -2.579   0.494  0.00  0.00    +0.000 A 
ATOM     29  C   UNL     1      14.737  -3.419  -0.603  0.00  0.00    +0.000 A 
ATOM     30  C   UNL     1      13.852  -3.207  -1.644  0.00  0.00    +0.007 A 
ENDBRANCH  24  25
ENDBRANCH  23  24
ENDBRANCH  21  23
ENDBRANCH  11  15
BRANCH   1  32
ATOM     31  N   UNL     1       0.959  -5.712  -3.955  0.00  0.00    -0.315 N 
ATOM     32  C   UNL     1       2.301  -5.845  -3.959  0.00  0.00    +0.218 C 
ATOM     33  O   UNL     1       2.940  -5.574  -2.965  0.00  0.00    -0.275 OA
ATOM     34  H   UNL     1       0.448  -5.929  -4.751  0.00  0.00    +0.149 HD
BRANCH  31  35
ATOM     35  C   UNL     1       0.274  -5.240  -2.750  0.00  0.00    +0.104 C 
BRANCH  35  36
ATOM     36  C   UNL     1      -1.233  -5.180  -3.011  0.00  0.00    +0.019 C 
BRANCH  36  37
ATOM     37  C   UNL     1      -1.949  -4.686  -1.752  0.00  0.00    +0.002 C 
BRANCH  37  38
ATOM     38  C   UNL     1      -3.455  -4.626  -2.013  0.00  0.00    -0.000 C 
BRANCH  38  40
ATOM     39  C   UNL     1      -5.678  -4.072  -1.015  0.00  0.00    +0.004 C 
ATOM     40  C   UNL     1      -4.171  -4.133  -0.754  0.00  0.00    -0.003 C 
ENDBRANCH  38  40
ENDBRANCH  37  38
ENDBRANCH  36  37
ENDBRANCH  35  36
ENDBRANCH  31  35
ENDBRANCH   1  32
TORSDOF 10
