REMARK  Name = ZINC06239540
REMARK  9 active torsions:
REMARK  status: ('A' for Active; 'I' for Inactive)
REMARK    1  A    between atoms: C_1  and  O_2
REMARK    2  A    between atoms: O_2  and  C_3
REMARK    3  A    between atoms: C_7  and  C_17
REMARK    4  A    between atoms: C_14  and  O_15
REMARK    5  A    between atoms: O_15  and  C_16
REMARK    6  A    between atoms: C_17  and  C_19
REMARK    7  A    between atoms: C_17  and  N_66
REMARK    8  A    between atoms: N_23  and  C_24
REMARK    9  A    between atoms: C_24  and  C_25
REMARK                            x       y       z     vdW  Elec       q    Type
REMARK                         _______ _______ _______ _____ _____    ______ ____
ROOT
ATOM      1  C   UNL     1      -0.018   1.503   0.010  0.00  0.00    +0.039 C 
ENDROOT
BRANCH   1   6
ATOM      2  C   UNL     1       2.185  -4.280   0.348  0.00  0.00    +0.162 A 
ATOM      3  C   UNL     1       2.258  -2.914   0.185  0.00  0.00    +0.059 A 
ATOM      4  C   UNL     1       1.091  -2.144   0.264  0.00  0.00    +0.002 A 
ATOM      5  C   UNL     1       1.132  -0.693   0.089  0.00  0.00    +0.017 A 
ATOM      6  C   UNL     1      -0.028   0.005   0.180  0.00  0.00    +0.011 A 
ATOM      7  C   UNL     1      -1.243  -0.665   0.426  0.00  0.00    +0.251 A 
ATOM      8  O   UNL     1      -2.274  -0.019   0.499  0.00  0.00    -0.268 OA
ATOM      9  N   UNL     1      -1.294  -2.000   0.583  0.00  0.00    -0.322 N 
ATOM     10  H   UNL     1      -2.147  -2.429   0.752  0.00  0.00    +0.169 HD
ATOM     11  C   UNL     1      -0.149  -2.767   0.508  0.00  0.00    +0.053 A 
ATOM     12  C   UNL     1      -0.204  -4.146   0.671  0.00  0.00    +0.075 A 
ATOM     13  C   UNL     1       0.954  -4.897   0.592  0.00  0.00    +0.163 A 
BRANCH   2  15
ATOM     14  C   UNL     1       4.540  -4.340   0.022  0.00  0.00    +0.277 C 
ATOM     15  O   UNL     1       3.316  -5.032   0.272  0.00  0.00    -0.491 OA
ENDBRANCH   2  15
BRANCH  13  16
ATOM     16  O   UNL     1       0.895  -6.244   0.751  0.00  0.00    -0.491 OA
ATOM     17  C   UNL     1      -0.393  -6.813   0.997  0.00  0.00    +0.277 C 
ENDBRANCH  13  16
ENDBRANCH   1   6
BRANCH   1  27
ATOM     18  C   UNL     1      -0.611   1.292  -2.330  0.00  0.00    -0.072 C 
ATOM     19  C   UNL     1      -1.808   1.406  -3.273  0.00  0.00    +0.017 C 
ATOM     20  C   UNL     1      -2.324   2.823  -3.280  0.00  0.00    -0.048 A 
ATOM     21  C   UNL     1      -3.161   3.217  -4.314  0.00  0.00    +0.004 A 
ATOM     22  C   UNL     1      -3.663   4.502  -4.353  0.00  0.00    +0.000 A 
ATOM     23  C   UNL     1      -3.328   5.402  -3.358  0.00  0.00    +0.000 A 
ATOM     24  C   UNL     1      -2.493   5.011  -2.330  0.00  0.00    +0.002 A 
ATOM     25  C   UNL     1      -1.988   3.720  -2.290  0.00  0.00    -0.061 A 
ATOM     26  C   UNL     1      -1.077   3.342  -1.151  0.00  0.00    -0.041 C 
ATOM     27  N   UNL     1      -1.002   1.876  -1.031  0.00  0.00    +0.392 N 
ATOM     28  H   UNL     1      -1.925   1.514  -0.765  0.00  0.00    -0.080 HD
ENDBRANCH   1  27
BRANCH   1  29
ATOM     29  C   UNL     1      -0.405   2.158   1.311  0.00  0.00    +0.143 A 
ATOM     30  N   UNL     1      -1.615   2.270   1.802  0.00  0.00    -0.115 NA
ATOM     31  N   UNL     1      -1.532   2.890   2.928  0.00  0.00    -0.023 NA
ATOM     32  N   UNL     1      -0.300   3.176   3.169  0.00  0.00    -0.044 NA
ATOM     33  N   UNL     1       0.427   2.737   2.197  0.00  0.00    -0.226 N 
BRANCH  33  34
ATOM     34  C   UNL     1       1.883   2.850   2.080  0.00  0.00    +0.182 C 
BRANCH  34  35
ATOM     35  C   UNL     1       2.231   4.132   1.369  0.00  0.00    -0.026 A 
ATOM     36  C   UNL     1       2.356   4.146  -0.008  0.00  0.00    +0.008 A 
ATOM     37  C   UNL     1       2.670   5.323  -0.662  0.00  0.00    +0.038 A 
ATOM     38  C   UNL     1       2.872   6.485   0.064  0.00  0.00    +0.123 A 
ATOM     39  C   UNL     1       2.752   6.468   1.443  0.00  0.00    +0.038 A 
ATOM     40  C   UNL     1       2.432   5.292   2.094  0.00  0.00    +0.008 A 
ATOM     41  F   UNL     1       3.184   7.634  -0.574  0.00  0.00    -0.205 F 
ENDBRANCH  34  35
ENDBRANCH  33  34
ENDBRANCH   1  29
TORSDOF 7
