REMARK  Name = ZINC09320404
REMARK  4 active torsions:
REMARK  status: ('A' for Active; 'I' for Inactive)
REMARK    1  A    between atoms: C_1  and  C_2
REMARK    2  A    between atoms: C_23  and  O_35
REMARK    3  A    between atoms: N_24  and  C_27
REMARK    4  A    between atoms: C_27  and  C_28
REMARK                            x       y       z     vdW  Elec       q    Type
REMARK                         _______ _______ _______ _____ _____    ______ ____
ROOT
ATOM      1  C   UNL     1      -5.317  -7.642   7.213  0.00  0.00    +0.044 C 
ATOM      2  C   UNL     1      -4.442  -6.441   6.962  0.00  0.00    -0.050 A 
ATOM      3  C   UNL     1      -3.543  -6.028   7.942  0.00  0.00    +0.005 A 
ATOM      4  C   UNL     1      -2.739  -4.947   7.748  0.00  0.00    +0.026 A 
ATOM      5  C   UNL     1      -2.814  -4.230   6.542  0.00  0.00    +0.048 A 
ATOM      6  C   UNL     1      -3.727  -4.654   5.545  0.00  0.00    -0.001 A 
ATOM      7  C   UNL     1      -4.541  -5.772   5.780  0.00  0.00    +0.013 A 
ATOM      8  C   UNL     1      -3.792  -3.936   4.336  0.00  0.00    +0.017 A 
ATOM      9  C   UNL     1      -2.974  -2.854   4.170  0.00  0.00    -0.007 A 
ATOM     10  C   UNL     1      -2.098  -2.473   5.191  0.00  0.00    +0.103 A 
ATOM     11  N   UNL     1      -1.263  -1.373   5.087  0.00  0.00    -0.312 N 
ATOM     12  C   UNL     1       0.009  -1.608   5.783  0.00  0.00    +0.107 C 
ATOM     13  C   UNL     1       0.802  -0.301   5.850  0.00  0.00    +0.019 C 
ATOM     14  C   UNL     1       1.060   0.207   4.428  0.00  0.00    +0.003 C 
ATOM     15  C   UNL     1      -0.280   0.399   3.712  0.00  0.00    +0.024 C 
ATOM     16  C   UNL     1      -1.045  -0.928   3.712  0.00  0.00    +0.099 C 
ATOM     17  C   UNL     1      -2.402  -0.728   3.027  0.00  0.00    +0.148 C 
ATOM     18  C   UNL     1      -3.054  -2.104   2.864  0.00  0.00    +0.066 C 
ATOM     19  C   UNL     1      -3.274   0.143   3.885  0.00  0.00    +0.257 C 
ATOM     20  O   UNL     1      -3.535  -0.219   5.015  0.00  0.00    -0.272 OA
ATOM     21  N   UNL     1      -3.768   1.294   3.451  0.00  0.00    -0.130 NA
ATOM     22  C   UNL     1      -3.531   1.755   2.243  0.00  0.00    +0.281 C 
ATOM     23  N   UNL     1      -2.754   1.072   1.355  0.00  0.00    -0.223 N 
ATOM     24  C   UNL     1      -2.200  -0.108   1.673  0.00  0.00    +0.240 C 
ATOM     25  O   UNL     1      -1.518  -0.684   0.853  0.00  0.00    -0.274 OA
ATOM     26  N   UNL     1      -1.990  -3.139   6.382  0.00  0.00    -0.343 N 
ATOM     27  H   UNL     1      -1.333  -2.842   7.113  0.00  0.00    +0.167 HD
ENDROOT
BRANCH  22  28
ATOM     28  O   UNL     1      -4.069   2.931   1.873  0.00  0.00    -0.483 OA
ATOM     29  H   UNL     1      -4.615   3.389   2.527  0.00  0.00    +0.295 HD
ENDBRANCH  22  28
BRANCH  23  30
ATOM     30  C   UNL     1      -2.524   1.637   0.023  0.00  0.00    +0.154 C 
BRANCH  30  31
ATOM     31  C   UNL     1      -1.362   2.595   0.077  0.00  0.00    -0.011 A 
ATOM     32  C   UNL     1      -0.776   2.903   1.291  0.00  0.00    +0.006 A 
ATOM     33  C   UNL     1       0.286   3.786   1.342  0.00  0.00    +0.000 A 
ATOM     34  C   UNL     1       0.767   4.358   0.178  0.00  0.00    +0.001 A 
ATOM     35  C   UNL     1       0.186   4.046  -1.036  0.00  0.00    +0.020 A 
ATOM     36  C   UNL     1      -0.877   3.161  -1.088  0.00  0.00    +0.046 A 
ATOM     37 CL   UNL     1      -1.607   2.769  -2.613  0.00  0.00    -0.083 Cl
ENDBRANCH  30  31
ENDBRANCH  23  30
TORSDOF 3
