REMARK  Name = ZINC41004898
REMARK  6 active torsions:
REMARK  status: ('A' for Active; 'I' for Inactive)
REMARK    1  A    between atoms: C_1  and  C_2
REMARK    2  A    between atoms: C_9  and  N_22
REMARK    3  A    between atoms: C_10  and  C_11
REMARK    4  A    between atoms: N_13  and  C_14
REMARK    5  A    between atoms: C_23  and  C_25
REMARK    6  A    between atoms: C_25  and  C_26
REMARK                            x       y       z     vdW  Elec       q    Type
REMARK                         _______ _______ _______ _____ _____    ______ ____
ROOT
ATOM      1  C   UNL     1      -0.019   1.526   0.010  0.00  0.00    +0.008 C 
ATOM      2  C   UNL     1       0.002  -0.004   0.002  0.00  0.00    -0.009 C 
ATOM      3  C   UNL     1       0.724  -0.500  -1.254  0.00  0.00    +0.008 C 
ATOM      4  C   UNL     1       0.537  -2.012  -1.399  0.00  0.00    +0.037 C 
ATOM      5  C   UNL     1       0.935  -2.680  -0.091  0.00  0.00    -0.023 A 
ATOM      6  C   UNL     1       1.019  -1.977   1.059  0.00  0.00    -0.004 A 
ATOM      7  S   UNL     1       1.508  -3.164   2.276  0.00  0.00    -0.077 S 
ATOM      8  C   UNL     1       1.599  -4.539   1.315  0.00  0.00    +0.084 A 
ATOM      9  C   UNL     1       1.254  -4.090   0.050  0.00  0.00    +0.069 A 
ATOM     10  C   UNL     1       0.750  -0.515   1.242  0.00  0.00    +0.046 C 
ENDROOT
BRANCH   9  11
ATOM     11  C   UNL     1       1.212  -5.001  -1.099  0.00  0.00    +0.247 C 
ATOM     12  O   UNL     1       2.208  -5.170  -1.778  0.00  0.00    -0.270 OA
ATOM     13  N   UNL     1       0.071  -5.651  -1.402  0.00  0.00    -0.307 N 
ATOM     14  H   UNL     1      -0.722  -5.516  -0.860  0.00  0.00    +0.149 HD
BRANCH  13  15
ATOM     15  C   UNL     1       0.029  -6.562  -2.549  0.00  0.00    +0.096 C 
ATOM     16  C   UNL     1       0.521  -7.952  -2.115  0.00  0.00    +0.046 C 
ATOM     17  C   UNL     1       0.175  -8.963  -3.246  0.00  0.00    +0.168 C 
ATOM     18  S   UNL     1      -1.508  -8.379  -3.716  0.00  0.00    -0.029 S 
ATOM     19  O   UNL     1      -2.475  -9.102  -2.966  0.00  0.00    -0.174 OA
ATOM     20  O   UNL     1      -1.606  -8.343  -5.133  0.00  0.00    -0.174 OA
ATOM     21  C   UNL     1      -1.423  -6.658  -3.076  0.00  0.00    +0.188 C 
ENDBRANCH  13  15
ENDBRANCH   9  11
BRANCH   8  22
ATOM     22  N   UNL     1       1.942  -5.826   1.699  0.00  0.00    -0.279 N 
ATOM     23  C   UNL     1       2.253  -6.086   2.984  0.00  0.00    +0.222 C 
ATOM     24  O   UNL     1       2.232  -5.193   3.805  0.00  0.00    -0.275 OA
ATOM     25  H   UNL     1       1.959  -6.540   1.042  0.00  0.00    +0.155 HD
BRANCH  23  26
ATOM     26  C   UNL     1       2.626  -7.485   3.402  0.00  0.00    +0.131 C 
BRANCH  26  27
ATOM     27  C   UNL     1       2.925  -7.506   4.879  0.00  0.00    -0.035 A 
ATOM     28  C   UNL     1       4.213  -7.271   5.324  0.00  0.00    +0.008 A 
ATOM     29  C   UNL     1       4.495  -7.288   6.678  0.00  0.00    +0.050 A 
ATOM     30  C   UNL     1       3.482  -7.541   7.587  0.00  0.00    +0.162 A 
ATOM     31  C   UNL     1       2.189  -7.776   7.141  0.00  0.00    +0.162 A 
ATOM     32  C   UNL     1       1.909  -7.753   5.785  0.00  0.00    +0.053 A 
ATOM     33  O   UNL     1       1.198  -8.022   8.045  0.00  0.00    -0.488 OA
ATOM     34  C   UNL     1       1.291  -9.261   8.752  0.00  0.00    +0.232 C 
ATOM     35  C   UNL     1       2.205  -9.125   9.959  0.00  0.00    +0.082 C 
ATOM     36  C   UNL     1       3.645  -8.833   9.566  0.00  0.00    +0.232 C 
ATOM     37  O   UNL     1       3.746  -7.559   8.926  0.00  0.00    -0.488 OA
ENDBRANCH  26  27
ENDBRANCH  23  26
ENDBRANCH   8  22
TORSDOF 5
