REMARK  Name = ZINC23261986
REMARK  8 active torsions:
REMARK  status: ('A' for Active; 'I' for Inactive)
REMARK    1  A    between atoms: C_1  and  C_2
REMARK    2  A    between atoms: C_2  and  C_3
REMARK    3  A    between atoms: C_3  and  C_29
REMARK    4  A    between atoms: N_6  and  C_10
REMARK    5  A    between atoms: C_10  and  C_11
REMARK    6  A    between atoms: N_13  and  C_14
REMARK    7  A    between atoms: C_14  and  C_16
REMARK    8  A    between atoms: C_14  and  C_22
REMARK                            x       y       z     vdW  Elec       q    Type
REMARK                         _______ _______ _______ _____ _____    ______ ____
ROOT
ATOM      1  C   UNL     1       2.453   1.438  -0.013  0.00  0.00    +0.213 C 
ENDROOT
BRANCH   1   5
ATOM      2  C   UNL     1      -0.727   3.357   0.027  0.00  0.00    +0.138 C 
ATOM      3  C   UNL     1       0.787   3.284   0.012  0.00  0.00    +0.251 C 
ATOM      4  O   UNL     1       1.565   4.213   0.009  0.00  0.00    -0.272 OA
ATOM      5  N   UNL     1       1.087   1.970   0.002  0.00  0.00    -0.215 N 
ATOM      6  C   UNL     1      -0.014   1.211   0.009  0.00  0.00    +0.310 C 
ATOM      7  O   UNL     1       0.002  -0.004   0.002  0.00  0.00    -0.252 OA
ATOM      8  N   UNL     1      -1.143   1.944   0.018  0.00  0.00    -0.281 N 
ATOM      9  H   UNL     1      -2.212   1.685   0.019  0.00  0.00    +0.152 HD
BRANCH   2  10
ATOM     10  C   UNL     1      -1.212   4.052   1.273  0.00  0.00    -0.015 A 
ATOM     11  C   UNL     1      -1.397   5.422   1.272  0.00  0.00    +0.007 A 
ATOM     12  C   UNL     1      -1.848   6.060   2.413  0.00  0.00    +0.020 A 
ATOM     13  C   UNL     1      -2.102   5.328   3.559  0.00  0.00    +0.041 A 
ATOM     14  C   UNL     1      -1.911   3.958   3.561  0.00  0.00    +0.020 A 
ATOM     15  C   UNL     1      -1.466   3.321   2.418  0.00  0.00    +0.007 A 
ATOM     16 CL   UNL     1      -2.660   6.129   4.995  0.00  0.00    -0.084 Cl
ENDBRANCH   2  10
BRANCH   2  18
ATOM     17  C   UNL     1      -0.889   3.252  -2.464  0.00  0.00    +0.007 C 
ATOM     18  C   UNL     1      -1.244   4.073  -1.222  0.00  0.00    +0.037 C 
ENDBRANCH   2  18
ENDBRANCH   1   5
BRANCH   1  19
ATOM     19  C   UNL     1       2.908   1.264  -1.439  0.00  0.00    +0.232 C 
ATOM     20  O   UNL     1       2.165   1.554  -2.352  0.00  0.00    -0.274 OA
ATOM     21  N   UNL     1       4.140   0.784  -1.699  0.00  0.00    -0.303 N 
ATOM     22  H   UNL     1       4.814   0.521  -0.870  0.00  0.00    +0.150 HD
BRANCH  21  23
ATOM     23  C   UNL     1       4.583   0.614  -3.085  0.00  0.00    +0.134 C 
BRANCH  23  24
ATOM     24  C   UNL     1       6.088   0.673  -3.143  0.00  0.00    -0.023 A 
ATOM     25  C   UNL     1       6.841   0.068  -2.154  0.00  0.00    +0.007 A 
ATOM     26  C   UNL     1       8.221   0.117  -2.209  0.00  0.00    +0.020 A 
ATOM     27  C   UNL     1       8.849   0.780  -3.248  0.00  0.00    +0.041 A 
ATOM     28  C   UNL     1       8.094   1.390  -4.235  0.00  0.00    +0.020 A 
ATOM     29  C   UNL     1       6.714   1.336  -4.181  0.00  0.00    +0.007 A 
ATOM     30 CL   UNL     1      10.582   0.848  -3.315  0.00  0.00    -0.084 Cl
ENDBRANCH  23  24
BRANCH  23  31
ATOM     31  C   UNL     1       4.112  -0.720  -3.603  0.00  0.00    -0.023 A 
ATOM     32  C   UNL     1       4.157  -1.834  -2.785  0.00  0.00    +0.006 A 
ATOM     33  C   UNL     1       3.721  -3.057  -3.258  0.00  0.00    +0.000 A 
ATOM     34  C   UNL     1       3.249  -3.169  -4.553  0.00  0.00    +0.000 A 
ATOM     35  C   UNL     1       3.208  -2.056  -5.372  0.00  0.00    +0.000 A 
ATOM     36  C   UNL     1       3.640  -0.832  -4.897  0.00  0.00    +0.006 A 
ENDBRANCH  23  31
ENDBRANCH  21  23
ENDBRANCH   1  19
TORSDOF 7
