REMARK  Name = ZINC21079413
REMARK  11 active torsions:
REMARK  status: ('A' for Active; 'I' for Inactive)
REMARK    1  A    between atoms: C_1  and  C_2
REMARK    2  A    between atoms: C_2  and  N_3
REMARK    3  A    between atoms: N_3  and  S_4
REMARK    4  A    between atoms: S_4  and  C_7
REMARK    5  A    between atoms: C_10  and  N_13
REMARK    6  A    between atoms: C_14  and  C_16
REMARK    7  A    between atoms: C_16  and  S_17
REMARK    8  A    between atoms: S_17  and  C_18
REMARK    9  A    between atoms: N_23  and  N_24
REMARK   10  A    between atoms: C_25  and  C_26
REMARK   11  A    between atoms: C_25  and  C_27
REMARK                            x       y       z     vdW  Elec       q    Type
REMARK                         _______ _______ _______ _____ _____    ______ ____
ROOT
ATOM      1  C   UNL     1      -5.440   7.445   7.997  0.00  0.00    +0.211 A 
ATOM      2  N   UNL     1      -5.023   8.348   8.933  0.00  0.00    -0.186 NA
ATOM      3  C   UNL     1      -5.609   8.024  10.125  0.00  0.00    +0.232 A 
ATOM      4  N   UNL     1      -6.358   6.964   9.932  0.00  0.00    -0.245 N 
ATOM      5  N   UNL     1      -6.255   6.601   8.583  0.00  0.00    -0.144 NA
ATOM      6  N   UNL     1      -5.442   8.697  11.326  0.00  0.00    -0.205 N 
ATOM      7  H   UNL     1      -4.788   9.580  11.375  0.00  0.00    +0.177 HD
ATOM      8  H   UNL     1      -6.921   6.530  10.771  0.00  0.00    +0.192 HD
ENDROOT
BRANCH   6   9
ATOM      9  N   UNL     1      -6.108   8.253  12.476  0.00  0.00    -0.184 NA
ATOM     10  C   UNL     1      -5.959   8.889  13.599  0.00  0.00    +0.063 C 
ATOM     11  C   UNL     1      -6.544   8.325  14.868  0.00  0.00    +0.068 C 
BRANCH  10  12
ATOM     12  C   UNL     1      -5.219  10.163  13.631  0.00  0.00    +0.001 A 
ATOM     13  C   UNL     1      -5.354  11.080  12.585  0.00  0.00    +0.013 A 
ATOM     14  C   UNL     1      -4.660  12.271  12.618  0.00  0.00    +0.050 A 
ATOM     15  C   UNL     1      -3.826  12.564  13.687  0.00  0.00    +0.166 A 
ATOM     16  C   UNL     1      -3.686  11.654  14.734  0.00  0.00    +0.167 A 
ATOM     17  C   UNL     1      -4.383  10.461  14.711  0.00  0.00    +0.059 A 
ATOM     18  O   UNL     1      -2.817  12.175  15.650  0.00  0.00    -0.453 OA
ATOM     19  C   UNL     1      -2.746  13.582  15.355  0.00  0.00    +0.466 C 
ATOM     20  O   UNL     1      -3.045  13.653  13.949  0.00  0.00    -0.453 OA
ENDBRANCH  10  12
ENDBRANCH   6   9
BRANCH   1  21
ATOM     21  S   UNL     1      -4.972   7.423   6.298  0.00  0.00    -0.075 S 
BRANCH  21  22
ATOM     22  C   UNL     1      -5.860   5.995   5.617  0.00  0.00    +0.173 C 
BRANCH  22  24
ATOM     23  N   UNL     1      -6.095   4.862   3.431  0.00  0.00    -0.285 N 
ATOM     24  C   UNL     1      -5.543   5.860   4.150  0.00  0.00    +0.227 C 
ATOM     25  O   UNL     1      -4.793   6.649   3.617  0.00  0.00    -0.275 OA
ATOM     26  H   UNL     1      -6.835   4.194   3.895  0.00  0.00    +0.155 HD
BRANCH  23  30
ATOM     27  C   UNL     1      -4.994   4.308  -0.548  0.00  0.00    +0.105 A 
ATOM     28  C   UNL     1      -6.316   4.160  -0.172  0.00  0.00    +0.030 A 
ATOM     29  C   UNL     1      -6.683   4.338   1.148  0.00  0.00    +0.025 A 
ATOM     30  C   UNL     1      -5.725   4.676   2.094  0.00  0.00    +0.034 A 
ATOM     31  C   UNL     1      -4.399   4.829   1.712  0.00  0.00    +0.025 A 
ATOM     32  C   UNL     1      -4.037   4.644   0.392  0.00  0.00    +0.030 A 
BRANCH  27  33
ATOM     33  S   UNL     1      -4.528   4.073  -2.232  0.00  0.00    +0.058 S 
ATOM     34  O   UNL     1      -3.327   4.808  -2.427  0.00  0.00    -0.153 OA
ATOM     35  O   UNL     1      -5.694   4.298  -3.011  0.00  0.00    -0.153 OA
BRANCH  33  36
ATOM     36  N   UNL     1      -4.139   2.474  -2.414  0.00  0.00    -0.190 NA
ATOM     37  H   UNL     1      -3.081   2.184  -2.497  0.00  0.00    +0.148 HD
BRANCH  36  39
ATOM     38  C   UNL     1      -4.665   0.120  -2.820  0.00  0.00    +0.022 C 
ATOM     39  C   UNL     1      -5.169   1.446  -2.246  0.00  0.00    +0.102 C 
ENDBRANCH  36  39
ENDBRANCH  33  36
ENDBRANCH  27  33
ENDBRANCH  23  30
ENDBRANCH  22  24
ENDBRANCH  21  22
ENDBRANCH   1  21
TORSDOF 9
