REMARK  Name = ZINC04895668
REMARK  9 active torsions:
REMARK  status: ('A' for Active; 'I' for Inactive)
REMARK    1  A    between atoms: C_1  and  C_2
REMARK    2  A    between atoms: C_2  and  C_3
REMARK    3  A    between atoms: C_2  and  C_4
REMARK    4  A    between atoms: C_2  and  N_5
REMARK    5  A    between atoms: C_6  and  C_8
REMARK    6  A    between atoms: C_16  and  C_26
REMARK    7  A    between atoms: N_22  and  C_23
REMARK    8  A    between atoms: C_23  and  C_24
REMARK    9  A    between atoms: N_28  and  C_29
REMARK                            x       y       z     vdW  Elec       q    Type
REMARK                         _______ _______ _______ _____ _____    ______ ____
ROOT
ATOM      1  C   UNL     1       1.092   2.107  -0.876  0.00  0.00    +0.199 C 
ATOM      2  C   UNL     1       0.753   3.075   0.215  0.00  0.00    +0.127 C 
ATOM      3  C   UNL     1       0.432   2.391   1.531  0.00  0.00    +0.009 C 
ATOM      4  C   UNL     1       0.166   3.366   2.388  0.00  0.00    +0.004 C 
ATOM      5  C   UNL     1       0.267   4.657   1.565  0.00  0.00    +0.155 C 
ATOM      6  O   UNL     1       1.338   4.300   0.594  0.00  0.00    -0.358 OA
ATOM      7  C   UNL     1      -1.030   4.581   0.669  0.00  0.00    +0.122 C 
ATOM      8  C   UNL     1      -0.591   3.624  -0.410  0.00  0.00    +0.128 C 
ATOM      9  C   UNL     1      -1.240   2.359  -0.796  0.00  0.00    +0.224 C 
ATOM     10  O   UNL     1      -2.431   2.127  -0.786  0.00  0.00    -0.275 OA
ATOM     11  N   UNL     1      -0.241   1.493  -1.168  0.00  0.00    -0.283 N 
ENDROOT
BRANCH   1  13
ATOM     12  N   UNL     1       3.393   1.254  -0.567  0.00  0.00    -0.309 N 
ATOM     13  C   UNL     1       2.070   1.069  -0.390  0.00  0.00    +0.237 C 
ATOM     14  O   UNL     1       1.666   0.066   0.160  0.00  0.00    -0.274 OA
ATOM     15  H   UNL     1       3.716   2.056  -1.006  0.00  0.00    +0.149 HD
BRANCH  12  17
ATOM     16  C   UNL     1       4.060  -1.089  -0.792  0.00  0.00    +0.031 C 
ATOM     17  C   UNL     1       4.343   0.244  -0.095  0.00  0.00    +0.026 C 
ATOM     18  C   UNL     1       5.769   0.695  -0.417  0.00  0.00    +0.031 C 
ATOM     19  C   UNL     1       4.193   0.070   1.418  0.00  0.00    +0.031 C 
ENDBRANCH  12  17
ENDBRANCH   1  13
BRANCH   7  20
ATOM     20  C   UNL     1      -2.193   4.023   1.448  0.00  0.00    +0.220 C 
ATOM     21  O   UNL     1      -2.284   2.827   1.629  0.00  0.00    -0.275 OA
ATOM     22  N   UNL     1      -3.133   4.853   1.942  0.00  0.00    -0.312 N 
ATOM     23  H   UNL     1      -3.061   5.809   1.798  0.00  0.00    +0.149 HD
BRANCH  22  24
ATOM     24  C   UNL     1      -4.264   4.310   2.699  0.00  0.00    +0.073 C 
ATOM     25  C   UNL     1      -5.366   3.877   1.730  0.00  0.00    +0.022 C 
ATOM     26  C   UNL     1      -6.547   3.310   2.520  0.00  0.00    +0.002 C 
ATOM     27  C   UNL     1      -7.091   4.384   3.464  0.00  0.00    +0.000 C 
ATOM     28  C   UNL     1      -5.989   4.817   4.434  0.00  0.00    +0.002 C 
ATOM     29  C   UNL     1      -4.808   5.384   3.643  0.00  0.00    +0.022 C 
ENDBRANCH  22  24
ENDBRANCH   7  20
BRANCH  11  30
ATOM     30  C   UNL     1      -0.448   0.171  -1.764  0.00  0.00    +0.135 C 
BRANCH  30  31
ATOM     31  C   UNL     1      -0.622   0.314  -3.255  0.00  0.00    -0.016 C 
ATOM     32  C   UNL     1       0.168  -0.337  -4.072  0.00  0.00    +0.005 C 
ENDBRANCH  30  31
ENDBRANCH  11  30
TORSDOF 6
