REMARK  Name = ZINC64041969
REMARK  9 active torsions:
REMARK  status: ('A' for Active; 'I' for Inactive)
REMARK    1  A    between atoms: C_1  and  C_2
REMARK    2  A    between atoms: C_2  and  C_3
REMARK    3  A    between atoms: C_3  and  N_4
REMARK    4  A    between atoms: C_5  and  N_31
REMARK    5  A    between atoms: C_7  and  C_13
REMARK    6  A    between atoms: C_13  and  C_15
REMARK    7  A    between atoms: C_15  and  S_16
REMARK    8  A    between atoms: S_16  and  C_17
REMARK    9  A    between atoms: C_20  and  C_22
REMARK                            x       y       z     vdW  Elec       q    Type
REMARK                         _______ _______ _______ _____ _____    ______ ____
ROOT
ATOM      1  C   UNL     1      -1.236  -5.089   2.324  0.00  0.00    +0.174 C 
ATOM      2  O   UNL     1      -1.044  -6.287   2.413  0.00  0.00    -0.291 OA
ENDROOT
BRANCH   1   5
ATOM      3  N   UNL     1       1.980  -3.885   0.615  0.00  0.00    -0.295 N 
ATOM      4  C   UNL     1       1.051  -4.828   1.258  0.00  0.00    +0.057 C 
ATOM      5  C   UNL     1      -0.288  -4.276   1.705  0.00  0.00    +0.060 C 
ATOM      6  C   UNL     1      -0.533  -2.937   1.474  0.00  0.00    +0.251 C 
ATOM      7  O   UNL     1      -1.710  -2.399   1.853  0.00  0.00    -0.270 OA
ATOM      8  N   UNL     1       0.406  -2.152   0.866  0.00  0.00    -0.236 N 
ATOM      9  C   UNL     1       1.600  -2.602   0.463  0.00  0.00    +0.308 C 
ATOM     10  O   UNL     1       2.370  -1.823  -0.064  0.00  0.00    -0.252 OA
ATOM     11  H   UNL     1       0.196  -1.216   0.721  0.00  0.00    +0.159 HD
BRANCH   4  12
ATOM     12  N   UNL     1       1.723  -5.392   2.437  0.00  0.00    +0.393 N 
ATOM     13  H   UNL     1       2.050  -4.643   3.028  0.00  0.00    -0.087 HD
ATOM     14  H   UNL     1       1.073  -5.967   2.951  0.00  0.00    -0.087 HD
ATOM     15  H   UNL     1       2.507  -5.953   2.140  0.00  0.00    -0.087 HD
ENDBRANCH   4  12
BRANCH   3  16
ATOM     16  C   UNL     1       3.297  -4.332   0.153  0.00  0.00    +0.107 C 
BRANCH  16  18
ATOM     17  C   UNL     1       5.691  -4.637   0.800  0.00  0.00    +0.005 C 
ATOM     18  C   UNL     1       4.316  -4.169   1.282  0.00  0.00    +0.016 C 
ENDBRANCH  16  18
ENDBRANCH   3  16
ENDBRANCH   1   5
BRANCH   1  19
ATOM     19  C   UNL     1      -2.498  -4.484   2.882  0.00  0.00    +0.158 C 
BRANCH  19  20
ATOM     20  S   UNL     1      -3.511  -5.787   3.635  0.00  0.00    -0.058 S 
BRANCH  20  21
ATOM     21  C   UNL     1      -4.931  -4.931   4.233  0.00  0.00    +0.278 A 
ATOM     22  N   UNL     1      -5.163  -3.632   4.127  0.00  0.00    -0.101 NA
ATOM     23  N   UNL     1      -6.294  -3.355   4.674  0.00  0.00    -0.107 NA
ATOM     24  C   UNL     1      -6.831  -4.466   5.153  0.00  0.00    +0.248 A 
ATOM     25  O   UNL     1      -5.977  -5.480   4.874  0.00  0.00    -0.411 OA
BRANCH  24  26
ATOM     26  C   UNL     1      -8.060  -4.574   5.820  0.00  0.00    +0.044 C 
ATOM     27  C   UNL     1      -8.958  -3.545   6.106  0.00  0.00    +0.008 A 
ATOM     28  C   UNL     1      -8.935  -2.159   5.841  0.00  0.00    +0.010 A 
ATOM     29  C   UNL     1      -9.971  -1.379   6.245  0.00  0.00    +0.001 A 
ATOM     30  C   UNL     1     -11.070  -1.915   6.921  0.00  0.00    +0.002 A 
ATOM     31  C   UNL     1     -11.158  -3.237   7.208  0.00  0.00    +0.026 A 
ATOM     32  C   UNL     1     -10.114  -4.115   6.817  0.00  0.00    +0.043 A 
ATOM     33  N   UNL     1      -9.963  -5.415   6.975  0.00  0.00    -0.380 N 
ATOM     34  C   UNL     1      -8.692  -5.831   6.375  0.00  0.00    +0.154 C 
ATOM     35  H   UNL     1     -10.596  -6.004   7.415  0.00  0.00    +0.160 HD
ENDBRANCH  24  26
ENDBRANCH  20  21
ENDBRANCH  19  20
ENDBRANCH   1  19
TORSDOF 8
