REMARK  Name = ZINC11978292
REMARK  9 active torsions:
REMARK  status: ('A' for Active; 'I' for Inactive)
REMARK    1  A    between atoms: C_1  and  C_2
REMARK    2  A    between atoms: C_2  and  N_3
REMARK    3  A    between atoms: N_3  and  S_4
REMARK    4  A    between atoms: S_4  and  C_7
REMARK    5  A    between atoms: C_10  and  C_13
REMARK    6  A    between atoms: C_13  and  O_15
REMARK    7  A    between atoms: O_15  and  C_16
REMARK    8  A    between atoms: C_16  and  C_17
REMARK    9  A    between atoms: C_18  and  C_19
REMARK                            x       y       z     vdW  Elec       q    Type
REMARK                         _______ _______ _______ _____ _____    ______ ____
ROOT
ATOM      1  C   UNL     1      -0.927   1.900   1.439  0.00  0.00    +0.105 A 
ATOM      2  C   UNL     1      -0.714   3.147   2.002  0.00  0.00    +0.029 A 
ATOM      3  C   UNL     1      -1.427   3.533   3.118  0.00  0.00    +0.017 A 
ATOM      4  C   UNL     1      -2.356   2.660   3.687  0.00  0.00    +0.059 A 
ATOM      5  C   UNL     1      -2.561   1.401   3.117  0.00  0.00    +0.017 A 
ATOM      6  C   UNL     1      -1.846   1.030   1.998  0.00  0.00    +0.029 A 
ENDROOT
BRANCH   1   7
ATOM      7  S   UNL     1      -0.017   1.417   0.010  0.00  0.00    +0.058 S 
ATOM      8  O   UNL     1       0.002  -0.004   0.002  0.00  0.00    -0.153 OA
ATOM      9  O   UNL     1       1.172   2.195   0.003  0.00  0.00    -0.153 OA
BRANCH   7  10
ATOM     10  N   UNL     1      -0.897   1.885  -1.312  0.00  0.00    -0.190 NA
ATOM     11  H   UNL     1      -1.263   1.218  -1.913  0.00  0.00    +0.148 HD
BRANCH  10  13
ATOM     12  C   UNL     1      -1.622   3.491  -3.009  0.00  0.00    +0.022 C 
ATOM     13  C   UNL     1      -1.125   3.309  -1.574  0.00  0.00    +0.102 C 
ENDBRANCH  10  13
ENDBRANCH   7  10
ENDBRANCH   1   7
BRANCH   4  14
ATOM     14  C   UNL     1      -3.118   3.065   4.885  0.00  0.00    +0.339 C 
ATOM     15  O   UNL     1      -3.926   2.303   5.378  0.00  0.00    -0.245 OA
BRANCH  14  16
ATOM     16  O   UNL     1      -2.918   4.280   5.432  0.00  0.00    -0.457 OA
BRANCH  16  17
ATOM     17  C   UNL     1      -3.702   4.610   6.609  0.00  0.00    +0.260 C 
BRANCH  17  18
ATOM     18  C   UNL     1      -3.345   5.998   7.077  0.00  0.00    +0.014 C 
ATOM     19  C   UNL     1      -4.302   6.849   7.417  0.00  0.00    +0.007 C 
BRANCH  19  20
ATOM     20  C   UNL     1      -3.952   8.210   7.876  0.00  0.00    -0.025 A 
ATOM     21  C   UNL     1      -2.614   8.599   7.958  0.00  0.00    +0.008 A 
ATOM     22  C   UNL     1      -2.294   9.873   8.382  0.00  0.00    +0.001 A 
ATOM     23  C   UNL     1      -3.296  10.759   8.736  0.00  0.00    +0.000 A 
ATOM     24  C   UNL     1      -4.623  10.378   8.662  0.00  0.00    +0.001 A 
ATOM     25  C   UNL     1      -4.957   9.109   8.234  0.00  0.00    +0.008 A 
ENDBRANCH  19  20
ENDBRANCH  17  18
ENDBRANCH  16  17
ENDBRANCH  14  16
ENDBRANCH   4  14
TORSDOF 8
