REMARK  Name = ZINC35767305
REMARK  8 active torsions:
REMARK  status: ('A' for Active; 'I' for Inactive)
REMARK    1  A    between atoms: C_1  and  C_2
REMARK    2  A    between atoms: C_5  and  N_11
REMARK    3  A    between atoms: C_6  and  N_8
REMARK    4  A    between atoms: C_12  and  C_14
REMARK    5  A    between atoms: C_14  and  C_16
REMARK    6  A    between atoms: C_14  and  S_22
REMARK    7  A    between atoms: S_22  and  C_23
REMARK    8  A    between atoms: N_32  and  C_33
REMARK                            x       y       z     vdW  Elec       q    Type
REMARK                         _______ _______ _______ _____ _____    ______ ____
ROOT
ATOM      1  C   UNL     1      -0.132  -6.247  -1.188  0.00  0.00    +0.170 C 
ENDROOT
BRANCH   1   2
ATOM      2  C   UNL     1      -1.574  -6.656  -1.025  0.00  0.00    -0.025 A 
ATOM      3  C   UNL     1      -2.516  -6.251  -1.952  0.00  0.00    +0.005 A 
ATOM      4  C   UNL     1      -3.838  -6.626  -1.803  0.00  0.00    +0.000 A 
ATOM      5  C   UNL     1      -4.218  -7.406  -0.727  0.00  0.00    +0.000 A 
ATOM      6  C   UNL     1      -3.276  -7.812   0.200  0.00  0.00    +0.000 A 
ATOM      7  C   UNL     1      -1.953  -7.440   0.048  0.00  0.00    +0.005 A 
ENDBRANCH   1   2
BRANCH   1   9
ATOM      8  N   UNL     1       0.050  -4.088   0.006  0.00  0.00    -0.282 N 
ATOM      9  C   UNL     1      -0.031  -4.744  -1.169  0.00  0.00    +0.235 C 
ATOM     10  O   UNL     1      -0.023  -4.123  -2.212  0.00  0.00    -0.274 OA
ATOM     11  H   UNL     1       0.109  -4.587   0.836  0.00  0.00    +0.155 HD
BRANCH   8  16
ATOM     12  C   UNL     1       0.049   1.584   0.095  0.00  0.00    +0.044 C 
ATOM     13  C   UNL     1       0.049   0.077   0.071  0.00  0.00    -0.048 A 
ATOM     14  C   UNL     1       0.674  -0.596  -0.963  0.00  0.00    +0.005 A 
ATOM     15  C   UNL     1       0.676  -1.977  -0.987  0.00  0.00    +0.026 A 
ATOM     16  C   UNL     1       0.050  -2.689   0.028  0.00  0.00    +0.064 A 
ATOM     17  C   UNL     1      -0.576  -2.010   1.064  0.00  0.00    +0.148 A 
ATOM     18  C   UNL     1      -0.571  -0.629   1.086  0.00  0.00    +0.038 A 
BRANCH  17  19
ATOM     19  N   UNL     1      -1.244  -2.765   2.148  0.00  0.00    +0.058 N 
ATOM     20  O   UNL     1      -1.865  -2.176   3.002  0.00  0.00    -0.126 OA
ATOM     21  O   UNL     1      -1.170  -3.971   2.179  0.00  0.00    -0.126 OA
ENDBRANCH  17  19
ENDBRANCH   8  16
ENDBRANCH   1   9
BRANCH   1  22
ATOM     22  S   UNL     1       0.500  -6.876  -2.768  0.00  0.00    -0.070 S 
BRANCH  22  23
ATOM     23  C   UNL     1       0.454  -8.627  -2.579  0.00  0.00    +0.173 A 
ATOM     24  N   UNL     1       0.013  -9.148  -1.451  0.00  0.00    -0.216 NA
ATOM     25  C   UNL     1      -0.033 -10.463  -1.280  0.00  0.00    +0.116 A 
ATOM     26  C   UNL     1       0.382 -11.362  -2.282  0.00  0.00    +0.072 A 
ATOM     27  C   UNL     1       0.265 -12.767  -1.931  0.00  0.00    +0.023 A 
ATOM     28  C   UNL     1      -0.211 -13.103  -0.723  0.00  0.00    +0.048 A 
ATOM     29  S   UNL     1      -0.544 -11.528   0.044  0.00  0.00    -0.077 S 
ATOM     30  C   UNL     1       0.856 -10.768  -3.493  0.00  0.00    +0.263 A 
ATOM     31  O   UNL     1       1.237 -11.467  -4.416  0.00  0.00    -0.267 OA
ATOM     32  N   UNL     1       0.871  -9.426  -3.603  0.00  0.00    -0.290 N 
ATOM     33  C   UNL     1       1.349  -8.812  -4.845  0.00  0.00    +0.154 C 
ENDBRANCH  22  23
ENDBRANCH   1  22
TORSDOF 6
