REMARK  Name = ZINC06337085
REMARK  8 active torsions:
REMARK  status: ('A' for Active; 'I' for Inactive)
REMARK    1  A    between atoms: C_4  and  O_27
REMARK    2  A    between atoms: C_5  and  C_7
REMARK    3  A    between atoms: C_10  and  S_13
REMARK    4  A    between atoms: N_11  and  N_12
REMARK    5  A    between atoms: S_13  and  C_14
REMARK    6  A    between atoms: C_14  and  C_15
REMARK    7  A    between atoms: N_17  and  N_18
REMARK    8  A    between atoms: C_19  and  C_20
REMARK                            x       y       z     vdW  Elec       q    Type
REMARK                         _______ _______ _______ _____ _____    ______ ____
ROOT
ATOM      1  C   UNL     1       1.248  -2.161  -0.022  0.00  0.00    +0.185 A 
ATOM      2  N   UNL     1       2.318  -2.922  -0.031  0.00  0.00    -0.127 NA
ATOM      3  N   UNL     1       1.975  -4.160  -0.037  0.00  0.00    -0.121 NA
ATOM      4  C   UNL     1       0.665  -4.266  -0.032  0.00  0.00    +0.209 A 
ATOM      5  N   UNL     1       0.157  -2.999  -0.016  0.00  0.00    -0.224 N 
ENDROOT
BRANCH   1  10
ATOM      6  C   UNL     1      -0.017   1.375   0.010  0.00  0.00    +0.001 A 
ATOM      7  C   UNL     1       1.169   2.089   0.002  0.00  0.00    +0.004 A 
ATOM      8  C   UNL     1       2.383   1.427  -0.013  0.00  0.00    +0.046 A 
ATOM      9  C   UNL     1       2.418   0.042  -0.021  0.00  0.00    +0.128 A 
ATOM     10  C   UNL     1       1.221  -0.683  -0.013  0.00  0.00    +0.062 A 
ATOM     11  C   UNL     1       0.002  -0.004   0.002  0.00  0.00    +0.015 A 
BRANCH   9  12
ATOM     12  O   UNL     1       3.610  -0.609  -0.036  0.00  0.00    -0.506 OA
ATOM     13  H   UNL     1       3.964  -0.802   0.843  0.00  0.00    +0.292 HD
ENDBRANCH   9  12
ENDBRANCH   1  10
BRANCH   5  14
ATOM     14  N   UNL     1      -1.161  -2.638  -0.001  0.00  0.00    -0.295 N 
ATOM     15  H   UNL     1      -1.519  -2.537  -0.939  0.00  0.00    +0.163 HD
ATOM     16  H   UNL     1      -1.711  -3.299   0.526  0.00  0.00    +0.163 HD
ENDBRANCH   5  14
BRANCH   4  17
ATOM     17  S   UNL     1      -0.262  -5.765  -0.037  0.00  0.00    -0.075 S 
BRANCH  17  18
ATOM     18  C   UNL     1       1.004  -7.064  -0.050  0.00  0.00    +0.174 C 
BRANCH  18  19
ATOM     19  C   UNL     1       0.337  -8.415  -0.056  0.00  0.00    +0.242 C 
ATOM     20  O   UNL     1      -0.874  -8.494  -0.052  0.00  0.00    -0.273 OA
ATOM     21  N   UNL     1       1.085  -9.536  -0.066  0.00  0.00    -0.206 N 
ATOM     22  H   UNL     1       2.053  -9.473  -0.070  0.00  0.00    +0.177 HD
BRANCH  21  23
ATOM     23  N   UNL     1       0.465 -10.793  -0.071  0.00  0.00    -0.188 NA
ATOM     24  C   UNL     1       1.185 -11.872  -0.081  0.00  0.00    +0.138 C 
BRANCH  24  25
ATOM     25  C   UNL     1       0.533 -13.194  -0.086  0.00  0.00    -0.005 A 
ATOM     26  C   UNL     1      -0.861 -13.288  -0.087  0.00  0.00    +0.012 A 
ATOM     27  C   UNL     1      -1.466 -14.527  -0.092  0.00  0.00    +0.039 A 
ATOM     28  C   UNL     1      -0.694 -15.678  -0.097  0.00  0.00    +0.123 A 
ATOM     29  C   UNL     1       0.690 -15.591  -0.096  0.00  0.00    +0.039 A 
ATOM     30  C   UNL     1       1.306 -14.358  -0.097  0.00  0.00    +0.012 A 
ATOM     31  F   UNL     1      -1.292 -16.890  -0.101  0.00  0.00    -0.205 F 
ENDBRANCH  24  25
ENDBRANCH  21  23
ENDBRANCH  18  19
ENDBRANCH  17  18
ENDBRANCH   4  17
TORSDOF 8
