REMARK  Name = ZINC39404344
REMARK  12 active torsions:
REMARK  status: ('A' for Active; 'I' for Inactive)
REMARK    1  A    between atoms: C_1  and  C_2
REMARK    2  A    between atoms: C_2  and  O_3
REMARK    3  A    between atoms: O_3  and  C_4
REMARK    4  A    between atoms: C_4  and  C_6
REMARK    5  A    between atoms: C_8  and  C_38
REMARK    6  A    between atoms: C_10  and  C_36
REMARK    7  A    between atoms: C_12  and  N_15
REMARK    8  A    between atoms: C_16  and  C_18
REMARK    9  A    between atoms: C_18  and  S_19
REMARK   10  A    between atoms: S_19  and  C_20
REMARK   11  A    between atoms: N_26  and  N_27
REMARK   12  A    between atoms: C_28  and  C_29
REMARK                            x       y       z     vdW  Elec       q    Type
REMARK                         _______ _______ _______ _____ _____    ______ ____
ROOT
ATOM      1  C   UNL     1      -4.958  -6.916  -4.179  0.00  0.00    +0.168 C 
ENDROOT
BRANCH   1   3
ATOM      2  N   UNL     1      -3.986  -5.500  -2.398  0.00  0.00    -0.302 N 
ATOM      3  C   UNL     1      -5.089  -5.956  -3.024  0.00  0.00    +0.224 C 
ATOM      4  O   UNL     1      -6.187  -5.594  -2.658  0.00  0.00    -0.275 OA
ATOM      5  H   UNL     1      -3.108  -5.790  -2.691  0.00  0.00    +0.150 HD
BRANCH   2   9
ATOM      6  C   UNL     1      -2.881  -2.427   0.017  0.00  0.00    +0.161 C 
ATOM      7  C   UNL     1      -2.894  -3.760   0.788  0.00  0.00    +0.029 C 
ATOM      8  C   UNL     1      -3.187  -4.972  -0.095  0.00  0.00    +0.126 C 
ATOM      9  C   UNL     1      -4.113  -4.568  -1.276  0.00  0.00    +0.149 C 
ATOM     10  S   UNL     1      -3.391  -2.913  -1.684  0.00  0.00    -0.122 S 
ATOM     11  C   UNL     1      -3.963  -3.684   1.880  0.00  0.00    +0.010 C 
BRANCH   6  12
ATOM     12  C   UNL     1      -1.496  -1.832   0.006  0.00  0.00    +0.321 C 
ATOM     13  O   UNL     1      -0.528  -2.555  -0.007  0.00  0.00    -0.250 OA
BRANCH  12  14
ATOM     14  O   UNL     1      -1.339  -0.499   0.012  0.00  0.00    -0.464 OA
BRANCH  14  16
ATOM     15  C   UNL     1      -0.019   1.526   0.010  0.00  0.00    +0.048 C 
ATOM     16  C   UNL     1       0.002  -0.004   0.002  0.00  0.00    +0.229 C 
ENDBRANCH  14  16
ENDBRANCH  12  14
ENDBRANCH   6  12
BRANCH   8  17
ATOM     17  C   UNL     1      -1.922  -5.502  -0.630  0.00  0.00    +0.069 C 
ATOM     18  N   UNL     1      -0.946  -5.911  -1.042  0.00  0.00    -0.196 NA
ENDBRANCH   8  17
ENDBRANCH   2   9
ENDBRANCH   1   3
BRANCH   1  19
ATOM     19  S   UNL     1      -6.608  -7.340  -4.802  0.00  0.00    -0.104 S 
BRANCH  19  20
ATOM     20  C   UNL     1      -6.279  -8.485  -6.170  0.00  0.00    +0.274 C 
ATOM     21  N   UNL     1      -5.516  -9.655  -5.693  0.00  0.00    -0.281 N 
ATOM     22  C   UNL     1      -4.332  -9.599  -6.411  0.00  0.00    +0.231 C 
ATOM     23  N   UNL     1      -4.354  -8.524  -7.237  0.00  0.00    -0.116 NA
ATOM     24  N   UNL     1      -5.393  -7.862  -7.163  0.00  0.00    -0.150 NA
ATOM     25  N   UNL     1      -3.340 -10.457  -6.307  0.00  0.00    -0.247 N 
ATOM     26  H   UNL     1      -5.782 -10.311  -5.030  0.00  0.00    +0.152 HD
ATOM     27  H   UNL     1      -2.543 -10.345  -6.849  0.00  0.00    +0.192 HD
BRANCH  25  28
ATOM     28  N   UNL     1      -3.426 -11.447  -5.485  0.00  0.00    -0.179 NA
ATOM     29  C   UNL     1      -2.439 -12.300  -5.381  0.00  0.00    +0.140 C 
BRANCH  29  30
ATOM     30  C   UNL     1      -2.538 -13.428  -4.444  0.00  0.00    -0.005 A 
ATOM     31  C   UNL     1      -3.689 -13.597  -3.666  0.00  0.00    +0.011 A 
ATOM     32  C   UNL     1      -3.774 -14.657  -2.789  0.00  0.00    +0.020 A 
ATOM     33  C   UNL     1      -2.725 -15.555  -2.679  0.00  0.00    +0.041 A 
ATOM     34  C   UNL     1      -1.583 -15.395  -3.446  0.00  0.00    +0.020 A 
ATOM     35  C   UNL     1      -1.485 -14.343  -4.331  0.00  0.00    +0.011 A 
ATOM     36 CL   UNL     1      -2.841 -16.887  -1.571  0.00  0.00    -0.084 Cl
ENDBRANCH  29  30
ENDBRANCH  25  28
ENDBRANCH  19  20
ENDBRANCH   1  19
TORSDOF 10
