REMARK  Name = ZINC23446574
REMARK  11 active torsions:
REMARK  status: ('A' for Active; 'I' for Inactive)
REMARK    1  A    between atoms: C_1  and  C_2
REMARK    2  A    between atoms: C_2  and  C_3
REMARK    3  A    between atoms: C_2  and  C_4
REMARK    4  A    between atoms: C_7  and  S_10
REMARK    5  A    between atoms: S_10  and  N_13
REMARK    6  A    between atoms: N_16  and  C_19
REMARK    7  A    between atoms: C_19  and  C_20
REMARK    8  A    between atoms: C_20  and  O_21
REMARK    9  A    between atoms: O_21  and  C_22
REMARK   10  A    between atoms: C_22  and  C_23
REMARK   11  A    between atoms: C_22  and  C_30
REMARK                            x       y       z     vdW  Elec       q    Type
REMARK                         _______ _______ _______ _____ _____    ______ ____
ROOT
ATOM      1  N   UNL     1      -0.138   1.603   1.065  0.00  0.00    -0.180 NA
ATOM      2  C   UNL     1       0.564   1.312  -0.195  0.00  0.00    +0.091 C 
ATOM      3  C   UNL     1      -0.337   1.722  -1.365  0.00  0.00    -0.061 C 
ATOM      4  N   UNL     1      -0.750   3.122  -1.193  0.00  0.00    +0.383 N 
ATOM      5  C   UNL     1      -1.556   3.294   0.022  0.00  0.00    -0.061 C 
ATOM      6  C   UNL     1      -0.706   2.948   1.249  0.00  0.00    +0.091 C 
ATOM      7  H   UNL     1       0.161   3.728  -1.079  0.00  0.00    -0.082 HD
ENDROOT
BRANCH   1   8
ATOM      8  S   UNL     1      -0.289   0.447   2.240  0.00  0.00    +0.061 S 
ATOM      9  O   UNL     1      -1.425   0.804   3.017  0.00  0.00    -0.153 OA
ATOM     10  O   UNL     1      -0.177  -0.811   1.589  0.00  0.00    -0.153 OA
BRANCH   8  14
ATOM     11  C   UNL     1       3.309   0.823   4.960  0.00  0.00    -0.045 A 
ATOM     12  C   UNL     1       2.160   1.542   5.231  0.00  0.00    +0.006 A 
ATOM     13  C   UNL     1       1.061   1.427   4.401  0.00  0.00    +0.029 A 
ATOM     14  C   UNL     1       1.111   0.593   3.299  0.00  0.00    +0.105 A 
ATOM     15  C   UNL     1       2.259  -0.130   3.031  0.00  0.00    +0.029 A 
ATOM     16  C   UNL     1       3.359  -0.011   3.859  0.00  0.00    +0.006 A 
BRANCH  11  18
ATOM     17  C   UNL     1       4.848  -0.421   6.455  0.00  0.00    +0.012 C 
ATOM     18  C   UNL     1       4.508   0.949   5.865  0.00  0.00    +0.013 C 
ATOM     19  C   UNL     1       5.702   1.468   5.061  0.00  0.00    +0.012 C 
ENDBRANCH  11  18
ENDBRANCH   8  14
ENDBRANCH   1   8
BRANCH   4  20
ATOM     20  C   UNL     1      -1.472   3.606  -2.377  0.00  0.00    -0.050 C 
BRANCH  20  21
ATOM     21  C   UNL     1      -1.961   5.034  -2.127  0.00  0.00    +0.142 C 
BRANCH  21  22
ATOM     22  O   UNL     1      -0.838   5.894  -1.925  0.00  0.00    -0.369 OA
BRANCH  22  23
ATOM     23  C   UNL     1      -1.186   7.258  -1.682  0.00  0.00    +0.178 C 
BRANCH  23  24
ATOM     24  C   UNL     1      -1.359   7.476  -0.201  0.00  0.00    -0.014 A 
ATOM     25  C   UNL     1      -0.496   6.869   0.692  0.00  0.00    +0.009 A 
ATOM     26  C   UNL     1      -0.651   7.072   2.050  0.00  0.00    +0.039 A 
ATOM     27  C   UNL     1      -1.677   7.875   2.517  0.00  0.00    +0.123 A 
ATOM     28  C   UNL     1      -2.545   8.479   1.622  0.00  0.00    +0.039 A 
ATOM     29  C   UNL     1      -2.385   8.278   0.264  0.00  0.00    +0.009 A 
ATOM     30  F   UNL     1      -1.832   8.071   3.845  0.00  0.00    -0.205 F 
ENDBRANCH  23  24
BRANCH  23  31
ATOM     31  C   UNL     1      -0.091   8.156  -2.197  0.00  0.00    -0.014 A 
ATOM     32  C   UNL     1       1.229   7.754  -2.113  0.00  0.00    +0.009 A 
ATOM     33  C   UNL     1       2.233   8.575  -2.589  0.00  0.00    +0.039 A 
ATOM     34  C   UNL     1       1.918   9.805  -3.142  0.00  0.00    +0.123 A 
ATOM     35  C   UNL     1       0.596  10.208  -3.222  0.00  0.00    +0.039 A 
ATOM     36  C   UNL     1      -0.407   9.384  -2.749  0.00  0.00    +0.009 A 
ATOM     37  F   UNL     1       2.900  10.609  -3.604  0.00  0.00    -0.205 F 
ENDBRANCH  23  31
ENDBRANCH  22  23
ENDBRANCH  21  22
ENDBRANCH  20  21
ENDBRANCH   4  20
TORSDOF 9
