REMARK  Name = ZINC09261433
REMARK  9 active torsions:
REMARK  status: ('A' for Active; 'I' for Inactive)
REMARK    1  A    between atoms: C_1  and  C_2
REMARK    2  A    between atoms: C_2  and  O_3
REMARK    3  A    between atoms: O_3  and  C_4
REMARK    4  A    between atoms: C_7  and  N_10
REMARK    5  A    between atoms: C_16  and  C_17
REMARK    6  A    between atoms: C_19  and  C_32
REMARK    7  A    between atoms: N_20  and  C_23
REMARK    8  A    between atoms: C_21  and  C_22
REMARK    9  A    between atoms: C_27  and  N_29
REMARK                            x       y       z     vdW  Elec       q    Type
REMARK                         _______ _______ _______ _____ _____    ______ ____
ROOT
ATOM      1  N   UNL     1       1.328  -5.980   1.135  0.00  0.00    -0.226 NA
ATOM      2  C   UNL     1       2.459  -6.495   1.601  0.00  0.00    +0.166 C 
ATOM      3  N   UNL     1       2.802  -7.817   1.667  0.00  0.00    -0.260 N 
ATOM      4  C   UNL     1       3.992  -8.123   2.171  0.00  0.00    +0.256 C 
ATOM      5  O   UNL     1       4.393  -9.268   2.274  0.00  0.00    -0.269 OA
ATOM      6  C   UNL     1       4.787  -6.952   2.597  0.00  0.00    +0.078 C 
ATOM      7  C   UNL     1       6.069  -6.922   3.163  0.00  0.00    +0.030 C 
ATOM      8  S   UNL     1       3.774  -5.665   2.227  0.00  0.00    -0.049 S 
ATOM      9  H   UNL     1       2.197  -8.508   1.356  0.00  0.00    +0.157 HD
ENDROOT
BRANCH   7  10
ATOM     10  C   UNL     1       6.697  -8.118   3.540  0.00  0.00    -0.003 A 
ATOM     11  C   UNL     1       6.058  -9.320   4.096  0.00  0.00    +0.031 A 
ATOM     12  C   UNL     1       7.041 -10.211   4.304  0.00  0.00    +0.022 A 
ATOM     13  N   UNL     1       8.243  -9.666   3.923  0.00  0.00    -0.317 N 
ATOM     14  C   UNL     1       8.069  -8.421   3.458  0.00  0.00    +0.028 A 
ATOM     15  C   UNL     1       9.150  -7.507   2.943  0.00  0.00    +0.064 C 
ATOM     16  C   UNL     1       6.854 -11.596   4.868  0.00  0.00    +0.064 C 
BRANCH  13  17
ATOM     17  C   UNL     1       9.477 -10.322   4.004  0.00  0.00    +0.049 A 
ATOM     18  C   UNL     1      10.461  -9.850   4.864  0.00  0.00    +0.026 A 
ATOM     19  C   UNL     1      11.677 -10.499   4.942  0.00  0.00    +0.004 A 
ATOM     20  C   UNL     1      11.916 -11.618   4.165  0.00  0.00    +0.033 A 
ATOM     21  C   UNL     1      10.940 -12.090   3.307  0.00  0.00    +0.128 A 
ATOM     22  C   UNL     1       9.719 -11.448   3.229  0.00  0.00    +0.058 A 
BRANCH  21  23
ATOM     23  N   UNL     1      11.200 -13.287   2.477  0.00  0.00    +0.056 N 
ATOM     24  O   UNL     1      12.362 -13.902   2.555  0.00  0.00    -0.126 OA
ATOM     25  O   UNL     1      10.270 -13.737   1.660  0.00  0.00    -0.126 OA
ENDBRANCH  21  23
ENDBRANCH  13  17
ENDBRANCH   7  10
BRANCH   1  29
ATOM     26  C   UNL     1       0.774  -1.913   1.134  0.00  0.00    +0.121 A 
ATOM     27  C   UNL     1       0.435  -2.661   0.002  0.00  0.00    +0.048 A 
ATOM     28  C   UNL     1       0.616  -4.009  -0.007  0.00  0.00    +0.031 A 
ATOM     29  C   UNL     1       1.148  -4.655   1.135  0.00  0.00    +0.067 A 
ATOM     30  C   UNL     1       1.488  -3.890   2.276  0.00  0.00    +0.031 A 
ATOM     31  C   UNL     1       1.306  -2.542   2.265  0.00  0.00    +0.048 A 
BRANCH  26  32
ATOM     32  O   UNL     1       0.591  -0.572   1.134  0.00  0.00    -0.492 OA
BRANCH  32  34
ATOM     33  C   UNL     1      -0.088   1.521   0.134  0.00  0.00    +0.048 C 
ATOM     34  C   UNL     1       0.044   0.008  -0.052  0.00  0.00    +0.225 C 
ENDBRANCH  32  34
ENDBRANCH  26  32
ENDBRANCH   1  29
TORSDOF 6
