REMARK  Name = ZINC63277048
REMARK  9 active torsions:
REMARK  status: ('A' for Active; 'I' for Inactive)
REMARK    1  A    between atoms: C_1  and  N_2
REMARK    2  A    between atoms: C_3  and  C_20
REMARK    3  A    between atoms: C_7  and  S_9
REMARK    4  A    between atoms: S_9  and  C_10
REMARK    5  A    between atoms: C_10  and  C_11
REMARK    6  A    between atoms: C_23  and  N_26
REMARK    7  A    between atoms: C_27  and  C_29
REMARK    8  A    between atoms: C_29  and  C_30
REMARK    9  A    between atoms: C_30  and  C_31
REMARK                            x       y       z     vdW  Elec       q    Type
REMARK                         _______ _______ _______ _____ _____    ______ ____
ROOT
ATOM      1  C   UNL     1      -1.006   1.860   0.704  0.00  0.00    +0.109 C 
ATOM      2  N   UNL     1      -0.654   0.460   0.433  0.00  0.00    -0.260 NA
ATOM      3  C   UNL     1      -1.849  -0.408   0.497  0.00  0.00    +0.171 C 
ATOM      4  N   UNL     1      -1.581  -1.416   1.548  0.00  0.00    -0.233 NA
ATOM      5  N   UNL     1      -0.574  -0.785   2.415  0.00  0.00    -0.229 NA
ATOM      6  C   UNL     1       0.291  -0.057   1.450  0.00  0.00    +0.200 C 
ATOM      7  H   UNL     1      -1.228  -2.272   1.147  0.00  0.00    +0.143 HD
ATOM      8  H   UNL     1      -1.006  -0.147   3.067  0.00  0.00    +0.143 HD
ENDROOT
BRANCH   3   9
ATOM      9  C   UNL     1      -2.065  -1.089  -0.830  0.00  0.00    -0.015 A 
ATOM     10  C   UNL     1      -1.662  -0.467  -1.998  0.00  0.00    +0.008 A 
ATOM     11  C   UNL     1      -1.858  -1.088  -3.216  0.00  0.00    +0.023 A 
ATOM     12  C   UNL     1      -2.461  -2.338  -3.267  0.00  0.00    +0.033 A 
ATOM     13  C   UNL     1      -2.864  -2.960  -2.092  0.00  0.00    +0.023 A 
ATOM     14  C   UNL     1      -2.660  -2.336  -0.877  0.00  0.00    +0.008 A 
BRANCH  12  15
ATOM     15  N   UNL     1      -2.662  -2.970  -4.499  0.00  0.00    -0.285 N 
ATOM     16  C   UNL     1      -1.780  -2.787  -5.502  0.00  0.00    +0.218 C 
ATOM     17  O   UNL     1      -0.764  -2.152  -5.308  0.00  0.00    -0.275 OA
ATOM     18  H   UNL     1      -3.436  -3.539  -4.632  0.00  0.00    +0.155 HD
BRANCH  16  19
ATOM     19  C   UNL     1      -2.055  -3.371  -6.863  0.00  0.00    +0.101 C 
BRANCH  19  20
ATOM     20  C   UNL     1      -0.906  -3.020  -7.811  0.00  0.00    +0.044 C 
BRANCH  20  21
ATOM     21  C   UNL     1      -1.181  -3.604  -9.172  0.00  0.00    -0.047 A 
ATOM     22  C   UNL     1      -0.745  -4.880  -9.478  0.00  0.00    +0.003 A 
ATOM     23  C   UNL     1      -0.997  -5.415 -10.727  0.00  0.00    +0.000 A 
ATOM     24  C   UNL     1      -1.687  -4.676 -11.670  0.00  0.00    +0.000 A 
ATOM     25  C   UNL     1      -2.124  -3.401 -11.364  0.00  0.00    +0.000 A 
ATOM     26  C   UNL     1      -1.876  -2.867 -10.113  0.00  0.00    +0.003 A 
ENDBRANCH  20  21
ENDBRANCH  19  20
ENDBRANCH  16  19
ENDBRANCH  12  15
ENDBRANCH   3   9
BRANCH   6  27
ATOM     27  S   UNL     1       1.147   1.314   2.275  0.00  0.00    -0.121 S 
BRANCH  27  28
ATOM     28  C   UNL     1       2.537   0.516   3.123  0.00  0.00    +0.118 C 
BRANCH  28  29
ATOM     29  C   UNL     1       3.297   1.557   3.948  0.00  0.00    +0.184 C 
ATOM     30  N   UNL     1       2.387   2.210   4.897  0.00  0.00    -0.363 N 
ATOM     31  C   UNL     1       2.373   3.481   4.612  0.00  0.00    +0.060 A 
ATOM     32  C   UNL     1       1.665   4.628   5.198  0.00  0.00    +0.027 A 
ATOM     33  C   UNL     1       1.850   5.858   4.680  0.00  0.00    +0.002 A 
ATOM     34  C   UNL     1       2.702   6.101   3.587  0.00  0.00    +0.002 A 
ATOM     35  C   UNL     1       3.397   5.121   2.976  0.00  0.00    +0.027 A 
ATOM     36  C   UNL     1       3.274   3.737   3.456  0.00  0.00    +0.060 A 
ATOM     37  N   UNL     1       3.812   2.616   3.071  0.00  0.00    -0.363 N 
ATOM     38  H   UNL     1       1.888   1.775   5.606  0.00  0.00    +0.162 HD
ATOM     39  H   UNL     1       4.438   2.501   2.338  0.00  0.00    +0.162 HD
ENDBRANCH  28  29
ENDBRANCH  27  28
ENDBRANCH   6  27
TORSDOF 8
