REMARK  Name = ZINC38744490
REMARK  5 active torsions:
REMARK  status: ('A' for Active; 'I' for Inactive)
REMARK    1  A    between atoms: C_1  and  C_2
REMARK    2  A    between atoms: C_2  and  C_3
REMARK    3  A    between atoms: C_2  and  C_4
REMARK    4  A    between atoms: C_6  and  C_10
REMARK    5  A    between atoms: C_14  and  C_19
REMARK                            x       y       z     vdW  Elec       q    Type
REMARK                         _______ _______ _______ _____ _____    ______ ____
ROOT
ATOM      1  C   UNL     1      -4.371  -0.991  -1.469  0.00  0.00    +0.182 C 
ATOM      2  N   UNL     1      -5.771  -1.210  -1.020  0.00  0.00    -0.265 N 
ATOM      3  N   UNL     1      -6.656  -1.502  -2.014  0.00  0.00    -0.220 N 
ATOM      4  C   UNL     1      -8.034  -1.451  -2.204  0.00  0.00    +0.182 A 
ATOM      5  N   UNL     1      -8.290  -1.924  -3.399  0.00  0.00    -0.127 NA
ATOM      6  N   UNL     1      -7.193  -2.254  -3.985  0.00  0.00    -0.120 NA
ATOM      7  C   UNL     1      -6.187  -2.001  -3.203  0.00  0.00    +0.211 A 
ATOM      8  S   UNL     1      -4.416  -2.006  -3.010  0.00  0.00    -0.058 S 
ATOM      9  H   UNL     1      -5.811  -1.902  -0.286  0.00  0.00    +0.168 HD
ENDROOT
BRANCH   4  10
ATOM     10  C   UNL     1      -9.030  -0.954  -1.232  0.00  0.00    +0.021 A 
ATOM     11  C   UNL     1      -8.661  -0.767   0.112  0.00  0.00    +0.012 A 
ATOM     12  C   UNL     1      -9.557  -0.312   1.023  0.00  0.00    +0.009 A 
ATOM     13  C   UNL     1     -10.876  -0.019   0.628  0.00  0.00    -0.018 A 
ATOM     14  C   UNL     1     -11.821   0.454   1.553  0.00  0.00    +0.008 A 
ATOM     15  C   UNL     1     -13.089   0.729   1.142  0.00  0.00    +0.001 A 
ATOM     16  C   UNL     1     -13.468   0.548  -0.187  0.00  0.00    +0.001 A 
ATOM     17  C   UNL     1     -12.580   0.091  -1.112  0.00  0.00    +0.008 A 
ATOM     18  C   UNL     1     -11.261  -0.203  -0.724  0.00  0.00    -0.017 A 
ATOM     19  C   UNL     1     -10.319  -0.669  -1.653  0.00  0.00    +0.020 A 
ENDBRANCH   4  10
BRANCH   1  22
ATOM     20  C   UNL     1      -1.412  -0.526   0.013  0.00  0.00    +0.064 C 
ATOM     21  C   UNL     1      -1.940  -1.303  -0.935  0.00  0.00    +0.029 C 
ATOM     22  C   UNL     1      -3.362  -1.543  -0.460  0.00  0.00    +0.185 C 
ATOM     23  N   UNL     1      -3.420  -0.792   0.805  0.00  0.00    -0.177 NA
ATOM     24  N   UNL     1      -2.315  -0.275   0.986  0.00  0.00    -0.158 NA
BRANCH  20  26
ATOM     25  C   UNL     1      -0.019   1.526   0.010  0.00  0.00    +0.014 C 
ATOM     26  C   UNL     1       0.002  -0.004   0.002  0.00  0.00    +0.033 C 
ATOM     27  C   UNL     1       0.742  -0.511   1.242  0.00  0.00    +0.014 C 
ENDBRANCH  20  26
ENDBRANCH   1  22
TORSDOF 3
