REMARK  Name = ZINC36640653
REMARK  10 active torsions:
REMARK  status: ('A' for Active; 'I' for Inactive)
REMARK    1  A    between atoms: C_1  and  C_2
REMARK    2  A    between atoms: C_5  and  C_8
REMARK    3  A    between atoms: C_11  and  S_14
REMARK    4  A    between atoms: N_12  and  N_13
REMARK    5  A    between atoms: S_14  and  C_15
REMARK    6  A    between atoms: C_15  and  C_16
REMARK    7  A    between atoms: C_21  and  C_24
REMARK    8  A    between atoms: C_25  and  C_32
REMARK    9  A    between atoms: C_27  and  C_31
REMARK   10  A    between atoms: C_29  and  C_30
REMARK                            x       y       z     vdW  Elec       q    Type
REMARK                         _______ _______ _______ _____ _____    ______ ____
ROOT
ATOM      1  C   UNL     1       1.308 -10.691   1.591  0.00  0.00    +0.229 C 
ATOM      2  O   UNL     1       1.820 -10.907   2.669  0.00  0.00    -0.275 OA
ATOM      3  N   UNL     1       0.899 -11.718   0.821  0.00  0.00    -0.264 N 
ATOM      4  C   UNL     1       1.065 -13.025   1.261  0.00  0.00    +0.165 A 
ATOM      5  N   UNL     1       0.741 -14.156   0.662  0.00  0.00    -0.225 NA
ATOM      6  C   UNL     1       0.975 -15.328   1.233  0.00  0.00    +0.081 A 
ATOM      7  C   UNL     1       1.562 -15.369   2.466  0.00  0.00    +0.076 A 
ATOM      8  S   UNL     1       1.781 -13.623   2.786  0.00  0.00    -0.060 S 
ATOM      9  H   UNL     1       0.489 -11.545  -0.041  0.00  0.00    +0.157 HD
ENDROOT
BRANCH   6  10
ATOM     10  C   UNL     1       0.601 -16.586   0.540  0.00  0.00    +0.007 A 
ATOM     11  C   UNL     1      -0.693 -16.758   0.052  0.00  0.00    -0.041 A 
ATOM     12  C   UNL     1      -1.034 -17.930  -0.592  0.00  0.00    +0.007 A 
ATOM     13  C   UNL     1      -0.095 -18.933  -0.752  0.00  0.00    -0.050 A 
ATOM     14  C   UNL     1       1.190 -18.768  -0.270  0.00  0.00    +0.007 A 
ATOM     15  C   UNL     1       1.545 -17.597   0.370  0.00  0.00    -0.041 A 
ATOM     16  C   UNL     1       2.948 -17.416   0.889  0.00  0.00    +0.044 C 
ATOM     17  C   UNL     1      -0.475 -20.211  -1.456  0.00  0.00    +0.044 C 
ATOM     18  C   UNL     1      -1.717 -15.667   0.227  0.00  0.00    +0.044 C 
ENDBRANCH   6  10
BRANCH   1  19
ATOM     19  C   UNL     1       1.127  -9.273   1.113  0.00  0.00    +0.173 C 
BRANCH  19  20
ATOM     20  S   UNL     1       1.772  -8.127   2.363  0.00  0.00    -0.075 S 
BRANCH  20  24
ATOM     21  C   UNL     1       1.407  -4.376   1.331  0.00  0.00    +0.182 A 
ATOM     22  N   UNL     1       0.888  -5.009   0.305  0.00  0.00    -0.127 NA
ATOM     23  N   UNL     1       0.938  -6.278   0.501  0.00  0.00    -0.121 NA
ATOM     24  C   UNL     1       1.492  -6.533   1.666  0.00  0.00    +0.209 A 
ATOM     25  N   UNL     1       1.814  -5.333   2.232  0.00  0.00    -0.224 N 
BRANCH  21  30
ATOM     26  C   UNL     1       1.903   1.325   1.938  0.00  0.00    +0.044 C 
ATOM     27  C   UNL     1       1.774  -0.168   1.779  0.00  0.00    -0.050 A 
ATOM     28  C   UNL     1       1.493  -0.707   0.536  0.00  0.00    +0.004 A 
ATOM     29  C   UNL     1       1.372  -2.073   0.384  0.00  0.00    +0.012 A 
ATOM     30  C   UNL     1       1.535  -2.912   1.487  0.00  0.00    +0.021 A 
ATOM     31  C   UNL     1       1.819  -2.362   2.738  0.00  0.00    +0.012 A 
ATOM     32  C   UNL     1       1.942  -0.995   2.876  0.00  0.00    +0.004 A 
ENDBRANCH  21  30
BRANCH  25  33
ATOM     33  N   UNL     1       2.414  -5.126   3.442  0.00  0.00    -0.295 N 
ATOM     34  H   UNL     1       1.727  -5.041   4.176  0.00  0.00    +0.163 HD
ATOM     35  H   UNL     1       3.075  -5.859   3.648  0.00  0.00    +0.163 HD
ENDBRANCH  25  33
ENDBRANCH  20  24
ENDBRANCH  19  20
ENDBRANCH   1  19
TORSDOF 6
