REMARK  Name = ZINC04399675
REMARK  7 active torsions:
REMARK  status: ('A' for Active; 'I' for Inactive)
REMARK    1  A    between atoms: C_1  and  C_2
REMARK    2  A    between atoms: C_2  and  C_32
REMARK    3  A    between atoms: C_7  and  C_10
REMARK    4  A    between atoms: C_13  and  O_16
REMARK    5  A    between atoms: N_19  and  C_22
REMARK    6  A    between atoms: C_32  and  O_34
REMARK    7  A    between atoms: O_34  and  C_35
REMARK                            x       y       z     vdW  Elec       q    Type
REMARK                         _______ _______ _______ _____ _____    ______ ____
ROOT
ATOM      1  C   UNL     1      -0.104   1.549  -0.072  0.00  0.00    +0.002 C 
ATOM      2  C   UNL     1      -0.041   0.021  -0.048  0.00  0.00    +0.041 C 
ATOM      3  C   UNL     1      -1.459  -0.574   0.083  0.00  0.00    +0.086 C 
ATOM      4  C   UNL     1      -1.288  -1.812   1.003  0.00  0.00    +0.077 C 
ATOM      5  C   UNL     1       0.219  -1.858   1.329  0.00  0.00    -0.027 C 
ATOM      6  N   UNL     1       0.678  -0.448   1.165  0.00  0.00    +0.395 N 
ATOM      7  C   UNL     1      -2.069  -1.436   2.243  0.00  0.00    +0.229 C 
ATOM      8  O   UNL     1      -2.197  -2.131   3.227  0.00  0.00    -0.275 OA
ATOM      9  N   UNL     1      -2.595  -0.216   2.083  0.00  0.00    -0.210 N 
ATOM     10  C   UNL     1      -2.320   0.368   0.894  0.00  0.00    +0.229 C 
ATOM     11  O   UNL     1      -2.695   1.462   0.531  0.00  0.00    -0.275 OA
ATOM     12  H   UNL     1       1.675  -0.422   1.016  0.00  0.00    -0.083 HD
ATOM     13  H   UNL     1       0.423   0.111   1.964  0.00  0.00    -0.083 HD
ENDROOT
BRANCH   9  14
ATOM     14  C   UNL     1      -3.376   0.408   3.067  0.00  0.00    +0.048 A 
ATOM     15  C   UNL     1      -2.903   1.542   3.713  0.00  0.00    +0.028 A 
ATOM     16  C   UNL     1      -3.671   2.156   4.684  0.00  0.00    +0.051 A 
ATOM     17  C   UNL     1      -4.916   1.643   5.015  0.00  0.00    +0.162 A 
ATOM     18  C   UNL     1      -5.394   0.509   4.368  0.00  0.00    +0.164 A 
ATOM     19  C   UNL     1      -4.624  -0.104   3.391  0.00  0.00    +0.073 A 
ATOM     20  O   UNL     1      -6.616  -0.005   4.674  0.00  0.00    -0.485 OA
ATOM     21  C   UNL     1      -7.201   0.417   5.910  0.00  0.00    +0.270 C 
ATOM     22  C   UNL     1      -7.053   1.941   6.017  0.00  0.00    +0.270 C 
ATOM     23  O   UNL     1      -5.657   2.259   5.977  0.00  0.00    -0.485 OA
ENDBRANCH   9  14
BRANCH   5  24
ATOM     24  C   UNL     1       0.435  -2.304   2.752  0.00  0.00    -0.060 A 
ATOM     25  C   UNL     1       0.280  -1.403   3.789  0.00  0.00    +0.005 A 
ATOM     26  C   UNL     1       0.477  -1.809   5.095  0.00  0.00    +0.045 A 
ATOM     27  C   UNL     1       0.832  -3.123   5.365  0.00  0.00    +0.117 A 
ATOM     28  C   UNL     1       0.986  -4.026   4.323  0.00  0.00    +0.045 A 
ATOM     29  C   UNL     1       0.782  -3.616   3.019  0.00  0.00    +0.005 A 
BRANCH  27  30
ATOM     30  O   UNL     1       1.027  -3.525   6.648  0.00  0.00    -0.507 OA
ATOM     31  H   UNL     1       0.230  -3.859   7.082  0.00  0.00    +0.292 HD
ENDBRANCH  27  30
ENDBRANCH   5  24
BRANCH   2  32
ATOM     32  C   UNL     1       0.635  -0.496  -1.292  0.00  0.00    +0.296 C 
ATOM     33  O   UNL     1      -0.028  -0.846  -2.239  0.00  0.00    -0.252 OA
BRANCH  32  34
ATOM     34  O   UNL     1       1.975  -0.567  -1.347  0.00  0.00    -0.469 OA
ATOM     35  C   UNL     1       2.548  -1.066  -2.557  0.00  0.00    +0.280 C 
ENDBRANCH  32  34
ENDBRANCH   2  32
TORSDOF 5
