REMARK  Name = ZINC43737043
REMARK  9 active torsions:
REMARK  status: ('A' for Active; 'I' for Inactive)
REMARK    1  A    between atoms: C_1  and  C_2
REMARK    2  A    between atoms: C_5  and  O_45
REMARK    3  A    between atoms: C_18  and  C_44
REMARK    4  A    between atoms: C_23  and  C_24
REMARK    5  A    between atoms: C_24  and  C_26
REMARK    6  A    between atoms: C_26  and  C_27
REMARK    7  A    between atoms: C_34  and  O_35
REMARK    8  A    between atoms: O_35  and  C_36
REMARK    9  A    between atoms: N_42  and  C_43
REMARK                            x       y       z     vdW  Elec       q    Type
REMARK                         _______ _______ _______ _____ _____    ______ ____
ROOT
ATOM      1  C   UNL     1      -0.518   1.946  -0.272  0.00  0.00    +0.012 C 
ATOM      2  C   UNL     1      -0.335   0.420  -0.267  0.00  0.00    -0.026 C 
ATOM      3  C   UNL     1       0.396   0.023  -1.557  0.00  0.00    +0.010 C 
ATOM      4  C   UNL     1       1.772   0.678  -1.613  0.00  0.00    +0.032 C 
ATOM      5  C   UNL     1       2.606   0.264  -0.406  0.00  0.00    +0.115 C 
ATOM      6  C   UNL     1       1.888   0.644   0.889  0.00  0.00    +0.035 C 
ATOM      7  C   UNL     1       0.505   0.001   0.932  0.00  0.00    -0.002 C 
ATOM      8  C   UNL     1      -0.218   0.395   2.220  0.00  0.00    +0.004 C 
ATOM      9  C   UNL     1      -1.517  -0.404   2.291  0.00  0.00    +0.004 C 
ATOM     10  C   UNL     1      -2.444  -0.097   1.107  0.00  0.00    -0.003 C 
ATOM     11  C   UNL     1      -1.716  -0.205  -0.233  0.00  0.00    -0.001 C 
ATOM     12  C   UNL     1      -1.768  -1.633  -0.759  0.00  0.00    +0.005 C 
ATOM     13  C   UNL     1      -3.206  -1.947  -1.236  0.00  0.00    +0.012 C 
ATOM     14  C   UNL     1      -4.183  -1.346  -0.257  0.00  0.00    -0.001 C 
ATOM     15  C   UNL     1      -3.515  -1.175   1.122  0.00  0.00    +0.006 C 
ATOM     16  C   UNL     1      -4.771  -0.883   1.958  0.00  0.00    +0.032 C 
ATOM     17  C   UNL     1      -5.755  -1.891   1.360  0.00  0.00    -0.019 C 
ATOM     18  C   UNL     1      -5.402  -2.166   0.090  0.00  0.00    -0.003 C 
ATOM     19  C   UNL     1      -4.711  -0.016  -0.802  0.00  0.00    +0.016 C 
ENDROOT
BRANCH  18  20
ATOM     20  C   UNL     1      -6.084  -3.090  -0.809  0.00  0.00    +0.158 C 
ATOM     21  O   UNL     1      -7.104  -3.642  -0.453  0.00  0.00    -0.292 OA
BRANCH  20  22
ATOM     22  C   UNL     1      -5.521  -3.359  -2.181  0.00  0.00    +0.069 C 
BRANCH  22  23
ATOM     23  C   UNL     1      -6.496  -4.236  -2.970  0.00  0.00    -0.027 C 
ATOM     24  C   UNL     1      -7.854  -3.584  -2.978  0.00  0.00    -0.012 A 
ATOM     25  C   UNL     1      -9.011  -4.317  -2.815  0.00  0.00    -0.040 A 
ATOM     26  C   UNL     1     -10.243  -3.682  -2.832  0.00  0.00    +0.053 A 
ATOM     27  C   UNL     1     -10.324  -2.311  -3.011  0.00  0.00    +0.170 A 
ATOM     28  C   UNL     1      -9.160  -1.567  -3.174  0.00  0.00    +0.208 A 
ATOM     29  C   UNL     1      -7.928  -2.207  -3.156  0.00  0.00    +0.167 A 
ATOM     30  O   UNL     1      -9.499  -0.253  -3.330  0.00  0.00    -0.449 OA
ATOM     31  C   UNL     1     -10.898  -0.256  -3.669  0.00  0.00    +0.467 C 
ATOM     32  O   UNL     1     -11.394  -1.465  -3.065  0.00  0.00    -0.452 OA
ATOM     33  C   UNL     1      -8.973  -5.810  -2.612  0.00  0.00    +0.017 C 
ATOM     34  C   UNL     1      -7.604  -6.353  -3.024  0.00  0.00    -0.074 C 
ATOM     35  N   UNL     1      -6.564  -5.561  -2.349  0.00  0.00    +0.383 N 
ATOM     36  C   UNL     1      -5.267  -6.236  -2.486  0.00  0.00    -0.095 C 
ATOM     37  H   UNL     1      -6.795  -5.465  -1.371  0.00  0.00    -0.081 HD
BRANCH  29  38
ATOM     38  O   UNL     1      -6.788  -1.483  -3.315  0.00  0.00    -0.491 OA
ATOM     39  C   UNL     1      -6.313  -1.304  -4.651  0.00  0.00    +0.277 C 
ENDBRANCH  29  38
ENDBRANCH  22  23
ENDBRANCH  20  22
ENDBRANCH  18  20
BRANCH   5  40
ATOM     40  O   UNL     1       2.830  -1.142  -0.436  0.00  0.00    -0.392 OA
ATOM     41  H   UNL     1       3.300  -1.449  -1.223  0.00  0.00    +0.210 HD
ENDBRANCH   5  40
TORSDOF 5
