REMARK  Name = ZINC08716828
REMARK  15 active torsions:
REMARK  status: ('A' for Active; 'I' for Inactive)
REMARK    1  A    between atoms: C_1  and  C_2
REMARK    2  A    between atoms: C_4  and  C_35
REMARK    3  A    between atoms: C_7  and  C_13
REMARK    4  A    between atoms: C_8  and  O_12
REMARK    5  A    between atoms: C_13  and  N_66
REMARK    6  A    between atoms: C_14  and  C_15
REMARK    7  A    between atoms: C_14  and  N_66
REMARK    8  A    between atoms: C_15  and  O_16
REMARK    9  A    between atoms: C_17  and  C_19
REMARK   10  A    between atoms: C_17  and  C_32
REMARK   11  A    between atoms: C_17  and  N_66
REMARK   12  A    between atoms: N_23  and  C_24
REMARK   13  A    between atoms: C_24  and  C_25
REMARK   14  A    between atoms: C_32  and  C_33
REMARK   15  A    between atoms: C_32  and  C_34
REMARK                            x       y       z     vdW  Elec       q    Type
REMARK                         _______ _______ _______ _____ _____    ______ ____
ROOT
ATOM      1  N   UNL     1      -5.788   5.116  -1.915  0.00  0.00    +0.391 N 
ATOM      2  H   UNL     1      -5.511   5.644  -2.751  0.00  0.00    -0.080 HD
ENDROOT
BRANCH   1   3
ATOM      3  C   UNL     1      -4.607   4.942  -1.044  0.00  0.00    -0.037 C 
BRANCH   3  10
ATOM      4  C   UNL     1       1.631   2.528  -5.299  0.00  0.00    +0.044 C 
ATOM      5  C   UNL     1       0.432   2.766  -4.417  0.00  0.00    -0.048 A 
ATOM      6  C   UNL     1      -0.107   1.705  -3.692  0.00  0.00    +0.007 A 
ATOM      7  C   UNL     1      -1.190   1.889  -2.887  0.00  0.00    -0.041 A 
ATOM      8  C   UNL     1      -1.772   3.162  -2.786  0.00  0.00    +0.004 A 
ATOM      9  C   UNL     1      -2.893   3.391  -1.963  0.00  0.00    +0.017 A 
ATOM     10  C   UNL     1      -3.408   4.652  -1.910  0.00  0.00    -0.002 A 
ATOM     11  C   UNL     1      -2.822   5.677  -2.663  0.00  0.00    +0.214 A 
ATOM     12  N   UNL     1      -1.776   5.458  -3.429  0.00  0.00    -0.213 NA
ATOM     13  C   UNL     1      -1.222   4.243  -3.517  0.00  0.00    +0.075 A 
ATOM     14  C   UNL     1      -0.108   4.013  -4.342  0.00  0.00    +0.031 A 
ATOM     15  C   UNL     1      -1.760   0.731  -2.109  0.00  0.00    +0.044 C 
BRANCH  11  16
ATOM     16  O   UNL     1      -3.346   6.926  -2.600  0.00  0.00    -0.492 OA
ATOM     17  H   UNL     1      -2.910   7.503  -1.959  0.00  0.00    +0.294 HD
ENDBRANCH  11  16
ENDBRANCH   3  10
ENDBRANCH   1   3
BRANCH   1  18
ATOM     18  C   UNL     1      -6.309   3.797  -2.330  0.00  0.00    -0.049 C 
BRANCH  18  19
ATOM     19  C   UNL     1      -7.356   4.003  -3.427  0.00  0.00    +0.137 C 
BRANCH  19  20
ATOM     20  O   UNL     1      -6.750   4.653  -4.547  0.00  0.00    -0.397 OA
ATOM     21  H   UNL     1      -7.357   4.816  -5.282  0.00  0.00    +0.209 HD
ENDBRANCH  19  20
ENDBRANCH  18  19
ENDBRANCH   1  18
BRANCH   1  22
ATOM     22  C   UNL     1      -6.838   5.870  -1.197  0.00  0.00    +0.006 C 
BRANCH  22  23
ATOM     23  C   UNL     1      -6.496   7.337  -1.246  0.00  0.00    +0.139 A 
ATOM     24  N   UNL     1      -5.318   7.874  -1.037  0.00  0.00    -0.115 NA
ATOM     25  N   UNL     1      -5.433   9.150  -1.169  0.00  0.00    -0.023 NA
ATOM     26  N   UNL     1      -6.654   9.442  -1.456  0.00  0.00    -0.044 NA
ATOM     27  N   UNL     1      -7.339   8.351  -1.518  0.00  0.00    -0.226 N 
BRANCH  27  28
ATOM     28  C   UNL     1      -8.767   8.236  -1.824  0.00  0.00    +0.182 C 
BRANCH  28  29
ATOM     29  C   UNL     1      -9.562   8.314  -0.546  0.00  0.00    -0.026 A 
ATOM     30  C   UNL     1      -9.861   7.159   0.153  0.00  0.00    +0.008 A 
ATOM     31  C   UNL     1     -10.585   7.230   1.328  0.00  0.00    +0.038 A 
ATOM     32  C   UNL     1     -11.022   8.457   1.799  0.00  0.00    +0.123 A 
ATOM     33  C   UNL     1     -10.726   9.612   1.095  0.00  0.00    +0.038 A 
ATOM     34  C   UNL     1      -9.997   9.540  -0.077  0.00  0.00    +0.008 A 
ATOM     35  F   UNL     1     -11.734   8.527   2.944  0.00  0.00    -0.205 F 
ENDBRANCH  28  29
ENDBRANCH  27  28
ENDBRANCH  22  23
BRANCH  22  36
ATOM     36  C   UNL     1      -6.922   5.414   0.261  0.00  0.00    -0.024 C 
ATOM     37  C   UNL     1      -7.066   3.892   0.311  0.00  0.00    +0.006 C 
ATOM     38  C   UNL     1      -5.649   5.831   1.000  0.00  0.00    +0.006 C 
ENDBRANCH  22  36
ENDBRANCH   1  22
TORSDOF 11
