REMARK  Name = ZINC64066871
REMARK  8 active torsions:
REMARK  status: ('A' for Active; 'I' for Inactive)
REMARK    1  A    between atoms: C_1  and  N_2
REMARK    2  A    between atoms: C_6  and  C_18
REMARK    3  A    between atoms: C_8  and  N_9
REMARK    4  A    between atoms: C_10  and  C_12
REMARK    5  A    between atoms: N_20  and  C_21
REMARK    6  A    between atoms: C_21  and  C_22
REMARK    7  A    between atoms: C_22  and  C_23
REMARK    8  A    between atoms: C_33  and  C_35
REMARK                            x       y       z     vdW  Elec       q    Type
REMARK                         _______ _______ _______ _____ _____    ______ ____
ROOT
ATOM      1  C   UNL     1      -0.012   1.449   0.012  0.00  0.00    +0.131 C 
ATOM      2  N   UNL     1       0.015  -0.015  -0.003  0.00  0.00    -0.312 N 
ATOM      3  C   UNL     1      -0.076  -0.833  -1.133  0.00  0.00    +0.074 A 
ATOM      4  C   UNL     1      -0.015  -2.172  -0.753  0.00  0.00    +0.052 A 
ATOM      5  C   UNL     1      -0.086  -3.168  -1.715  0.00  0.00    +0.038 A 
ATOM      6  C   UNL     1      -0.220  -2.832  -3.064  0.00  0.00    +0.040 A 
ATOM      7  C   UNL     1      -0.282  -1.489  -3.443  0.00  0.00    +0.038 A 
ATOM      8  C   UNL     1      -0.211  -0.497  -2.483  0.00  0.00    +0.057 A 
ATOM      9  N   UNL     1       0.119  -2.264   0.640  0.00  0.00    -0.324 N 
ATOM     10  C   UNL     1       0.148  -0.893   1.166  0.00  0.00    +0.161 C 
ATOM     11  H   UNL     1       0.183  -3.080   1.160  0.00  0.00    +0.148 HD
ENDROOT
BRANCH   8  12
ATOM     12  N   UNL     1      -0.273   0.851  -2.865  0.00  0.00    -0.282 N 
ATOM     13  C   UNL     1      -1.045   1.222  -3.905  0.00  0.00    +0.246 C 
ATOM     14  O   UNL     1      -1.763   0.408  -4.448  0.00  0.00    -0.273 OA
ATOM     15  H   UNL     1       0.240   1.516  -2.380  0.00  0.00    +0.155 HD
BRANCH  13  16
ATOM     16  C   UNL     1      -1.018   2.647  -4.394  0.00  0.00    +0.204 C 
ATOM     17  C   UNL     1      -1.574   3.586  -3.301  0.00  0.00    +0.043 C 
ATOM     18  C   UNL     1      -2.399   4.606  -4.132  0.00  0.00    +0.031 C 
ATOM     19  C   UNL     1      -2.927   3.699  -5.272  0.00  0.00    +0.161 C 
ATOM     20  O   UNL     1      -1.854   2.781  -5.549  0.00  0.00    -0.367 OA
ENDBRANCH  13  16
ENDBRANCH   8  12
BRANCH   6  21
ATOM     21  C   UNL     1      -0.296  -3.893  -4.086  0.00  0.00    +0.244 C 
ATOM     22  O   UNL     1      -0.241  -5.061  -3.754  0.00  0.00    -0.270 OA
ATOM     23  N   UNL     1      -0.425  -3.567  -5.387  0.00  0.00    -0.311 N 
ATOM     24  H   UNL     1      -0.468  -2.635  -5.652  0.00  0.00    +0.149 HD
BRANCH  23  25
ATOM     25  C   UNL     1      -0.500  -4.621  -6.402  0.00  0.00    +0.109 C 
BRANCH  25  26
ATOM     26  C   UNL     1      -0.643  -3.986  -7.787  0.00  0.00    +0.052 C 
BRANCH  26  27
ATOM     27  C   UNL     1      -0.721  -5.070  -8.831  0.00  0.00    -0.040 C 
ATOM     28  C   UNL     1      -1.841  -5.607  -9.365  0.00  0.00    -0.001 A 
ATOM     29  C   UNL     1      -3.270  -5.353  -9.140  0.00  0.00    +0.010 A 
ATOM     30  C   UNL     1      -4.181  -6.066  -9.840  0.00  0.00    +0.001 A 
ATOM     31  C   UNL     1      -3.796  -7.040 -10.772  0.00  0.00    +0.002 A 
ATOM     32  C   UNL     1      -2.504  -7.330 -11.032  0.00  0.00    +0.026 A 
ATOM     33  C   UNL     1      -1.462  -6.640 -10.354  0.00  0.00    +0.043 A 
ATOM     34  N   UNL     1      -0.156  -6.739 -10.429  0.00  0.00    -0.380 N 
ATOM     35  C   UNL     1       0.440  -5.773  -9.499  0.00  0.00    +0.144 C 
ATOM     36  H   UNL     1       0.333  -7.346 -11.006  0.00  0.00    +0.160 HD
ENDBRANCH  26  27
ENDBRANCH  25  26
ENDBRANCH  23  25
ENDBRANCH   6  21
BRANCH  10  37
ATOM     37  C   UNL     1      -1.021  -0.674   2.127  0.00  0.00    +0.027 C 
ATOM     38  C   UNL     1      -0.832   0.532   3.062  0.00  0.00    +0.007 C 
ATOM     39  C   UNL     1      -1.449  -0.334   4.174  0.00  0.00    +0.001 C 
ATOM     40  C   UNL     1      -0.959  -1.559   3.384  0.00  0.00    +0.007 C 
ENDBRANCH  10  37
TORSDOF 7
