REMARK  Name = ZINC08998641
REMARK  9 active torsions:
REMARK  status: ('A' for Active; 'I' for Inactive)
REMARK    1  A    between atoms: C_1  and  C_2
REMARK    2  A    between atoms: C_2  and  O_3
REMARK    3  A    between atoms: O_3  and  C_4
REMARK    4  A    between atoms: C_4  and  C_5
REMARK    5  A    between atoms: C_5  and  N_6
REMARK    6  A    between atoms: C_10  and  S_28
REMARK    7  A    between atoms: N_15  and  C_16
REMARK    8  A    between atoms: C_16  and  C_18
REMARK    9  A    between atoms: S_28  and  N_31
REMARK                            x       y       z     vdW  Elec       q    Type
REMARK                         _______ _______ _______ _____ _____    ______ ____
ROOT
ATOM      1  N   UNL     1      -6.095   1.945   0.250  0.00  0.00    -0.319 N 
ATOM      2  C   UNL     1      -7.162   1.097   0.479  0.00  0.00    +0.058 A 
ATOM      3  C   UNL     1      -8.481   1.430   0.826  0.00  0.00    +0.029 A 
ATOM      4  C   UNL     1      -9.426   0.450   1.017  0.00  0.00    +0.030 A 
ATOM      5  C   UNL     1      -9.109  -0.890   0.875  0.00  0.00    +0.106 A 
ATOM      6  C   UNL     1      -7.817  -1.247   0.534  0.00  0.00    +0.045 A 
ATOM      7  C   UNL     1      -6.870  -0.269   0.343  0.00  0.00    +0.041 A 
ATOM      8  S   UNL     1      -5.151  -0.276  -0.098  0.00  0.00    -0.052 S 
ATOM      9  C   UNL     1      -4.877   1.436  -0.079  0.00  0.00    +0.167 A 
ATOM     10  N   UNL     1      -3.750   2.093  -0.332  0.00  0.00    -0.152 NA
ENDROOT
BRANCH   5  11
ATOM     11  S   UNL     1     -10.338  -2.128   1.126  0.00  0.00    +0.056 S 
ATOM     12  O   UNL     1      -9.649  -3.323   1.466  0.00  0.00    -0.153 OA
ATOM     13  O   UNL     1     -11.327  -1.553   1.970  0.00  0.00    -0.153 OA
BRANCH  11  14
ATOM     14  N   UNL     1     -11.065  -2.400  -0.337  0.00  0.00    -0.204 NA
ATOM     15  H   UNL     1     -10.779  -1.905  -1.120  0.00  0.00    +0.144 HD
ATOM     16  H   UNL     1     -11.777  -3.055  -0.410  0.00  0.00    +0.144 HD
ENDBRANCH  11  14
ENDBRANCH   5  11
BRANCH  10  17
ATOM     17  C   UNL     1      -2.638   1.418  -0.643  0.00  0.00    +0.270 C 
ATOM     18  O   UNL     1      -2.658   0.200  -0.694  0.00  0.00    -0.268 OA
BRANCH  17  19
ATOM     19  C   UNL     1      -1.385   2.148  -0.924  0.00  0.00    +0.046 A 
ATOM     20  C   UNL     1      -1.381   3.533  -0.993  0.00  0.00    +0.014 A 
ATOM     21  C   UNL     1      -0.207   4.225  -1.262  0.00  0.00    +0.001 A 
ATOM     22  C   UNL     1       0.970   3.568  -1.461  0.00  0.00    +0.008 A 
ATOM     23  C   UNL     1       1.014   2.165  -1.396  0.00  0.00    -0.017 A 
ATOM     24  C   UNL     1      -0.173   1.442  -1.122  0.00  0.00    -0.006 A 
ATOM     25  C   UNL     1      -0.128   0.042  -1.058  0.00  0.00    +0.009 A 
ATOM     26  C   UNL     1       1.054  -0.605  -1.260  0.00  0.00    +0.001 A 
ATOM     27  C   UNL     1       2.222   0.104  -1.529  0.00  0.00    +0.001 A 
ATOM     28  C   UNL     1       2.215   1.464  -1.598  0.00  0.00    +0.008 A 
ENDBRANCH  17  19
ENDBRANCH  10  17
BRANCH   1  29
ATOM     29  C   UNL     1      -6.276   3.395   0.363  0.00  0.00    +0.152 C 
BRANCH  29  30
ATOM     30  C   UNL     1      -5.017   4.020   0.968  0.00  0.00    +0.181 C 
BRANCH  30  31
ATOM     31  O   UNL     1      -5.241   5.412   1.200  0.00  0.00    -0.378 OA
BRANCH  31  33
ATOM     32  C   UNL     1      -4.472   7.570   1.971  0.00  0.00    +0.034 C 
ATOM     33  C   UNL     1      -4.120   6.095   1.766  0.00  0.00    +0.156 C 
ENDBRANCH  31  33
ENDBRANCH  30  31
ENDBRANCH  29  30
ENDBRANCH   1  29
TORSDOF 8
