REMARK  Name = ZINC41634718
REMARK  9 active torsions:
REMARK  status: ('A' for Active; 'I' for Inactive)
REMARK    1  A    between atoms: C_1  and  C_2
REMARK    2  A    between atoms: C_2  and  C_3
REMARK    3  A    between atoms: C_6  and  C_9
REMARK    4  A    between atoms: C_9  and  C_11
REMARK    5  A    between atoms: C_9  and  N_20
REMARK    6  A    between atoms: C_12  and  O_19
REMARK    7  A    between atoms: N_23  and  C_26
REMARK    8  A    between atoms: C_26  and  C_27
REMARK    9  A    between atoms: C_27  and  O_28
REMARK                            x       y       z     vdW  Elec       q    Type
REMARK                         _______ _______ _______ _____ _____    ______ ____
ROOT
ATOM      1  C   UNL     1       2.707  -1.868  -4.752  0.00  0.00    +0.006 C 
ENDROOT
BRANCH   1   2
ATOM      2  C   UNL     1       2.940  -3.353  -4.647  0.00  0.00    +0.045 A 
ATOM      3  C   UNL     1       2.437  -4.343  -5.395  0.00  0.00    +0.225 A 
ATOM      4  N   UNL     1       2.771  -5.651  -5.142  0.00  0.00    -0.174 N 
ATOM      5  C   UNL     1       3.626  -5.888  -4.109  0.00  0.00    +0.199 A 
ATOM      6  S   UNL     1       3.966  -4.255  -3.496  0.00  0.00    -0.050 S 
ATOM      7  N   UNL     1       3.839  -7.171  -4.002  0.00  0.00    -0.208 NA
ATOM      8  C   UNL     1       3.147  -7.812  -4.941  0.00  0.00    +0.246 A 
ATOM      9  N   UNL     1       2.485  -6.942  -5.657  0.00  0.00    -0.150 NA
BRANCH   3  10
ATOM     10  O   UNL     1       1.587  -4.050  -6.416  0.00  0.00    -0.492 OA
ATOM     11  H   UNL     1       1.274  -4.825  -6.902  0.00  0.00    +0.294 HD
ENDBRANCH   3  10
ENDBRANCH   1   2
BRANCH   1  12
ATOM     12  N   UNL     1       3.997  -1.178  -4.885  0.00  0.00    +0.389 N 
ATOM     13  C   UNL     1       3.770   0.269  -4.985  0.00  0.00    -0.062 C 
ATOM     14  C   UNL     1       5.114   0.990  -5.104  0.00  0.00    +0.066 C 
ATOM     15  N   UNL     1       5.824   0.504  -6.296  0.00  0.00    -0.304 NA
ATOM     16  C   UNL     1       6.036  -0.949  -6.221  0.00  0.00    +0.066 C 
ATOM     17  C   UNL     1       4.684  -1.653  -6.093  0.00  0.00    -0.062 C 
ATOM     18  H   UNL     1       4.567  -1.373  -4.075  0.00  0.00    -0.080 HD
BRANCH  15  19
ATOM     19  C   UNL     1       7.097   1.214  -6.477  0.00  0.00    +0.112 C 
BRANCH  19  20
ATOM     20  C   UNL     1       7.685   0.866  -7.846  0.00  0.00    +0.171 C 
BRANCH  20  21
ATOM     21  O   UNL     1       6.825   1.363  -8.874  0.00  0.00    -0.394 OA
ATOM     22  H   UNL     1       7.136   1.179  -9.771  0.00  0.00    +0.209 HD
ENDBRANCH  20  21
ENDBRANCH  19  20
ENDBRANCH  15  19
ENDBRANCH   1  12
BRANCH   1  26
ATOM     23  C   UNL     1       0.707  -0.490  -1.238  0.00  0.00    -0.048 A 
ATOM     24  C   UNL     1      -0.011  -0.719  -2.397  0.00  0.00    +0.004 A 
ATOM     25  C   UNL     1       0.636  -1.164  -3.534  0.00  0.00    +0.002 A 
ATOM     26  C   UNL     1       2.002  -1.381  -3.513  0.00  0.00    -0.056 A 
ATOM     27  C   UNL     1       2.720  -1.152  -2.354  0.00  0.00    +0.002 A 
ATOM     28  C   UNL     1       2.073  -0.702  -1.218  0.00  0.00    +0.004 A 
BRANCH  23  30
ATOM     29  C   UNL     1      -0.019   1.526   0.010  0.00  0.00    +0.009 C 
ATOM     30  C   UNL     1       0.002  -0.004   0.002  0.00  0.00    +0.032 C 
ENDBRANCH  23  30
ENDBRANCH   1  26
TORSDOF 8
