REMARK  Name = ZINC13165108
REMARK  9 active torsions:
REMARK  status: ('A' for Active; 'I' for Inactive)
REMARK    1  A    between atoms: C_6  and  C_7
REMARK    2  A    between atoms: C_10  and  S_19
REMARK    3  A    between atoms: N_11  and  C_12
REMARK    4  A    between atoms: C_12  and  C_13
REMARK    5  A    between atoms: S_19  and  C_20
REMARK    6  A    between atoms: C_20  and  C_21
REMARK    7  A    between atoms: N_23  and  C_24
REMARK    8  A    between atoms: C_26  and  C_33
REMARK    9  A    between atoms: C_28  and  C_30
REMARK                            x       y       z     vdW  Elec       q    Type
REMARK                         _______ _______ _______ _____ _____    ______ ____
ROOT
ATOM      1  C   UNL     1      -1.805   7.957  -0.179  0.00  0.00    +0.173 C 
ENDROOT
BRANCH   1   2
ATOM      2  C   UNL     1      -1.959   6.479  -0.427  0.00  0.00    +0.227 C 
ATOM      3  O   UNL     1      -0.996   5.746  -0.346  0.00  0.00    -0.275 OA
ATOM      4  N   UNL     1      -3.168   5.971  -0.740  0.00  0.00    -0.285 N 
ATOM      5  H   UNL     1      -3.923   6.564  -0.876  0.00  0.00    +0.155 HD
BRANCH   4   6
ATOM      6  C   UNL     1      -3.333   4.586  -0.867  0.00  0.00    +0.035 A 
ATOM      7  C   UNL     1      -4.238   4.080  -1.789  0.00  0.00    +0.036 A 
ATOM      8  C   UNL     1      -4.406   2.700  -1.918  0.00  0.00    +0.039 A 
ATOM      9  C   UNL     1      -3.664   1.831  -1.120  0.00  0.00    +0.026 A 
ATOM     10  C   UNL     1      -2.756   2.344  -0.196  0.00  0.00    +0.039 A 
ATOM     11  C   UNL     1      -2.596   3.725  -0.069  0.00  0.00    +0.036 A 
BRANCH  10  12
ATOM     12  C   UNL     1      -1.966   1.426   0.652  0.00  0.00    +0.242 C 
ATOM     13  O   UNL     1      -1.170   1.873   1.455  0.00  0.00    -0.270 OA
ATOM     14  N   UNL     1      -2.124   0.093   0.532  0.00  0.00    -0.325 N 
ATOM     15  H   UNL     1      -1.603  -0.509   1.086  0.00  0.00    +0.145 HD
ATOM     16  H   UNL     1      -2.760  -0.264  -0.108  0.00  0.00    +0.145 HD
ENDBRANCH  10  12
BRANCH   8  17
ATOM     17  C   UNL     1      -5.372   2.161  -2.900  0.00  0.00    +0.242 C 
ATOM     18  O   UNL     1      -6.019   2.919  -3.595  0.00  0.00    -0.270 OA
ATOM     19  N   UNL     1      -5.534   0.828  -3.023  0.00  0.00    -0.325 N 
ATOM     20  H   UNL     1      -5.017   0.223  -2.468  0.00  0.00    +0.145 HD
ATOM     21  H   UNL     1      -6.167   0.475  -3.667  0.00  0.00    +0.145 HD
ENDBRANCH   8  17
ENDBRANCH   4   6
ENDBRANCH   1   2
BRANCH   1  22
ATOM     22  S   UNL     1      -0.077   8.325   0.215  0.00  0.00    -0.077 S 
BRANCH  22  26
ATOM     23  C   UNL     1       0.294  12.162   0.852  0.00  0.00    +0.165 A 
ATOM     24  N   UNL     1      -0.985  12.037   0.582  0.00  0.00    -0.128 NA
ATOM     25  N   UNL     1      -1.264  10.806   0.341  0.00  0.00    -0.122 NA
ATOM     26  C   UNL     1      -0.182  10.068   0.451  0.00  0.00    +0.192 A 
ATOM     27  N   UNL     1       0.847  10.905   0.776  0.00  0.00    -0.300 N 
BRANCH  23  33
ATOM     28  C   UNL     1       0.287  14.548   1.570  0.00  0.00    +0.013 A 
ATOM     29  C   UNL     1       0.956  15.714   1.876  0.00  0.00    +0.021 A 
ATOM     30  C   UNL     1       2.336  15.769   1.782  0.00  0.00    +0.041 A 
ATOM     31  C   UNL     1       3.054  14.652   1.387  0.00  0.00    +0.021 A 
ATOM     32  C   UNL     1       2.396  13.478   1.084  0.00  0.00    +0.013 A 
ATOM     33  C   UNL     1       1.005  13.418   1.176  0.00  0.00    +0.019 A 
ATOM     34 CL   UNL     1       3.171  17.243   2.162  0.00  0.00    -0.084 Cl
ENDBRANCH  23  33
BRANCH  27  35
ATOM     35  C   UNL     1       2.249  10.540   0.998  0.00  0.00    +0.157 C 
BRANCH  35  36
ATOM     36  C   UNL     1       3.001  10.570  -0.334  0.00  0.00    +0.138 C 
ATOM     37  C   UNL     1       4.498  10.240  -0.114  0.00  0.00    +0.035 C 
ATOM     38  C   UNL     1       4.890   9.697  -1.516  0.00  0.00    +0.031 C 
ATOM     39  C   UNL     1       3.595   8.987  -1.965  0.00  0.00    +0.160 C 
ATOM     40  O   UNL     1       2.513   9.537  -1.205  0.00  0.00    -0.375 OA
ENDBRANCH  35  36
ENDBRANCH  27  35
ENDBRANCH  22  26
ENDBRANCH   1  22
TORSDOF 9
