REMARK  Name = ZINC12497689
REMARK  16 active torsions:
REMARK  status: ('A' for Active; 'I' for Inactive)
REMARK    1  A    between atoms: C_1  and  C_2
REMARK    2  A    between atoms: C_2  and  C_3
REMARK    3  A    between atoms: C_3  and  C_4
REMARK    4  A    between atoms: C_4  and  C_35
REMARK    5  A    between atoms: C_9  and  C_11
REMARK    6  A    between atoms: C_14  and  O_19
REMARK    7  A    between atoms: C_16  and  O_17
REMARK    8  A    between atoms: O_17  and  C_18
REMARK    9  A    between atoms: O_19  and  C_20
REMARK   10  A    between atoms: N_23  and  C_26
REMARK   11  A    between atoms: C_29  and  O_32
REMARK   12  A    between atoms: O_32  and  C_33
REMARK   13  A    between atoms: C_33  and  C_34
REMARK   14  A    between atoms: C_35  and  O_37
REMARK   15  A    between atoms: O_37  and  C_38
REMARK   16  A    between atoms: C_38  and  C_39
REMARK                            x       y       z     vdW  Elec       q    Type
REMARK                         _______ _______ _______ _____ _____    ______ ____
ROOT
ATOM      1  C   UNL     1      -8.739  -3.252   0.247  0.00  0.00    +0.044 C 
ATOM      2  C   UNL     1      -7.409  -2.941  -0.397  0.00  0.00    +0.086 C 
ATOM      3  C   UNL     1      -6.555  -4.061   0.319  0.00  0.00    +0.077 C 
ATOM      4  C   UNL     1      -7.403  -5.258   0.088  0.00  0.00    -0.023 C 
ATOM      5  C   UNL     1      -5.221  -3.669  -0.129  0.00  0.00    +0.229 C 
ATOM      6  O   UNL     1      -4.293  -4.396  -0.411  0.00  0.00    -0.275 OA
ATOM      7  N   UNL     1      -5.249  -2.297  -0.161  0.00  0.00    -0.210 N 
ATOM      8  C   UNL     1      -6.522  -1.796  -0.088  0.00  0.00    +0.229 C 
ATOM      9  O   UNL     1      -6.850  -0.658   0.170  0.00  0.00    -0.275 OA
ATOM     10  N   UNL     1      -8.794  -4.741   0.141  0.00  0.00    +0.395 N 
ATOM     11  H   UNL     1      -9.297  -5.010  -0.713  0.00  0.00    -0.083 HD
ATOM     12  H   UNL     1      -9.278  -5.130   0.960  0.00  0.00    -0.083 HD
ENDROOT
BRANCH   4  13
ATOM     13  C   UNL     1      -7.123  -5.846  -1.270  0.00  0.00    -0.019 A 
ATOM     14  C   UNL     1      -7.876  -5.454  -2.361  0.00  0.00    +0.009 A 
ATOM     15  C   UNL     1      -7.619  -5.988  -3.609  0.00  0.00    +0.046 A 
ATOM     16  C   UNL     1      -6.611  -6.928  -3.768  0.00  0.00    +0.124 A 
ATOM     17  C   UNL     1      -5.858  -7.328  -2.675  0.00  0.00    +0.091 A 
ATOM     18  C   UNL     1      -6.114  -6.786  -1.425  0.00  0.00    +0.125 A 
BRANCH  18  19
ATOM     19  O   UNL     1      -5.378  -7.175  -0.351  0.00  0.00    -0.495 OA
ATOM     20  C   UNL     1      -4.355  -8.146  -0.583  0.00  0.00    +0.277 C 
ENDBRANCH  18  19
BRANCH  16  21
ATOM     21  O   UNL     1      -6.361  -7.457  -4.995  0.00  0.00    -0.495 OA
ATOM     22  C   UNL     1      -7.176  -7.000  -6.076  0.00  0.00    +0.277 C 
ENDBRANCH  16  21
ENDBRANCH   4  13
BRANCH   7  23
ATOM     23  C   UNL     1      -4.100  -1.496  -0.252  0.00  0.00    +0.044 A 
ATOM     24  C   UNL     1      -2.845  -2.087  -0.316  0.00  0.00    +0.027 A 
ATOM     25  C   UNL     1      -1.715  -1.299  -0.406  0.00  0.00    +0.047 A 
ATOM     26  C   UNL     1      -1.833   0.083  -0.432  0.00  0.00    +0.121 A 
ATOM     27  C   UNL     1      -3.087   0.674  -0.363  0.00  0.00    +0.047 A 
ATOM     28  C   UNL     1      -4.218  -0.114  -0.279  0.00  0.00    +0.027 A 
BRANCH  26  29
ATOM     29  O   UNL     1      -0.720   0.859  -0.520  0.00  0.00    -0.492 OA
BRANCH  29  30
ATOM     30  C   UNL     1      -0.916   2.274  -0.543  0.00  0.00    +0.225 C 
ATOM     31  C   UNL     1       0.440   2.975  -0.644  0.00  0.00    +0.048 C 
ENDBRANCH  29  30
ENDBRANCH  26  29
ENDBRANCH   7  23
BRANCH   1  32
ATOM     32  C   UNL     1      -8.753  -2.812   1.688  0.00  0.00    +0.297 C 
ATOM     33  O   UNL     1      -8.020  -1.924   2.055  0.00  0.00    -0.252 OA
BRANCH  32  34
ATOM     34  O   UNL     1      -9.579  -3.406   2.563  0.00  0.00    -0.466 OA
BRANCH  34  35
ATOM     35  C   UNL     1      -9.538  -2.931   3.935  0.00  0.00    +0.228 C 
ATOM     36  C   UNL     1     -10.541  -3.721   4.778  0.00  0.00    +0.048 C 
ENDBRANCH  34  35
ENDBRANCH  32  34
ENDBRANCH   1  32
BRANCH   1  37
ATOM     37  C   UNL     1      -9.885  -2.600  -0.529  0.00  0.00    -0.001 C 
BRANCH  37  39
ATOM     38  C   UNL     1     -12.361  -2.283  -0.628  0.00  0.00    +0.004 C 
ATOM     39  C   UNL     1     -11.216  -2.935   0.148  0.00  0.00    -0.004 C 
ENDBRANCH  37  39
ENDBRANCH   1  37
TORSDOF 11
