REMARK  Name = ZINC17146113
REMARK  4 active torsions:
REMARK  status: ('A' for Active; 'I' for Inactive)
REMARK    1  A    between atoms: C_1  and  C_2
REMARK    2  A    between atoms: C_2  and  N_13
REMARK    3  A    between atoms: C_7  and  C_11
REMARK    4  A    between atoms: C_7  and  C_12
REMARK                            x       y       z     vdW  Elec       q    Type
REMARK                         _______ _______ _______ _____ _____    ______ ____
ROOT
ATOM      1  N   UNL     1      -0.091  -0.698  -1.373  0.00  0.00    -0.219 NA
ATOM      2  C   UNL     1      -1.349  -0.831  -1.786  0.00  0.00    +0.203 C 
ATOM      3  N   UNL     1      -1.610  -1.313  -3.031  0.00  0.00    -0.369 N 
ATOM      4  N   UNL     1      -2.378  -0.483  -0.959  0.00  0.00    -0.280 N 
ATOM      5  C   UNL     1      -3.683  -0.743  -1.333  0.00  0.00    +0.304 A 
ATOM      6  N   UNL     1      -4.037  -1.418  -2.395  0.00  0.00    -0.193 NA
ATOM      7  C   UNL     1      -5.396  -1.475  -2.443  0.00  0.00    +0.111 A 
ATOM      8  C   UNL     1      -6.306  -2.051  -3.331  0.00  0.00    +0.031 A 
ATOM      9  C   UNL     1      -7.658  -1.930  -3.098  0.00  0.00    +0.002 A 
ATOM     10  C   UNL     1      -8.119  -1.239  -1.987  0.00  0.00    +0.004 A 
ATOM     11  C   UNL     1      -7.230  -0.665  -1.102  0.00  0.00    +0.048 A 
ATOM     12  C   UNL     1      -5.867  -0.778  -1.320  0.00  0.00    +0.157 A 
ATOM     13  O   UNL     1      -4.772  -0.344  -0.654  0.00  0.00    -0.423 OA
ATOM     14  H   UNL     1      -0.885  -1.641  -3.586  0.00  0.00    +0.159 HD
ATOM     15  H   UNL     1      -2.521  -1.330  -3.363  0.00  0.00    +0.159 HD
ATOM     16  H   UNL     1      -2.194  -0.053  -0.109  0.00  0.00    +0.173 HD
ENDROOT
BRANCH   1  18
ATOM     17  C   UNL     1       0.483   1.334  -0.124  0.00  0.00    +0.066 C 
ATOM     18  C   UNL     1       0.166  -0.138  -0.202  0.00  0.00    +0.056 C 
ATOM     19  C   UNL     1       0.145  -0.913   0.967  0.00  0.00    +0.081 C 
ATOM     20  C   UNL     1       0.296  -0.287   2.224  0.00  0.00    +0.169 C 
ATOM     21  O   UNL     1       0.446   0.917   2.284  0.00  0.00    -0.292 OA
ATOM     22  C   UNL     1       0.272  -1.103   3.490  0.00  0.00    +0.086 C 
ATOM     23  C   UNL     1       0.807  -2.507   3.199  0.00  0.00    -0.021 C 
ATOM     24  C   UNL     1      -0.057  -3.160   2.118  0.00  0.00    +0.086 C 
ATOM     25  C   UNL     1      -0.034  -2.311   0.874  0.00  0.00    +0.169 C 
ATOM     26  O   UNL     1      -0.165  -2.831  -0.215  0.00  0.00    -0.292 OA
ATOM     27  C   UNL     1       0.751  -3.349   4.476  0.00  0.00    +0.012 C 
ATOM     28  C   UNL     1       2.253  -2.413   2.710  0.00  0.00    +0.012 C 
ENDBRANCH   1  18
TORSDOF 1
