REMARK  Name = ZINC58621600
REMARK  11 active torsions:
REMARK  status: ('A' for Active; 'I' for Inactive)
REMARK    1  A    between atoms: C_1  and  C_2
REMARK    2  A    between atoms: C_2  and  C_3
REMARK    3  A    between atoms: C_2  and  C_4
REMARK    4  A    between atoms: C_2  and  C_5
REMARK    5  A    between atoms: C_7  and  C_10
REMARK    6  A    between atoms: C_10  and  S_11
REMARK    7  A    between atoms: S_11  and  C_14
REMARK    8  A    between atoms: C_14  and  C_15
REMARK    9  A    between atoms: N_17  and  C_18
REMARK   10  A    between atoms: C_18  and  C_19
REMARK   11  A    between atoms: C_19  and  C_20
REMARK                            x       y       z     vdW  Elec       q    Type
REMARK                         _______ _______ _______ _____ _____    ______ ____
ROOT
ATOM      1  C   UNL     1       1.292  -5.153  -5.265  0.00  0.00    +0.261 C 
ENDROOT
BRANCH   1   2
ATOM      2  C   UNL     1       0.294  -5.719  -6.242  0.00  0.00    +0.234 C 
ATOM      3  O   UNL     1      -0.764  -5.155  -6.424  0.00  0.00    -0.274 OA
ATOM      4  N   UNL     1       0.577  -6.854  -6.913  0.00  0.00    -0.314 N 
ATOM      5  H   UNL     1       1.423  -7.305  -6.767  0.00  0.00    +0.149 HD
BRANCH   4   6
ATOM      6  C   UNL     1      -0.393  -7.404  -7.862  0.00  0.00    +0.109 C 
BRANCH   6   7
ATOM      7  C   UNL     1       0.170  -8.685  -8.482  0.00  0.00    +0.054 C 
BRANCH   7   8
ATOM      8  C   UNL     1      -0.828  -9.251  -9.459  0.00  0.00    -0.046 A 
ATOM      9  C   UNL     1      -1.784 -10.150  -9.026  0.00  0.00    +0.006 A 
ATOM     10  C   UNL     1      -2.700 -10.670  -9.921  0.00  0.00    +0.038 A 
ATOM     11  C   UNL     1      -2.659 -10.290 -11.252  0.00  0.00    +0.123 A 
ATOM     12  C   UNL     1      -1.701  -9.389 -11.684  0.00  0.00    +0.038 A 
ATOM     13  C   UNL     1      -0.789  -8.867 -10.787  0.00  0.00    +0.006 A 
ATOM     14  F   UNL     1      -3.554 -10.798 -12.127  0.00  0.00    -0.205 F 
ENDBRANCH   7   8
ENDBRANCH   6   7
ENDBRANCH   4   6
ENDBRANCH   1   2
BRANCH   1  15
ATOM     15  S   UNL     1       0.624  -3.635  -4.530  0.00  0.00    -0.014 S 
ATOM     16  O   UNL     1      -0.517  -3.976  -3.754  0.00  0.00    -0.173 OA
ATOM     17  O   UNL     1       0.497  -2.658  -5.554  0.00  0.00    -0.173 OA
BRANCH  15  18
ATOM     18  C   UNL     1       1.949  -3.118  -3.405  0.00  0.00    +0.264 C 
BRANCH  18  21
ATOM     19  C   UNL     1       0.707  -0.490  -1.238  0.00  0.00    +0.177 A 
ATOM     20  N   UNL     1       0.902  -1.771  -1.570  0.00  0.00    -0.194 NA
ATOM     21  C   UNL     1       1.545  -1.847  -2.703  0.00  0.00    +0.248 A 
ATOM     22  O   UNL     1       1.783  -0.602  -3.134  0.00  0.00    -0.336 OA
ATOM     23  N   UNL     1       1.222   0.269  -2.163  0.00  0.00    -0.061 NA
BRANCH  19  25
ATOM     24  C   UNL     1      -0.019   1.526   0.010  0.00  0.00    +0.019 C 
ATOM     25  C   UNL     1       0.002  -0.004   0.002  0.00  0.00    +0.025 C 
ATOM     26  C   UNL     1       0.742  -0.511   1.242  0.00  0.00    +0.019 C 
ATOM     27  C   UNL     1      -1.433  -0.534   0.013  0.00  0.00    +0.019 C 
ENDBRANCH  19  25
ENDBRANCH  18  21
ENDBRANCH  15  18
ENDBRANCH   1  15
TORSDOF 8
