REMARK  Name = ZINC45202169
REMARK  4 active torsions:
REMARK  status: ('A' for Active; 'I' for Inactive)
REMARK    1  A    between atoms: C_2  and  C_7
REMARK    2  A    between atoms: C_7  and  C_8
REMARK    3  A    between atoms: C_8  and  N_9
REMARK    4  A    between atoms: C_17  and  C_23
REMARK                            x       y       z     vdW  Elec       q    Type
REMARK                         _______ _______ _______ _____ _____    ______ ____
ROOT
ATOM      1  N   UNL     1       2.216   5.118   1.444  0.00  0.00    -0.298 N 
ATOM      2  C   UNL     1       3.633   5.547   1.534  0.00  0.00    +0.147 C 
ATOM      3  C   UNL     1       3.613   6.965   1.055  0.00  0.00    +0.116 C 
ATOM      4  C   UNL     1       4.594   8.007   1.456  0.00  0.00    +0.008 C 
ATOM      5  C   UNL     1       4.348   9.017   0.612  0.00  0.00    +0.004 C 
ATOM      6  C   UNL     1       3.231   8.558  -0.334  0.00  0.00    +0.157 C 
ATOM      7  O   UNL     1       3.507   7.112  -0.387  0.00  0.00    -0.359 OA
ATOM      8  C   UNL     1       1.904   8.568   0.493  0.00  0.00    +0.150 C 
ATOM      9  C   UNL     1       2.195   7.449   1.536  0.00  0.00    +0.129 C 
ATOM     10  C   UNL     1       1.391   6.192   1.360  0.00  0.00    +0.223 C 
ATOM     11  O   UNL     1       0.194   6.144   1.174  0.00  0.00    -0.275 OA
ENDROOT
BRANCH   8  12
ATOM     12  C   UNL     1       0.727   8.200  -0.373  0.00  0.00    +0.363 C 
ATOM     13  O   UNL     1       0.891   7.972  -1.560  0.00  0.00    -0.246 OA
ATOM     14  O   UNL     1      -0.389   8.131   0.113  0.00  0.00    -0.246 OA
ENDBRANCH   8  12
BRANCH   1  15
ATOM     15  C   UNL     1       1.769   3.723   1.442  0.00  0.00    +0.114 C 
BRANCH  15  16
ATOM     16  C   UNL     1       1.719   3.206   0.002  0.00  0.00    +0.073 C 
BRANCH  16  18
ATOM     17  C   UNL     1      -0.016   1.337   0.009  0.00  0.00    +0.105 A 
ATOM     18  C   UNL     1       1.259   1.771  -0.000  0.00  0.00    +0.035 A 
ATOM     19  N   UNL     1       2.056   0.658  -0.014  0.00  0.00    -0.350 N 
ATOM     20  C   UNL     1       1.240  -0.418  -0.012  0.00  0.00    +0.171 A 
ATOM     21  N   UNL     1       0.002  -0.004   0.002  0.00  0.00    -0.352 N 
ATOM     22  H   UNL     1       3.026   0.645  -0.023  0.00  0.00    +0.166 HD
ATOM     23  H   UNL     1      -0.781  -0.576   0.007  0.00  0.00    +0.166 HD
ENDBRANCH  16  18
ENDBRANCH  15  16
ENDBRANCH   1  15
TORSDOF 4
