REMARK  Name = ZINC04014283
REMARK  8 active torsions:
REMARK  status: ('A' for Active; 'I' for Inactive)
REMARK    1  A    between atoms: C_1  and  C_2
REMARK    2  A    between atoms: C_2  and  C_3
REMARK    3  A    between atoms: C_2  and  C_4
REMARK    4  A    between atoms: C_2  and  N_5
REMARK    5  A    between atoms: N_5  and  C_6
REMARK    6  A    between atoms: C_9  and  N_22
REMARK    7  A    between atoms: C_11  and  C_12
REMARK    8  A    between atoms: N_14  and  C_15
REMARK                            x       y       z     vdW  Elec       q    Type
REMARK                         _______ _______ _______ _____ _____    ______ ____
ROOT
ATOM      1  C   UNL     1       4.010   1.824   0.288  0.00  0.00    +0.040 A 
ATOM      2  C   UNL     1       5.197   1.102   0.306  0.00  0.00    +0.026 A 
ATOM      3  C   UNL     1       5.167  -0.277   0.327  0.00  0.00    +0.034 A 
ATOM      4  C   UNL     1       3.956  -0.952   0.336  0.00  0.00    +0.127 A 
ATOM      5  C   UNL     1       2.769  -0.254   0.323  0.00  0.00    +0.047 A 
ATOM      6  C   UNL     1       2.783   1.143   0.301  0.00  0.00    +0.060 A 
ENDROOT
BRANCH   6   7
ATOM      7  C   UNL     1       1.516   1.897   0.287  0.00  0.00    +0.250 C 
ATOM      8  O   UNL     1       1.530   3.106   0.159  0.00  0.00    -0.270 OA
ATOM      9  N   UNL     1       0.343   1.246   0.416  0.00  0.00    -0.280 N 
ATOM     10  H   UNL     1       0.328   0.277   0.461  0.00  0.00    +0.155 HD
BRANCH   9  11
ATOM     11  C   UNL     1      -0.854   1.968   0.479  0.00  0.00    +0.052 A 
ATOM     12  C   UNL     1      -0.997   3.144  -0.245  0.00  0.00    +0.025 A 
ATOM     13  C   UNL     1      -2.182   3.851  -0.185  0.00  0.00    +0.002 A 
ATOM     14  C   UNL     1      -3.222   3.395   0.604  0.00  0.00    +0.002 A 
ATOM     15  C   UNL     1      -3.083   2.227   1.330  0.00  0.00    +0.022 A 
ATOM     16  C   UNL     1      -1.901   1.511   1.270  0.00  0.00    +0.062 A 
ATOM     17 CL   UNL     1      -1.726   0.045   2.183  0.00  0.00    -0.082 Cl
ENDBRANCH   9  11
ENDBRANCH   6   7
BRANCH   4  18
ATOM     18  N   UNL     1       3.939  -2.432   0.359  0.00  0.00    +0.056 N 
ATOM     19  O   UNL     1       2.878  -3.029   0.366  0.00  0.00    -0.126 OA
ATOM     20  O   UNL     1       4.987  -3.053   0.370  0.00  0.00    -0.126 OA
ENDBRANCH   4  18
BRANCH   1  21
ATOM     21  N   UNL     1       4.038   3.213   0.261  0.00  0.00    -0.338 N 
ATOM     22  H   UNL     1       3.214   3.712   0.147  0.00  0.00    +0.147 HD
BRANCH  21  24
ATOM     23  C   UNL     1       6.206   3.614  -0.796  0.00  0.00    +0.031 C 
ATOM     24  C   UNL     1       5.311   3.923   0.406  0.00  0.00    +0.024 C 
ATOM     25  C   UNL     1       5.050   5.429   0.473  0.00  0.00    +0.031 C 
ATOM     26  C   UNL     1       6.006   3.467   1.690  0.00  0.00    +0.031 C 
ENDBRANCH  21  24
ENDBRANCH   1  21
TORSDOF 5
