REMARK  Name = ZINC42883178
REMARK  10 active torsions:
REMARK  status: ('A' for Active; 'I' for Inactive)
REMARK    1  A    between atoms: C_1  and  C_2
REMARK    2  A    between atoms: C_2  and  C_3
REMARK    3  A    between atoms: C_3  and  N_4
REMARK    4  A    between atoms: N_4  and  S_5
REMARK    5  A    between atoms: S_5  and  C_8
REMARK    6  A    between atoms: C_11  and  C_14
REMARK    7  A    between atoms: C_15  and  C_16
REMARK    8  A    between atoms: C_21  and  C_24
REMARK    9  A    between atoms: C_24  and  O_26
REMARK   10  A    between atoms: O_26  and  C_27
REMARK                            x       y       z     vdW  Elec       q    Type
REMARK                         _______ _______ _______ _____ _____    ______ ____
ROOT
ATOM      1  C   UNL     1      -3.966  -2.492  -0.873  0.00  0.00    +0.105 A 
ATOM      2  C   UNL     1      -4.827  -1.418  -0.726  0.00  0.00    +0.029 A 
ATOM      3  C   UNL     1      -5.764  -1.143  -1.700  0.00  0.00    +0.010 A 
ATOM      4  C   UNL     1      -5.841  -1.951  -2.838  0.00  0.00    -0.025 A 
ATOM      5  C   UNL     1      -4.967  -3.033  -2.980  0.00  0.00    +0.010 A 
ATOM      6  C   UNL     1      -4.033  -3.292  -2.000  0.00  0.00    +0.029 A 
ENDROOT
BRANCH   1   7
ATOM      7  S   UNL     1      -2.773  -2.836   0.377  0.00  0.00    +0.058 S 
ATOM      8  O   UNL     1      -2.446  -4.214   0.258  0.00  0.00    -0.153 OA
ATOM      9  O   UNL     1      -3.273  -2.273   1.582  0.00  0.00    -0.153 OA
BRANCH   7  10
ATOM     10  N   UNL     1      -1.403  -1.989  -0.007  0.00  0.00    -0.190 NA
ATOM     11  H   UNL     1      -0.588  -2.463  -0.235  0.00  0.00    +0.148 HD
BRANCH  10  12
ATOM     12  C   UNL     1      -1.421  -0.524  -0.003  0.00  0.00    +0.105 C 
BRANCH  12  14
ATOM     13  C   UNL     1      -0.005   1.534  -0.013  0.00  0.00    +0.005 C 
ATOM     14  C   UNL     1       0.015   0.004  -0.017  0.00  0.00    +0.013 C 
ENDBRANCH  12  14
ENDBRANCH  10  12
ENDBRANCH   7  10
ENDBRANCH   1   7
BRANCH   4  15
ATOM     15  C   UNL     1      -6.839  -1.664  -3.883  0.00  0.00    +0.013 C 
ATOM     16  C   UNL     1      -6.911  -2.445  -4.979  0.00  0.00    +0.068 C 
BRANCH  16  17
ATOM     17  C   UNL     1      -7.903  -2.159  -6.018  0.00  0.00    +0.239 C 
ATOM     18  O   UNL     1      -8.723  -1.277  -5.849  0.00  0.00    -0.271 OA
ATOM     19  N   UNL     1      -7.907  -2.874  -7.160  0.00  0.00    -0.298 N 
ATOM     20  C   UNL     1      -8.817  -2.523  -8.259  0.00  0.00    +0.109 C 
ATOM     21  C   UNL     1      -7.997  -2.348  -9.541  0.00  0.00    +0.033 C 
ATOM     22  C   UNL     1      -7.169  -3.610  -9.790  0.00  0.00    +0.101 C 
ATOM     23  C   UNL     1      -6.201  -3.825  -8.624  0.00  0.00    +0.033 C 
ATOM     24  C   UNL     1      -6.996  -4.014  -7.333  0.00  0.00    +0.109 C 
BRANCH  22  25
ATOM     25  C   UNL     1      -6.387  -3.454 -11.069  0.00  0.00    +0.310 C 
ATOM     26  O   UNL     1      -6.483  -2.438 -11.715  0.00  0.00    -0.251 OA
BRANCH  25  27
ATOM     27  O   UNL     1      -5.585  -4.444 -11.490  0.00  0.00    -0.468 OA
ATOM     28  C   UNL     1      -4.874  -4.229 -12.710  0.00  0.00    +0.280 C 
ENDBRANCH  25  27
ENDBRANCH  22  25
ENDBRANCH  16  17
ENDBRANCH   4  15
TORSDOF 8
