REMARK  Name = ZINC21322995
REMARK  8 active torsions:
REMARK  status: ('A' for Active; 'I' for Inactive)
REMARK    1  A    between atoms: C_1  and  C_2
REMARK    2  A    between atoms: C_5  and  C_8
REMARK    3  A    between atoms: C_8  and  S_9
REMARK    4  A    between atoms: S_9  and  C_10
REMARK    5  A    between atoms: N_14  and  N_15
REMARK    6  A    between atoms: N_16  and  N_17
REMARK    7  A    between atoms: C_18  and  C_19
REMARK    8  A    between atoms: C_18  and  C_20
REMARK                            x       y       z     vdW  Elec       q    Type
REMARK                         _______ _______ _______ _____ _____    ______ ____
ROOT
ATOM      1  C   UNL     1       1.225   1.819   0.000  0.00  0.00    +0.210 A 
ATOM      2  N   UNL     1      -0.017   1.397   0.010  0.00  0.00    -0.119 NA
ATOM      3  N   UNL     1       0.002  -0.004   0.002  0.00  0.00    -0.109 NA
ATOM      4  C   UNL     1       1.254  -0.392  -0.012  0.00  0.00    +0.254 A 
ATOM      5  N   UNL     1       2.043   0.725  -0.014  0.00  0.00    -0.211 N 
ATOM      6  N   UNL     1       1.701  -1.706  -0.023  0.00  0.00    -0.204 N 
ATOM      7  H   UNL     1       2.780  -1.919  -0.034  0.00  0.00    +0.178 HD
ENDROOT
BRANCH   5   8
ATOM      8  N   UNL     1       3.409   0.744  -0.027  0.00  0.00    -0.294 N 
ATOM      9  H   UNL     1       3.971  -0.201  -0.038  0.00  0.00    +0.163 HD
ATOM     10  H   UNL     1       3.945   1.704  -0.028  0.00  0.00    +0.163 HD
ENDBRANCH   5   8
BRANCH   6  11
ATOM     11  N   UNL     1       0.778  -2.760  -0.020  0.00  0.00    -0.184 NA
ATOM     12  C   UNL     1       1.196  -3.989  -0.030  0.00  0.00    +0.063 C 
ATOM     13  C   UNL     1       2.674  -4.282  -0.045  0.00  0.00    +0.068 C 
BRANCH  12  14
ATOM     14  C   UNL     1       0.225  -5.098  -0.027  0.00  0.00    -0.002 A 
ATOM     15  C   UNL     1       0.671  -6.422  -0.043  0.00  0.00    +0.011 A 
ATOM     16  C   UNL     1      -0.243  -7.454  -0.034  0.00  0.00    +0.016 A 
ATOM     17  C   UNL     1      -1.600  -7.182  -0.021  0.00  0.00    +0.018 A 
ATOM     18  C   UNL     1      -2.050  -5.872  -0.010  0.00  0.00    +0.016 A 
ATOM     19  C   UNL     1      -1.147  -4.830  -0.013  0.00  0.00    +0.011 A 
ATOM     20 BR   UNL     1      -2.846  -8.604  -0.016  0.00  0.00    -0.050 Br
ENDBRANCH  12  14
ENDBRANCH   6  11
BRANCH   1  21
ATOM     21  S   UNL     1       1.747   3.502   0.003  0.00  0.00    -0.080 S 
BRANCH  21  22
ATOM     22  C   UNL     1       0.196   4.442   0.023  0.00  0.00    +0.112 C 
BRANCH  22  27
ATOM     23  C   UNL     1       1.372  10.100   0.039  0.00  0.00    +0.044 C 
ATOM     24  C   UNL     1       1.065   8.625   0.035  0.00  0.00    -0.050 A 
ATOM     25  C   UNL     1       0.913   7.954  -1.164  0.00  0.00    +0.003 A 
ATOM     26  C   UNL     1       0.632   6.600  -1.168  0.00  0.00    +0.005 A 
ATOM     27  C   UNL     1       0.502   5.918   0.027  0.00  0.00    -0.037 A 
ATOM     28  C   UNL     1       0.649   6.590   1.226  0.00  0.00    +0.005 A 
ATOM     29  C   UNL     1       0.935   7.942   1.230  0.00  0.00    +0.003 A 
ENDBRANCH  22  27
ENDBRANCH  21  22
ENDBRANCH   1  21
TORSDOF 6
