REMARK  Name = ZINC67051375
REMARK  7 active torsions:
REMARK  status: ('A' for Active; 'I' for Inactive)
REMARK    1  A    between atoms: C_1  and  N_2
REMARK    2  A    between atoms: C_3  and  C_8
REMARK    3  A    between atoms: C_8  and  C_9
REMARK    4  A    between atoms: C_9  and  N_10
REMARK    5  A    between atoms: C_11  and  C_13
REMARK    6  A    between atoms: C_18  and  S_19
REMARK    7  A    between atoms: S_19  and  C_22
REMARK                            x       y       z     vdW  Elec       q    Type
REMARK                         _______ _______ _______ _____ _____    ______ ____
ROOT
ATOM      1  N   UNL     1      -0.912   6.631  -0.621  0.00  0.00    -0.311 N 
ATOM      2  C   UNL     1      -0.851   7.878  -1.129  0.00  0.00    +0.247 C 
ATOM      3  O   UNL     1      -1.225   8.090  -2.266  0.00  0.00    -0.270 OA
ATOM      4  H   UNL     1      -0.614   6.462   0.286  0.00  0.00    +0.149 HD
ENDROOT
BRANCH   2   5
ATOM      5  C   UNL     1      -0.331   8.988  -0.303  0.00  0.00    +0.080 A 
ATOM      6  C   UNL     1      -0.845   9.225   0.978  0.00  0.00    +0.018 A 
ATOM      7  C   UNL     1      -0.323  10.276   1.710  0.00  0.00    +0.021 A 
ATOM      8  C   UNL     1       0.681  11.053   1.159  0.00  0.00    +0.113 A 
ATOM      9  N   UNL     1       1.146  10.807  -0.051  0.00  0.00    -0.236 NA
ATOM     10  C   UNL     1       0.685   9.815  -0.784  0.00  0.00    +0.198 A 
BRANCH  10  11
ATOM     11  S   UNL     1       1.353   9.533  -2.390  0.00  0.00    +0.109 S 
ATOM     12  O   UNL     1       2.678  10.044  -2.327  0.00  0.00    -0.160 OA
ATOM     13  O   UNL     1       1.120   8.154  -2.643  0.00  0.00    -0.160 OA
BRANCH  11  14
ATOM     14  C   UNL     1       0.343  10.551  -3.501  0.00  0.00    +0.528 C 
ATOM     15  F   UNL     1       0.447  11.895  -3.125  0.00  0.00    -0.150 F 
ATOM     16  F   UNL     1       0.796  10.398  -4.816  0.00  0.00    -0.150 F 
ATOM     17  F   UNL     1      -0.994  10.146  -3.418  0.00  0.00    -0.150 F 
ENDBRANCH  11  14
ENDBRANCH  10  11
ENDBRANCH   2   5
BRANCH   1  18
ATOM     18  C   UNL     1      -1.428   5.531  -1.440  0.00  0.00    +0.112 C 
BRANCH  18  19
ATOM     19  C   UNL     1      -1.389   4.233  -0.632  0.00  0.00    +0.095 C 
BRANCH  19  22
ATOM     20  C   UNL     1      -1.657   1.261   0.239  0.00  0.00    +0.152 C 
ATOM     21  N   UNL     1      -2.032   1.792  -1.074  0.00  0.00    -0.310 N 
ATOM     22  C   UNL     1      -1.920   3.101  -1.474  0.00  0.00    +0.133 A 
ATOM     23  N   UNL     1      -2.345   3.204  -2.692  0.00  0.00    -0.159 NA
ATOM     24  N   UNL     1      -2.752   1.933  -3.120  0.00  0.00    -0.254 N 
ATOM     25  C   UNL     1      -2.541   1.078  -2.098  0.00  0.00    +0.175 A 
ATOM     26  S   UNL     1      -2.864  -0.603  -2.099  0.00  0.00    -0.011 S 
ATOM     27  H   UNL     1      -3.115   1.709  -3.992  0.00  0.00    +0.191 HD
ENDBRANCH  19  22
ENDBRANCH  18  19
ENDBRANCH   1  18
TORSDOF 6
