REMARK  Name = ZINC13328536
REMARK  4 active torsions:
REMARK  status: ('A' for Active; 'I' for Inactive)
REMARK    1  A    between atoms: C_1  and  C_2
REMARK    2  A    between atoms: C_13  and  O_19
REMARK    3  A    between atoms: C_15  and  C_17
REMARK    4  A    between atoms: C_17  and  O_18
REMARK                            x       y       z     vdW  Elec       q    Type
REMARK                         _______ _______ _______ _____ _____    ______ ____
ROOT
ATOM      1  C   UNL     1       2.848   3.644  -0.450  0.00  0.00    +0.011 C 
ATOM      2  C   UNL     1       1.410   3.135  -0.332  0.00  0.00    +0.028 C 
ATOM      3  C   UNL     1       0.676   3.382  -1.650  0.00  0.00    +0.235 C 
ATOM      4  O   UNL     1      -0.694   2.906  -1.509  0.00  0.00    -0.464 OA
ATOM      5  C   UNL     1      -0.797   1.599  -1.161  0.00  0.00    +0.311 C 
ATOM      6  O   UNL     1      -1.518   0.853  -1.780  0.00  0.00    -0.251 OA
ATOM      7  C   UNL     1      -0.013   1.086   0.008  0.00  0.00    +0.109 C 
ATOM      8  C   UNL     1       1.428   1.640  -0.003  0.00  0.00    +0.012 C 
ATOM      9  C   UNL     1       1.884   1.494   1.470  0.00  0.00    +0.036 C 
ATOM     10  C   UNL     1       0.604   1.485   2.325  0.00  0.00    +0.121 C 
ATOM     11  C   UNL     1      -0.583   1.605   1.344  0.00  0.00    +0.057 C 
ENDROOT
BRANCH  10  12
ATOM     12  O   UNL     1       0.513   0.262   3.057  0.00  0.00    -0.391 OA
ATOM     13  H   UNL     1       1.242   0.118   3.675  0.00  0.00    +0.210 HD
ENDBRANCH  10  12
BRANCH  11  14
ATOM     14  C   UNL     1      -1.751   0.730   1.805  0.00  0.00    +0.162 C 
BRANCH  14  15
ATOM     15  O   UNL     1      -2.335   1.297   2.979  0.00  0.00    -0.395 OA
ATOM     16  H   UNL     1      -3.083   0.793   3.328  0.00  0.00    +0.209 HD
ENDBRANCH  14  15
ENDBRANCH  11  14
TORSDOF 3
