REMARK  Name = ZINC02763812
REMARK  9 active torsions:
REMARK  status: ('A' for Active; 'I' for Inactive)
REMARK    1  A    between atoms: C_1  and  C_2
REMARK    2  A    between atoms: C_4  and  C_27
REMARK    3  A    between atoms: N_5  and  C_7
REMARK    4  A    between atoms: C_7  and  C_8
REMARK    5  A    between atoms: C_11  and  C_13
REMARK    6  A    between atoms: N_15  and  C_16
REMARK    7  A    between atoms: C_19  and  S_22
REMARK    8  A    between atoms: S_22  and  N_25
REMARK    9  A    between atoms: N_25  and  C_26
REMARK                            x       y       z     vdW  Elec       q    Type
REMARK                         _______ _______ _______ _____ _____    ______ ____
ROOT
ATOM      1  C   UNL     1       2.477   1.487  -0.012  0.00  0.00    +0.284 C 
ATOM      2  O   UNL     1       2.759   0.303  -0.012  0.00  0.00    -0.266 OA
ATOM      3  N   UNL     1       3.456   2.414  -0.018  0.00  0.00    -0.279 N 
ATOM      4  H   UNL     1       3.233   3.355  -0.085  0.00  0.00    +0.155 HD
ENDROOT
BRANCH   3   5
ATOM      5  C   UNL     1       4.794   2.017   0.073  0.00  0.00    +0.034 A 
ATOM      6  C   UNL     1       5.708   2.805   0.760  0.00  0.00    +0.025 A 
ATOM      7  C   UNL     1       7.028   2.408   0.852  0.00  0.00    +0.030 A 
ATOM      8  C   UNL     1       7.441   1.233   0.252  0.00  0.00    +0.105 A 
ATOM      9  C   UNL     1       6.535   0.449  -0.438  0.00  0.00    +0.030 A 
ATOM     10  C   UNL     1       5.213   0.838  -0.529  0.00  0.00    +0.025 A 
BRANCH   8  11
ATOM     11  S   UNL     1       9.127   0.734   0.366  0.00  0.00    +0.058 S 
ATOM     12  O   UNL     1       9.659   1.360   1.526  0.00  0.00    -0.153 OA
ATOM     13  O   UNL     1       9.146  -0.676   0.186  0.00  0.00    -0.153 OA
BRANCH  11  14
ATOM     14  N   UNL     1       9.921   1.388  -0.931  0.00  0.00    -0.193 NA
ATOM     15  C   UNL     1      10.052   2.842  -1.053  0.00  0.00    +0.127 C 
ATOM     16  H   UNL     1      10.300   0.808  -1.611  0.00  0.00    +0.148 HD
ENDBRANCH  11  14
ENDBRANCH   8  11
ENDBRANCH   3   5
BRANCH   1  20
ATOM     17  C   UNL     1      -0.716   3.178   0.003  0.00  0.00    +0.127 A 
ATOM     18  C   UNL     1      -1.150   1.899   0.002  0.00  0.00    +0.047 A 
ATOM     19  C   UNL     1      -0.013   1.076   0.002  0.00  0.00    +0.055 A 
ATOM     20  C   UNL     1       1.072   1.906  -0.004  0.00  0.00    +0.190 A 
ATOM     21  O   UNL     1       0.624   3.179  -0.004  0.00  0.00    -0.453 OA
BRANCH  17  22
ATOM     22  C   UNL     1      -1.593   4.403   0.005  0.00  0.00    +0.217 C 
BRANCH  22  27
ATOM     23  C   UNL     1      -3.814   4.752   4.493  0.00  0.00    +0.067 C 
ATOM     24  C   UNL     1      -2.859   4.940   3.343  0.00  0.00    +0.060 A 
ATOM     25  C   UNL     1      -1.724   5.757   3.345  0.00  0.00    +0.047 A 
ATOM     26  C   UNL     1      -1.135   5.654   2.131  0.00  0.00    +0.037 A 
ATOM     27  N   UNL     1      -1.871   4.802   1.387  0.00  0.00    -0.261 N 
ATOM     28  N   UNL     1      -2.951   4.372   2.168  0.00  0.00    -0.176 NA
ATOM     29  C   UNL     1       0.119   6.364   1.689  0.00  0.00    +0.065 C 
ENDBRANCH  22  27
ENDBRANCH  17  22
ENDBRANCH   1  20
TORSDOF 6
