REMARK  Name = ZINC40825283
REMARK  9 active torsions:
REMARK  status: ('A' for Active; 'I' for Inactive)
REMARK    1  A    between atoms: C_1  and  C_2
REMARK    2  A    between atoms: C_6  and  C_7
REMARK    3  A    between atoms: N_9  and  N_10
REMARK    4  A    between atoms: C_11  and  C_13
REMARK    5  A    between atoms: C_18  and  N_19
REMARK    6  A    between atoms: N_26  and  N_27
REMARK    7  A    between atoms: N_27  and  C_28
REMARK    8  A    between atoms: C_28  and  N_30
REMARK    9  A    between atoms: N_30  and  C_31
REMARK                            x       y       z     vdW  Elec       q    Type
REMARK                         _______ _______ _______ _____ _____    ______ ____
ROOT
ATOM      1  C   UNL     1       2.420  -0.401  -0.263  0.00  0.00    +0.048 C 
ATOM      2  C   UNL     1       1.967  -1.818  -0.018  0.00  0.00    +0.009 A 
ATOM      3  C   UNL     1       1.587  -2.757  -0.985  0.00  0.00    +0.042 A 
ATOM      4  C   UNL     1       1.248  -3.914  -0.324  0.00  0.00    +0.115 A 
ATOM      5  O   UNL     1       1.411  -3.707   0.980  0.00  0.00    -0.454 OA
ATOM      6  C   UNL     1       1.851  -2.445   1.191  0.00  0.00    +0.194 A 
ATOM      7  C   UNL     1       0.778  -5.158  -1.036  0.00  0.00    +0.075 C 
ATOM      8  C   UNL     1       0.263  -4.783  -2.428  0.00  0.00    +0.014 C 
ATOM      9  C   UNL     1       1.313  -3.969  -3.192  0.00  0.00    +0.058 C 
ATOM     10  C   UNL     1       1.521  -2.652  -2.459  0.00  0.00    +0.070 C 
ATOM     11  N   UNL     1       1.632  -1.519  -3.082  0.00  0.00    -0.185 NA
ENDROOT
BRANCH   6  12
ATOM     12  C   UNL     1       2.150  -1.848   2.498  0.00  0.00    +0.296 C 
ATOM     13  O   UNL     1       2.538  -0.697   2.567  0.00  0.00    -0.265 OA
ATOM     14  N   UNL     1       1.993  -2.575   3.622  0.00  0.00    -0.228 N 
ATOM     15  H   UNL     1       1.683  -3.493   3.567  0.00  0.00    +0.173 HD
BRANCH  14  16
ATOM     16  N   UNL     1       2.279  -2.006   4.870  0.00  0.00    -0.230 N 
ATOM     17  C   UNL     1       2.123  -2.733   5.994  0.00  0.00    +0.262 C 
ATOM     18  O   UNL     1       1.734  -3.883   5.925  0.00  0.00    -0.269 OA
ATOM     19  H   UNL     1       2.588  -1.088   4.925  0.00  0.00    +0.173 HD
BRANCH  17  20
ATOM     20  C   UNL     1       2.424  -2.132   7.311  0.00  0.00    +0.068 A 
ATOM     21  C   UNL     1       3.676  -1.564   7.552  0.00  0.00    +0.015 A 
ATOM     22  C   UNL     1       3.950  -1.005   8.783  0.00  0.00    +0.001 A 
ATOM     23  C   UNL     1       2.987  -1.006   9.777  0.00  0.00    +0.002 A 
ATOM     24  C   UNL     1       1.744  -1.567   9.544  0.00  0.00    +0.033 A 
ATOM     25  C   UNL     1       1.455  -2.125   8.316  0.00  0.00    +0.138 A 
BRANCH  25  26
ATOM     26  N   UNL     1       0.123  -2.720   8.066  0.00  0.00    +0.057 N 
ATOM     27  O   UNL     1      -0.669  -2.830   8.973  0.00  0.00    -0.126 OA
ATOM     28  O   UNL     1      -0.173  -3.096   6.956  0.00  0.00    -0.126 OA
ENDBRANCH  25  26
ENDBRANCH  17  20
ENDBRANCH  14  16
ENDBRANCH   6  12
BRANCH  11  29
ATOM     29  N   UNL     1       1.562  -1.479  -4.481  0.00  0.00    -0.218 N 
ATOM     30  H   UNL     1       1.431  -2.298  -4.984  0.00  0.00    +0.176 HD
BRANCH  29  31
ATOM     31  C   UNL     1       1.677  -0.302  -5.127  0.00  0.00    +0.154 C 
ATOM     32  S   UNL     1       1.592  -0.252  -6.837  0.00  0.00    -0.017 S 
BRANCH  31  33
ATOM     33  N   UNL     1       1.860   0.836  -4.428  0.00  0.00    -0.296 N 
ATOM     34  H   UNL     1       1.992   0.800  -3.468  0.00  0.00    +0.154 HD
BRANCH  33  35
ATOM     35  C   UNL     1       1.859   2.070  -5.088  0.00  0.00    +0.033 A 
ATOM     36  C   UNL     1       0.942   2.316  -6.102  0.00  0.00    +0.023 A 
ATOM     37  C   UNL     1       0.944   3.535  -6.751  0.00  0.00    +0.002 A 
ATOM     38  C   UNL     1       1.857   4.510  -6.392  0.00  0.00    +0.000 A 
ATOM     39  C   UNL     1       2.771   4.268  -5.383  0.00  0.00    +0.002 A 
ATOM     40  C   UNL     1       2.771   3.053  -4.726  0.00  0.00    +0.023 A 
ENDBRANCH  33  35
ENDBRANCH  31  33
ENDBRANCH  29  31
ENDBRANCH  11  29
TORSDOF 8
