REMARK  Name = ZINC22122629
REMARK  6 active torsions:
REMARK  status: ('A' for Active; 'I' for Inactive)
REMARK    1  A    between atoms: C_1  and  C_2
REMARK    2  A    between atoms: C_6  and  S_10
REMARK    3  A    between atoms: C_7  and  C_8
REMARK    4  A    between atoms: S_10  and  C_11
REMARK    5  A    between atoms: C_11  and  C_12
REMARK    6  A    between atoms: C_11  and  C_13
REMARK                            x       y       z     vdW  Elec       q    Type
REMARK                         _______ _______ _______ _____ _____    ______ ____
ROOT
ATOM      1  C   UNL     1       0.079  -4.793   2.061  0.00  0.00    +0.116 C 
ATOM      2  C   UNL     1       1.387  -5.068   1.316  0.00  0.00    +0.027 C 
ENDROOT
BRANCH   1   3
ATOM      3  C   UNL     1      -0.026  -5.715   3.248  0.00  0.00    +0.123 A 
ATOM      4  N   UNL     1      -0.714  -6.878   3.102  0.00  0.00    -0.309 N 
ATOM      5  H   UNL     1      -1.120  -7.091   2.248  0.00  0.00    +0.170 HD
ATOM      6  C   UNL     1      -0.837  -7.740   4.138  0.00  0.00    +0.259 A 
ATOM      7  O   UNL     1      -1.450  -8.786   4.021  0.00  0.00    -0.267 OA
ATOM      8  C   UNL     1      -0.201  -7.366   5.410  0.00  0.00    +0.065 A 
ATOM      9  C   UNL     1      -0.269  -8.183   6.536  0.00  0.00    +0.015 A 
ATOM     10  C   UNL     1       0.345  -7.783   7.703  0.00  0.00    +0.001 A 
ATOM     11  C   UNL     1       1.028  -6.575   7.763  0.00  0.00    +0.002 A 
ATOM     12  C   UNL     1       1.107  -5.753   6.662  0.00  0.00    +0.028 A 
ATOM     13  C   UNL     1       0.493  -6.137   5.468  0.00  0.00    +0.078 A 
ATOM     14  N   UNL     1       0.550  -5.361   4.356  0.00  0.00    -0.233 NA
ENDBRANCH   1   3
BRANCH   1  15
ATOM     15  S   UNL     1       0.058  -3.071   2.630  0.00  0.00    -0.094 S 
BRANCH  15  21
ATOM     16  C   UNL     1      -0.018   1.503   0.010  0.00  0.00    +0.045 C 
ATOM     17  C   UNL     1       0.002  -0.004   0.002  0.00  0.00    -0.026 A 
ATOM     18  C   UNL     1       0.006  -0.705  -1.193  0.00  0.00    -0.022 A 
ATOM     19  C   UNL     1       0.026  -2.088  -1.176  0.00  0.00    +0.046 A 
ATOM     20  N   UNL     1       0.041  -2.749  -0.028  0.00  0.00    -0.244 NA
ATOM     21  C   UNL     1       0.038  -2.130   1.140  0.00  0.00    +0.115 A 
ATOM     22  C   UNL     1       0.023  -0.725   1.200  0.00  0.00    +0.087 A 
ATOM     23  C   UNL     1       0.027  -2.613  -2.598  0.00  0.00    +0.056 C 
ATOM     24  C   UNL     1      -0.435  -1.426  -3.468  0.00  0.00    +0.011 C 
ATOM     25  C   UNL     1      -0.008  -0.208  -2.622  0.00  0.00    +0.037 C 
BRANCH  22  26
ATOM     26  C   UNL     1       0.026  -0.046   2.462  0.00  0.00    +0.102 C 
ATOM     27  N   UNL     1       0.028   0.491   3.462  0.00  0.00    -0.191 NA
ENDBRANCH  22  26
ENDBRANCH  15  21
ENDBRANCH   1  15
TORSDOF 4
