REMARK  Name = ZINC39685973
REMARK  9 active torsions:
REMARK  status: ('A' for Active; 'I' for Inactive)
REMARK    1  A    between atoms: C_1  and  C_2
REMARK    2  A    between atoms: C_2  and  O_3
REMARK    3  A    between atoms: O_3  and  C_4
REMARK    4  A    between atoms: C_7  and  C_10
REMARK    5  A    between atoms: C_14  and  C_23
REMARK    6  A    between atoms: N_25  and  C_26
REMARK    7  A    between atoms: C_32  and  C_34
REMARK    8  A    between atoms: C_34  and  C_35
REMARK    9  A    between atoms: C_34  and  C_36
REMARK                            x       y       z     vdW  Elec       q    Type
REMARK                         _______ _______ _______ _____ _____    ______ ____
ROOT
ATOM      1  C   UNL     1       1.223  -7.406  -1.980  0.00  0.00    +0.247 C 
ATOM      2  O   UNL     1       0.971  -8.187  -1.083  0.00  0.00    -0.270 OA
ATOM      3  N   UNL     1       1.831  -7.842  -3.101  0.00  0.00    -0.296 N 
ATOM      4  C   UNL     1       2.325  -7.032  -4.240  0.00  0.00    +0.121 C 
ATOM      5  C   UNL     1       3.658  -7.700  -4.644  0.00  0.00    +0.100 C 
ATOM      6  C   UNL     1       3.541  -9.148  -4.140  0.00  0.00    -0.004 C 
ATOM      7  C   UNL     1       2.162  -9.239  -3.471  0.00  0.00    +0.115 C 
ATOM      8  C   UNL     1       4.636  -9.443  -3.120  0.00  0.00    -0.010 C 
ATOM      9  C   UNL     1       4.533 -10.905  -2.677  0.00  0.00    -0.082 C 
ATOM     10  N   UNL     1       4.675 -11.784  -3.845  0.00  0.00    +0.379 N 
ATOM     11  C   UNL     1       3.565 -11.558  -4.778  0.00  0.00    -0.082 C 
ATOM     12  C   UNL     1       3.626 -10.123  -5.310  0.00  0.00    -0.010 C 
ATOM     13  H   UNL     1       5.548 -11.586  -4.309  0.00  0.00    -0.086 HD
ATOM     14  H   UNL     1       4.668 -12.746  -3.542  0.00  0.00    -0.086 HD
ENDROOT
BRANCH   1  18
ATOM     15  C   UNL     1       0.189  -3.307  -1.581  0.00  0.00    +0.121 A 
ATOM     16  C   UNL     1       0.403  -3.848  -2.843  0.00  0.00    +0.046 A 
ATOM     17  C   UNL     1       0.738  -5.177  -2.977  0.00  0.00    +0.016 A 
ATOM     18  C   UNL     1       0.864  -5.981  -1.841  0.00  0.00    +0.037 A 
ATOM     19  C   UNL     1       0.648  -5.433  -0.574  0.00  0.00    +0.016 A 
ATOM     20  C   UNL     1       0.317  -4.102  -0.449  0.00  0.00    +0.046 A 
BRANCH  15  21
ATOM     21  O   UNL     1      -0.142  -1.997  -1.453  0.00  0.00    -0.492 OA
BRANCH  21  23
ATOM     22  C   UNL     1      -0.634   0.206  -2.316  0.00  0.00    +0.048 C 
ATOM     23  C   UNL     1      -0.258  -1.237  -2.658  0.00  0.00    +0.225 C 
ENDBRANCH  21  23
ENDBRANCH  15  21
ENDBRANCH   1  18
BRANCH   5  24
ATOM     24  C   UNL     1       4.817  -7.003  -3.978  0.00  0.00    +0.218 C 
ATOM     25  O   UNL     1       4.668  -6.482  -2.893  0.00  0.00    -0.275 OA
ATOM     26  N   UNL     1       6.017  -6.958  -4.589  0.00  0.00    -0.312 N 
ATOM     27  H   UNL     1       6.136  -7.375  -5.457  0.00  0.00    +0.149 HD
BRANCH  26  28
ATOM     28  C   UNL     1       7.144  -6.280  -3.942  0.00  0.00    +0.076 C 
ATOM     29  C   UNL     1       7.833  -7.247  -2.975  0.00  0.00    +0.041 C 
ATOM     30  C   UNL     1       8.988  -6.524  -2.275  0.00  0.00    +0.109 C 
ATOM     31  N   UNL     1       9.878  -5.955  -3.296  0.00  0.00    -0.301 N 
ATOM     32  C   UNL     1       9.301  -5.083  -4.329  0.00  0.00    +0.109 C 
ATOM     33  C   UNL     1       8.143  -5.822  -5.006  0.00  0.00    +0.041 C 
ATOM     34  C   UNL     1      11.198  -6.226  -3.285  0.00  0.00    +0.218 C 
ATOM     35  O   UNL     1      11.679  -6.862  -2.371  0.00  0.00    -0.275 OA
BRANCH  34  36
ATOM     36  C   UNL     1      12.077  -5.739  -4.409  0.00  0.00    +0.069 C 
ATOM     37  C   UNL     1      12.305  -4.233  -4.262  0.00  0.00    +0.017 C 
ATOM     38  C   UNL     1      13.422  -6.466  -4.356  0.00  0.00    +0.017 C 
ENDBRANCH  34  36
ENDBRANCH  26  28
ENDBRANCH   5  24
TORSDOF 6
