REMARK  Name = ZINC39654279
REMARK  7 active torsions:
REMARK  status: ('A' for Active; 'I' for Inactive)
REMARK    1  A    between atoms: C_1  and  C_2
REMARK    2  A    between atoms: C_2  and  C_3
REMARK    3  A    between atoms: C_6  and  C_9
REMARK    4  A    between atoms: C_9  and  C_10
REMARK    5  A    between atoms: C_10  and  N_11
REMARK    6  A    between atoms: C_12  and  C_14
REMARK    7  A    between atoms: C_25  and  C_27
REMARK                            x       y       z     vdW  Elec       q    Type
REMARK                         _______ _______ _______ _____ _____    ______ ____
ROOT
ATOM      1  C   UNL     1      -9.949  -0.747  -0.510  0.00  0.00    +0.100 C 
ATOM      2  C   UNL     1     -10.458  -1.673  -1.637  0.00  0.00    +0.121 C 
ATOM      3  N   UNL     1     -11.882  -1.300  -1.813  0.00  0.00    -0.296 N 
ATOM      4  C   UNL     1     -11.897   0.175  -1.672  0.00  0.00    +0.115 C 
ATOM      5  C   UNL     1     -10.895   0.465  -0.536  0.00  0.00    -0.004 C 
ATOM      6  C   UNL     1     -11.629   0.592   0.795  0.00  0.00    -0.010 C 
ATOM      7  C   UNL     1     -12.521   1.836   0.765  0.00  0.00    -0.082 C 
ATOM      8  N   UNL     1     -11.695   3.026   0.523  0.00  0.00    +0.379 N 
ATOM      9  C   UNL     1     -11.066   2.938  -0.800  0.00  0.00    -0.082 C 
ATOM     10  C   UNL     1     -10.113   1.740  -0.836  0.00  0.00    -0.010 C 
ATOM     11  C   UNL     1     -12.927  -2.118  -2.047  0.00  0.00    +0.247 C 
ATOM     12  O   UNL     1     -12.776  -3.324  -2.010  0.00  0.00    -0.270 OA
ATOM     13  H   UNL     1     -12.276   3.850   0.564  0.00  0.00    -0.086 HD
ATOM     14  H   UNL     1     -10.979   3.087   1.231  0.00  0.00    -0.086 HD
ENDROOT
BRANCH  11  15
ATOM     15  C   UNL     1     -14.258  -1.549  -2.351  0.00  0.00    +0.042 A 
ATOM     16  C   UNL     1     -14.369  -0.239  -2.818  0.00  0.00    +0.051 A 
ATOM     17  C   UNL     1     -15.615   0.288  -3.100  0.00  0.00    +0.127 A 
ATOM     18  C   UNL     1     -16.752  -0.483  -2.920  0.00  0.00    +0.076 A 
ATOM     19  C   UNL     1     -16.648  -1.784  -2.457  0.00  0.00    +0.127 A 
ATOM     20  C   UNL     1     -15.406  -2.323  -2.177  0.00  0.00    +0.051 A 
ATOM     21  F   UNL     1     -17.761  -2.530  -2.284  0.00  0.00    -0.205 F 
ATOM     22  F   UNL     1     -15.725   1.556  -3.551  0.00  0.00    -0.205 F 
ENDBRANCH  11  15
BRANCH   1  24
ATOM     23  N   UNL     1      -7.697  -0.045   0.235  0.00  0.00    -0.315 N 
ATOM     24  C   UNL     1      -8.532  -0.313  -0.788  0.00  0.00    +0.218 C 
ATOM     25  O   UNL     1      -8.145  -0.204  -1.932  0.00  0.00    -0.275 OA
ATOM     26  H   UNL     1      -8.007  -0.132   1.150  0.00  0.00    +0.149 HD
BRANCH  23  27
ATOM     27  C   UNL     1      -6.320   0.376  -0.035  0.00  0.00    +0.109 C 
BRANCH  27  28
ATOM     28  C   UNL     1      -5.590   0.614   1.289  0.00  0.00    +0.054 C 
BRANCH  28  32
ATOM     29  C   UNL     1      -1.576   1.844   0.504  0.00  0.00    -0.048 A 
ATOM     30  C   UNL     1      -2.578   2.789   0.619  0.00  0.00    +0.004 A 
ATOM     31  C   UNL     1      -3.877   2.391   0.873  0.00  0.00    +0.004 A 
ATOM     32  C   UNL     1      -4.174   1.048   1.011  0.00  0.00    -0.046 A 
ATOM     33  C   UNL     1      -3.172   0.103   0.895  0.00  0.00    +0.004 A 
ATOM     34  C   UNL     1      -1.873   0.501   0.637  0.00  0.00    +0.004 A 
BRANCH  29  36
ATOM     35  C   UNL     1       0.069   2.340  -1.284  0.00  0.00    +0.009 C 
ATOM     36  C   UNL     1      -0.159   2.278   0.227  0.00  0.00    +0.032 C 
ENDBRANCH  29  36
ENDBRANCH  28  32
ENDBRANCH  27  28
ENDBRANCH  23  27
ENDBRANCH   1  24
TORSDOF 6
