REMARK  Name = ZINC39687940
REMARK  6 active torsions:
REMARK  status: ('A' for Active; 'I' for Inactive)
REMARK    1  A    between atoms: C_1  and  C_2
REMARK    2  A    between atoms: C_7  and  N_10
REMARK    3  A    between atoms: C_11  and  C_13
REMARK    4  A    between atoms: C_24  and  C_26
REMARK    5  A    between atoms: C_29  and  O_32
REMARK    6  A    between atoms: O_32  and  C_33
REMARK                            x       y       z     vdW  Elec       q    Type
REMARK                         _______ _______ _______ _____ _____    ______ ____
ROOT
ATOM      1  C   UNL     1       2.604  -3.783  -6.144  0.00  0.00    +0.100 C 
ATOM      2  C   UNL     1       3.125  -2.915  -7.311  0.00  0.00    +0.121 C 
ATOM      3  N   UNL     1       3.500  -3.888  -8.363  0.00  0.00    -0.296 N 
ATOM      4  C   UNL     1       2.438  -4.921  -8.305  0.00  0.00    +0.115 C 
ATOM      5  C   UNL     1       2.154  -5.098  -6.800  0.00  0.00    -0.004 C 
ATOM      6  C   UNL     1       0.663  -5.321  -6.568  0.00  0.00    -0.010 C 
ATOM      7  C   UNL     1       0.250  -6.663  -7.179  0.00  0.00    -0.082 C 
ATOM      8  N   UNL     1       1.029  -7.744  -6.562  0.00  0.00    +0.379 N 
ATOM      9  C   UNL     1       2.454  -7.573  -6.869  0.00  0.00    -0.082 C 
ATOM     10  C   UNL     1       2.959  -6.269  -6.244  0.00  0.00    -0.010 C 
ATOM     11  C   UNL     1       4.565  -3.845  -9.187  0.00  0.00    +0.247 C 
ATOM     12  O   UNL     1       5.422  -2.997  -9.029  0.00  0.00    -0.270 OA
ATOM     13  H   UNL     1       0.897  -7.723  -5.561  0.00  0.00    -0.086 HD
ATOM     14  H   UNL     1       0.713  -8.632  -6.921  0.00  0.00    -0.086 HD
ENDROOT
BRANCH  11  15
ATOM     15  C   UNL     1       4.692  -4.826 -10.283  0.00  0.00    +0.037 A 
ATOM     16  C   UNL     1       3.563  -5.502 -10.751  0.00  0.00    +0.016 A 
ATOM     17  C   UNL     1       3.685  -6.417 -11.774  0.00  0.00    +0.047 A 
ATOM     18  C   UNL     1       4.930  -6.668 -12.338  0.00  0.00    +0.130 A 
ATOM     19  C   UNL     1       6.056  -5.998 -11.875  0.00  0.00    +0.047 A 
ATOM     20  C   UNL     1       5.941  -5.078 -10.857  0.00  0.00    +0.016 A 
BRANCH  18  21
ATOM     21  O   UNL     1       5.047  -7.571 -13.345  0.00  0.00    -0.406 OA
BRANCH  21  22
ATOM     22  C   UNL     1       6.355  -7.781 -13.880  0.00  0.00    +0.575 C 
ATOM     23  F   UNL     1       7.206  -8.236 -12.866  0.00  0.00    -0.133 F 
ATOM     24  F   UNL     1       6.294  -8.736 -14.901  0.00  0.00    -0.133 F 
ATOM     25  F   UNL     1       6.847  -6.577 -14.396  0.00  0.00    -0.133 F 
ENDBRANCH  21  22
ENDBRANCH  18  21
ENDBRANCH  11  15
BRANCH   1  27
ATOM     26  N   UNL     1       1.215  -3.308  -4.153  0.00  0.00    -0.312 N 
ATOM     27  C   UNL     1       1.439  -3.108  -5.467  0.00  0.00    +0.218 C 
ATOM     28  O   UNL     1       0.704  -2.385  -6.104  0.00  0.00    -0.275 OA
ATOM     29  H   UNL     1       1.803  -3.887  -3.643  0.00  0.00    +0.149 HD
BRANCH  26  36
ATOM     30  C   UNL     1      -2.504  -2.634   0.800  0.00  0.00    +0.109 C 
ATOM     31  C   UNL     1      -2.855  -2.927  -0.636  0.00  0.00    +0.212 C 
ATOM     32  O   UNL     1      -3.873  -3.530  -0.901  0.00  0.00    -0.276 OA
ATOM     33  N   UNL     1      -2.037  -2.518  -1.627  0.00  0.00    -0.302 N 
ATOM     34  C   UNL     1      -0.797  -1.791  -1.321  0.00  0.00    +0.109 C 
ATOM     35  C   UNL     1       0.374  -2.509  -2.000  0.00  0.00    +0.041 C 
ATOM     36  C   UNL     1       0.082  -2.652  -3.495  0.00  0.00    +0.076 C 
ATOM     37  C   UNL     1      -1.180  -3.496  -3.691  0.00  0.00    +0.041 C 
ATOM     38  C   UNL     1      -2.366  -2.795  -3.031  0.00  0.00    +0.109 C 
ENDBRANCH  26  36
ENDBRANCH   1  27
TORSDOF 5
