REMARK  Name = ZINC13051077
REMARK  8 active torsions:
REMARK  status: ('A' for Active; 'I' for Inactive)
REMARK    1  A    between atoms: C_1  and  C_2
REMARK    2  A    between atoms: C_2  and  C_4
REMARK    3  A    between atoms: C_2  and  O_28
REMARK    4  A    between atoms: C_4  and  N_5
REMARK    5  A    between atoms: C_11  and  C_26
REMARK    6  A    between atoms: C_15  and  S_16
REMARK    7  A    between atoms: S_16  and  C_17
REMARK    8  A    between atoms: C_17  and  C_18
REMARK                            x       y       z     vdW  Elec       q    Type
REMARK                         _______ _______ _______ _____ _____    ______ ____
ROOT
ATOM      1  N   UNL     1       1.173   2.110   0.002  0.00  0.00    -0.285 N 
ATOM      2  C   UNL     1      -0.018   1.467   0.010  0.00  0.00    +0.262 A 
ATOM      3  O   UNL     1      -1.067   2.084   0.018  0.00  0.00    -0.267 OA
ATOM      4  C   UNL     1       0.002  -0.004   0.002  0.00  0.00    +0.065 A 
ATOM      5  C   UNL     1      -1.175  -0.752   0.010  0.00  0.00    +0.016 A 
ATOM      6  C   UNL     1      -1.114  -2.116   0.003  0.00  0.00    +0.016 A 
ATOM      7  C   UNL     1       0.123  -2.775  -0.013  0.00  0.00    +0.065 A 
ATOM      8  C   UNL     1       1.307  -2.049  -0.021  0.00  0.00    +0.043 A 
ATOM      9  C   UNL     1       1.258  -0.652  -0.013  0.00  0.00    +0.080 A 
ATOM     10  N   UNL     1       2.386   0.095  -0.020  0.00  0.00    -0.223 NA
ATOM     11  C   UNL     1       2.342   1.405  -0.013  0.00  0.00    +0.173 A 
ENDROOT
BRANCH   7  12
ATOM     12  C   UNL     1       0.167  -4.254  -0.021  0.00  0.00    +0.387 C 
ATOM     13  O   UNL     1       1.236  -4.829  -0.034  0.00  0.00    -0.241 OA
ATOM     14  O   UNL     1      -0.979  -4.962  -0.013  0.00  0.00    -0.241 OA
ENDBRANCH   7  12
BRANCH   1  15
ATOM     15  C   UNL     1       1.208   3.575   0.009  0.00  0.00    +0.158 C 
BRANCH  15  17
ATOM     16  C   UNL     1       1.145   5.604   1.464  0.00  0.00    +0.039 C 
ATOM     17  C   UNL     1       1.234   4.077   1.454  0.00  0.00    +0.131 C 
BRANCH  17  18
ATOM     18  O   UNL     1       2.451   3.667   2.080  0.00  0.00    -0.390 OA
ATOM     19  H   UNL     1       3.248   4.002   1.647  0.00  0.00    +0.210 HD
ENDBRANCH  17  18
ENDBRANCH  15  17
ENDBRANCH   1  15
BRANCH  11  20
ATOM     20  S   UNL     1       3.861   2.297  -0.023  0.00  0.00    -0.083 S 
BRANCH  20  21
ATOM     21  C   UNL     1       5.035   0.919  -0.042  0.00  0.00    +0.114 C 
BRANCH  21  22
ATOM     22  C   UNL     1       6.442   1.458  -0.053  0.00  0.00    -0.019 A 
ATOM     23  C   UNL     1       7.099   1.698   1.139  0.00  0.00    +0.007 A 
ATOM     24  C   UNL     1       8.390   2.192   1.129  0.00  0.00    +0.020 A 
ATOM     25  C   UNL     1       9.025   2.446  -0.073  0.00  0.00    +0.042 A 
ATOM     26  C   UNL     1       8.368   2.205  -1.266  0.00  0.00    +0.040 A 
ATOM     27  C   UNL     1       7.078   1.706  -1.256  0.00  0.00    +0.046 A 
ATOM     28 CL   UNL     1       6.255   1.397  -2.753  0.00  0.00    -0.083 Cl
ATOM     29 CL   UNL     1      10.646   3.066  -0.085  0.00  0.00    -0.083 Cl
ENDBRANCH  21  22
ENDBRANCH  20  21
ENDBRANCH  11  20
TORSDOF 7
