REMARK  Name = ZINC17365248
REMARK  6 active torsions:
REMARK  status: ('A' for Active; 'I' for Inactive)
REMARK    1  A    between atoms: C_1  and  C_2
REMARK    2  A    between atoms: C_5  and  C_8
REMARK    3  A    between atoms: C_12  and  C_13
REMARK    4  A    between atoms: N_15  and  C_16
REMARK    5  A    between atoms: C_19  and  S_22
REMARK    6  A    between atoms: S_22  and  N_25
REMARK                            x       y       z     vdW  Elec       q    Type
REMARK                         _______ _______ _______ _____ _____    ______ ____
ROOT
ATOM      1  C   UNL     1      -7.028   4.229   3.990  0.00  0.00    +0.034 A 
ATOM      2  C   UNL     1      -5.866   4.498   4.701  0.00  0.00    +0.025 A 
ATOM      3  C   UNL     1      -4.658   4.587   4.037  0.00  0.00    +0.031 A 
ATOM      4  C   UNL     1      -4.605   4.409   2.667  0.00  0.00    +0.113 A 
ATOM      5  C   UNL     1      -5.762   4.146   1.956  0.00  0.00    +0.031 A 
ATOM      6  C   UNL     1      -6.972   4.051   2.614  0.00  0.00    +0.025 A 
ENDROOT
BRANCH   1   9
ATOM      7  C   UNL     1      -9.380   4.575   4.063  0.00  0.00    +0.255 C 
ATOM      8  O   UNL     1      -9.346   4.970   2.911  0.00  0.00    -0.269 OA
ATOM      9  N   UNL     1      -8.253   4.139   4.659  0.00  0.00    -0.281 N 
ATOM     10  H   UNL     1      -8.291   3.762   5.552  0.00  0.00    +0.155 HD
BRANCH   7  15
ATOM     11  C   UNL     1     -11.911   4.986   4.374  0.00  0.00    +0.001 A 
ATOM     12  C   UNL     1     -12.940   4.868   5.292  0.00  0.00    +0.017 A 
ATOM     13  C   UNL     1     -12.671   4.383   6.528  0.00  0.00    +0.046 A 
ATOM     14  S   UNL     1     -10.970   4.057   6.474  0.00  0.00    -0.091 S 
ATOM     15  C   UNL     1     -10.644   4.575   4.799  0.00  0.00    +0.082 A 
BRANCH  11  20
ATOM     16  C   UNL     1     -12.807   7.051  -0.925  0.00  0.00    +0.044 C 
ATOM     17  C   UNL     1     -12.572   6.510   0.462  0.00  0.00    -0.050 A 
ATOM     18  C   UNL     1     -13.387   5.508   0.958  0.00  0.00    +0.004 A 
ATOM     19  C   UNL     1     -13.178   5.009   2.227  0.00  0.00    +0.009 A 
ATOM     20  C   UNL     1     -12.142   5.517   3.010  0.00  0.00    -0.017 A 
ATOM     21  C   UNL     1     -11.327   6.531   2.507  0.00  0.00    +0.009 A 
ATOM     22  C   UNL     1     -11.543   7.018   1.234  0.00  0.00    +0.004 A 
ENDBRANCH  11  20
ENDBRANCH   7  15
ENDBRANCH   1   9
BRANCH   4  23
ATOM     23  S   UNL     1      -3.062   4.523   1.824  0.00  0.00    +0.100 S 
ATOM     24  O   UNL     1      -2.213   5.321   2.638  0.00  0.00    -0.146 OA
ATOM     25  O   UNL     1      -3.360   4.857   0.475  0.00  0.00    -0.146 OA
BRANCH  23  26
ATOM     26  N   UNL     1      -2.403   3.004   1.801  0.00  0.00    -0.118 NA
ATOM     27  C   UNL     1      -1.257   2.804   1.236  0.00  0.00    +0.117 C 
ATOM     28  C   UNL     1      -0.548   3.956   0.613  0.00  0.00    +0.073 C 
ATOM     29  C   UNL     1      -0.878   4.031  -0.894  0.00  0.00    +0.008 C 
ATOM     30  C   UNL     1      -0.251   2.903  -1.618  0.00  0.00    +0.002 C 
ATOM     31  C   UNL     1      -0.763   1.530  -1.210  0.00  0.00    +0.019 C 
ATOM     32  C   UNL     1      -0.029   1.035   0.013  0.00  0.00    +0.102 C 
ATOM     33  N   UNL     1      -0.722   1.525   1.228  0.00  0.00    -0.331 N 
ATOM     34  H   UNL     1      -0.802   0.956   2.010  0.00  0.00    +0.147 HD
ENDBRANCH  23  26
ENDBRANCH   4  23
TORSDOF 5
