REMARK  Name = ZINC60339772
REMARK  12 active torsions:
REMARK  status: ('A' for Active; 'I' for Inactive)
REMARK    1  A    between atoms: C_1  and  C_2
REMARK    2  A    between atoms: C_2  and  C_3
REMARK    3  A    between atoms: C_2  and  C_4
REMARK    4  A    between atoms: C_2  and  O_5
REMARK    5  A    between atoms: O_5  and  C_6
REMARK    6  A    between atoms: N_8  and  C_9
REMARK    7  A    between atoms: N_8  and  C_10
REMARK    8  A    between atoms: C_10  and  C_11
REMARK    9  A    between atoms: N_16  and  C_18
REMARK   10  A    between atoms: C_18  and  C_19
REMARK   11  A    between atoms: N_21  and  C_22
REMARK   12  A    between atoms: C_22  and  C_27
REMARK                            x       y       z     vdW  Elec       q    Type
REMARK                         _______ _______ _______ _____ _____    ______ ____
ROOT
ATOM      1  C   UNL     1       9.855  -2.310  -1.946  0.00  0.00    +0.197 C 
ATOM      2  O   UNL     1       9.167  -3.166  -1.432  0.00  0.00    -0.278 OA
ATOM      3  N   UNL     1      11.198  -2.376  -1.846  0.00  0.00    -0.307 N 
ATOM      4  H   UNL     1      11.751  -1.732  -2.317  0.00  0.00    +0.149 HD
ENDROOT
BRANCH   3   5
ATOM      5  C   UNL     1      11.822  -3.417  -1.027  0.00  0.00    +0.060 C 
ATOM      6  C   UNL     1      13.339  -3.161  -0.912  0.00  0.00    +0.030 C 
ATOM      7  C   UNL     1      13.495  -2.395   0.425  0.00  0.00    +0.002 C 
ATOM      8  C   UNL     1      12.453  -3.087   1.339  0.00  0.00    +0.002 C 
ATOM      9  C   UNL     1      11.258  -3.370   0.404  0.00  0.00    +0.030 C 
BRANCH   5  10
ATOM     10  C   UNL     1      11.570  -4.772  -1.636  0.00  0.00    -0.020 A 
ATOM     11  C   UNL     1      11.684  -5.910  -0.859  0.00  0.00    +0.009 A 
ATOM     12  C   UNL     1      11.456  -7.155  -1.415  0.00  0.00    +0.050 A 
ATOM     13  C   UNL     1      11.112  -7.266  -2.754  0.00  0.00    +0.162 A 
ATOM     14  C   UNL     1      10.995  -6.122  -3.534  0.00  0.00    +0.162 A 
ATOM     15  C   UNL     1      11.222  -4.875  -2.970  0.00  0.00    +0.055 A 
ATOM     16  O   UNL     1      10.651  -6.207  -4.848  0.00  0.00    -0.485 OA
ATOM     17  C   UNL     1      10.791  -7.490  -5.468  0.00  0.00    +0.270 C 
ATOM     18  C   UNL     1      10.186  -8.545  -4.532  0.00  0.00    +0.270 C 
ATOM     19  O   UNL     1      10.894  -8.498  -3.288  0.00  0.00    -0.485 OA
ENDBRANCH   5  10
ENDBRANCH   3   5
BRANCH   1  20
ATOM     20  C   UNL     1       9.210  -1.174  -2.696  0.00  0.00    +0.019 C 
BRANCH  20  25
ATOM     21  C   UNL     1       5.612  -0.506  -3.528  0.00  0.00    -0.010 C 
ATOM     22  C   UNL     1       5.059  -0.411  -2.103  0.00  0.00    +0.001 C 
ATOM     23  C   UNL     1       5.769  -1.443  -1.221  0.00  0.00    -0.018 C 
ATOM     24  C   UNL     1       7.279  -1.200  -1.276  0.00  0.00    -0.078 C 
ATOM     25  N   UNL     1       7.749  -1.331  -2.660  0.00  0.00    +0.386 N 
ATOM     26  C   UNL     1       7.127  -0.298  -3.498  0.00  0.00    -0.073 C 
ATOM     27  H   UNL     1       7.502  -2.243  -3.014  0.00  0.00    -0.081 HD
BRANCH  21  28
ATOM     28  C   UNL     1       4.965   0.574  -4.399  0.00  0.00    +0.112 C 
BRANCH  28  31
ATOM     29  C   UNL     1       2.668   0.830  -3.630  0.00  0.00    +0.403 C 
ATOM     30  O   UNL     1       3.081   1.524  -2.721  0.00  0.00    -0.226 OA
ATOM     31  N   UNL     1       3.530   0.307  -4.523  0.00  0.00    -0.270 N 
ATOM     32  C   UNL     1       3.033  -0.529  -5.619  0.00  0.00    +0.135 C 
BRANCH  29  33
ATOM     33  O   UNL     1       1.349   0.585  -3.744  0.00  0.00    -0.445 OA
BRANCH  33  35
ATOM     34  C   UNL     1       0.633   2.695  -2.807  0.00  0.00    +0.055 C 
ATOM     35  C   UNL     1       0.493   1.172  -2.761  0.00  0.00    +0.107 C 
ATOM     36  C   UNL     1       0.887   0.664  -1.373  0.00  0.00    +0.055 C 
ATOM     37  C   UNL     1      -0.958   0.785  -3.053  0.00  0.00    +0.055 C 
ENDBRANCH  33  35
ENDBRANCH  29  33
ENDBRANCH  28  31
ENDBRANCH  21  28
ENDBRANCH  20  25
ENDBRANCH   1  20
TORSDOF 8
