REMARK  Name = ZINC04488413
REMARK  12 active torsions:
REMARK  status: ('A' for Active; 'I' for Inactive)
REMARK    1  A    between atoms: C_1  and  C_2
REMARK    2  A    between atoms: C_2  and  O_3
REMARK    3  A    between atoms: O_3  and  C_4
REMARK    4  A    between atoms: C_7  and  S_11
REMARK    5  A    between atoms: C_9  and  C_10
REMARK    6  A    between atoms: S_11  and  N_14
REMARK    7  A    between atoms: C_17  and  C_20
REMARK    8  A    between atoms: N_22  and  C_23
REMARK    9  A    between atoms: C_23  and  C_25
REMARK   10  A    between atoms: C_23  and  C_26
REMARK   11  A    between atoms: C_26  and  O_27
REMARK   12  A    between atoms: O_27  and  C_28
REMARK                            x       y       z     vdW  Elec       q    Type
REMARK                         _______ _______ _______ _____ _____    ______ ____
ROOT
ATOM      1  N   UNL     1       0.086  -5.030   1.557  0.00  0.00    -0.177 NA
ATOM      2  C   UNL     1       1.360  -5.243   2.257  0.00  0.00    +0.110 C 
ATOM      3  C   UNL     1       1.347  -4.423   3.556  0.00  0.00    +0.030 C 
ATOM      4  C   UNL     1       0.110  -4.796   4.376  0.00  0.00    +0.077 C 
ATOM      5  C   UNL     1      -1.153  -4.457   3.580  0.00  0.00    +0.030 C 
ATOM      6  C   UNL     1      -1.169  -5.272   2.283  0.00  0.00    +0.110 C 
ENDROOT
BRANCH   4   7
ATOM      7  C   UNL     1       0.112  -4.021   5.668  0.00  0.00    +0.216 C 
ATOM      8  O   UNL     1      -0.806  -3.271   5.928  0.00  0.00    -0.276 OA
ATOM      9  N   UNL     1       1.133  -4.161   6.536  0.00  0.00    -0.310 N 
ATOM     10  H   UNL     1       1.867  -4.760   6.329  0.00  0.00    +0.149 HD
BRANCH   9  11
ATOM     11  C   UNL     1       1.136  -3.408   7.793  0.00  0.00    +0.095 C 
ATOM     12  C   UNL     1       1.724  -2.016   7.552  0.00  0.00    +0.030 C 
BRANCH  11  13
ATOM     13  C   UNL     1       1.984  -4.147   8.829  0.00  0.00    +0.181 C 
BRANCH  13  14
ATOM     14  O   UNL     1       3.347  -4.171   8.401  0.00  0.00    -0.381 OA
ATOM     15  C   UNL     1       4.228  -4.842   9.303  0.00  0.00    +0.194 C 
ENDBRANCH  13  14
ENDBRANCH  11  13
ENDBRANCH   9  11
ENDBRANCH   4   7
BRANCH   1  16
ATOM     16  S   UNL     1       0.064  -4.532  -0.022  0.00  0.00    +0.061 S 
ATOM     17  O   UNL     1      -1.181  -4.952  -0.563  0.00  0.00    -0.153 OA
ATOM     18  O   UNL     1       1.309  -4.918  -0.587  0.00  0.00    -0.153 OA
BRANCH  16  22
ATOM     19  C   UNL     1       0.002  -0.004   0.002  0.00  0.00    +0.123 A 
ATOM     20  C   UNL     1       1.212  -0.683  -0.013  0.00  0.00    +0.048 A 
ATOM     21  C   UNL     1       1.228  -2.064  -0.021  0.00  0.00    +0.032 A 
ATOM     22  C   UNL     1       0.040  -2.770  -0.013  0.00  0.00    +0.106 A 
ATOM     23  C   UNL     1      -1.167  -2.096   0.002  0.00  0.00    +0.035 A 
ATOM     24  C   UNL     1      -1.189  -0.715   0.015  0.00  0.00    -0.007 A 
ATOM     25  C   UNL     1      -2.505   0.019   0.038  0.00  0.00    +0.047 C 
BRANCH  19  26
ATOM     26  O   UNL     1      -0.016   1.355   0.009  0.00  0.00    -0.492 OA
BRANCH  26  28
ATOM     27  C   UNL     1       1.027   3.535   0.011  0.00  0.00    +0.048 C 
ATOM     28  C   UNL     1       1.248   2.021   0.001  0.00  0.00    +0.225 C 
ENDBRANCH  26  28
ENDBRANCH  19  26
ENDBRANCH  16  22
ENDBRANCH   1  16
TORSDOF 8
