REMARK  Name = ZINC49421244
REMARK  7 active torsions:
REMARK  status: ('A' for Active; 'I' for Inactive)
REMARK    1  A    between atoms: C_1  and  C_2
REMARK    2  A    between atoms: C_2  and  C_3
REMARK    3  A    between atoms: C_3  and  C_5
REMARK    4  A    between atoms: C_3  and  N_6
REMARK    5  A    between atoms: C_7  and  C_9
REMARK    6  A    between atoms: C_23  and  C_26
REMARK    7  A    between atoms: C_29  and  C_32
REMARK                            x       y       z     vdW  Elec       q    Type
REMARK                         _______ _______ _______ _____ _____    ______ ____
ROOT
ATOM      1  C   UNL     1      -0.544   0.485  -4.876  0.00  0.00    +0.092 C 
ATOM      2  C   UNL     1      -1.454  -0.689  -5.243  0.00  0.00    +0.016 C 
ATOM      3  C   UNL     1      -2.139  -0.408  -6.583  0.00  0.00    +0.020 C 
ATOM      4  C   UNL     1      -1.074  -0.261  -7.675  0.00  0.00    +0.108 C 
ATOM      5  N   UNL     1      -0.111   0.768  -7.261  0.00  0.00    -0.300 N 
ATOM      6  C   UNL     1       0.538   0.643  -5.949  0.00  0.00    +0.120 C 
ATOM      7  C   UNL     1       0.178   1.828  -8.085  0.00  0.00    +0.199 A 
ATOM      8  N   UNL     1       1.166   2.694  -7.716  0.00  0.00    -0.294 N 
ATOM      9  C   UNL     1       1.465   3.745  -8.517  0.00  0.00    +0.267 A 
ATOM     10  O   UNL     1       2.344   4.534  -8.213  0.00  0.00    -0.267 OA
ATOM     11  C   UNL     1       0.740   3.899  -9.698  0.00  0.00    +0.103 A 
ATOM     12  C   UNL     1      -0.271   2.993 -10.052  0.00  0.00    +0.094 A 
ATOM     13  N   UNL     1      -0.502   1.964  -9.194  0.00  0.00    -0.215 NA
ATOM     14  C   UNL     1      -0.908   3.324 -11.316  0.00  0.00    +0.015 A 
ATOM     15  C   UNL     1      -0.475   4.422 -11.984  0.00  0.00    +0.056 A 
ATOM     16  S   UNL     1       0.749   5.064 -11.031  0.00  0.00    -0.089 S 
ATOM     17  H   UNL     1       1.651   2.557  -6.887  0.00  0.00    +0.172 HD
ENDROOT
BRANCH  14  18
ATOM     18  C   UNL     1      -2.002   2.483 -11.860  0.00  0.00    -0.015 A 
ATOM     19  C   UNL     1      -1.845   1.100 -11.944  0.00  0.00    +0.009 A 
ATOM     20  C   UNL     1      -2.867   0.323 -12.451  0.00  0.00    +0.004 A 
ATOM     21  C   UNL     1      -4.044   0.913 -12.875  0.00  0.00    -0.050 A 
ATOM     22  C   UNL     1      -4.204   2.285 -12.794  0.00  0.00    +0.004 A 
ATOM     23  C   UNL     1      -3.192   3.072 -12.283  0.00  0.00    +0.009 A 
ATOM     24  C   UNL     1      -5.155   0.059 -13.428  0.00  0.00    +0.044 C 
ENDBRANCH  14  18
BRANCH   1  26
ATOM     25  N   UNL     1      -0.659   0.048  -2.445  0.00  0.00    -0.312 N 
ATOM     26  C   UNL     1       0.104   0.222  -3.542  0.00  0.00    +0.218 C 
ATOM     27  O   UNL     1       1.312   0.166  -3.455  0.00  0.00    -0.275 OA
ATOM     28  H   UNL     1      -1.626   0.092  -2.514  0.00  0.00    +0.149 HD
BRANCH  25  29
ATOM     29  C   UNL     1      -0.029  -0.209  -1.147  0.00  0.00    +0.070 C 
ATOM     30  C   UNL     1       0.258  -1.705  -1.006  0.00  0.00    +0.028 C 
BRANCH  29  32
ATOM     31  C   UNL     1      -1.156   1.756  -0.092  0.00  0.00    +0.005 C 
ATOM     32  C   UNL     1      -0.969   0.238  -0.026  0.00  0.00    +0.018 C 
ENDBRANCH  29  32
ENDBRANCH  25  29
ENDBRANCH   1  26
TORSDOF 4
