REMARK  Name = ZINC09504052
REMARK  8 active torsions:
REMARK  status: ('A' for Active; 'I' for Inactive)
REMARK    1  A    between atoms: C_1  and  C_2
REMARK    2  A    between atoms: C_2  and  N_49
REMARK    3  A    between atoms: C_3  and  C_4
REMARK    4  A    between atoms: C_3  and  N_49
REMARK    5  A    between atoms: C_10  and  C_15
REMARK    6  A    between atoms: C_20  and  C_21
REMARK    7  A    between atoms: C_20  and  N_49
REMARK    8  A    between atoms: N_23  and  C_24
REMARK                            x       y       z     vdW  Elec       q    Type
REMARK                         _______ _______ _______ _____ _____    ______ ____
ROOT
ATOM      1  C   UNL     1      -3.636   2.127  -0.324  0.00  0.00    -0.003 C 
ENDROOT
BRANCH   1   2
ATOM      2  C   UNL     1      -4.766   1.217  -0.732  0.00  0.00    +0.094 A 
ATOM      3  N   UNL     1      -5.947   1.757  -1.127  0.00  0.00    -0.312 N 
ATOM      4  H   UNL     1      -6.048   2.722  -1.142  0.00  0.00    +0.170 HD
ATOM      5  C   UNL     1      -6.980   0.981  -1.504  0.00  0.00    +0.260 A 
ATOM      6  O   UNL     1      -8.033   1.481  -1.861  0.00  0.00    -0.267 OA
ATOM      7  C   UNL     1      -6.825  -0.442  -1.474  0.00  0.00    +0.083 A 
ATOM      8  C   UNL     1      -7.785  -1.482  -1.825  0.00  0.00    +0.039 A 
ATOM      9  C   UNL     1      -7.407  -2.781  -1.716  0.00  0.00    +0.059 A 
ATOM     10  S   UNL     1      -5.727  -2.674  -1.131  0.00  0.00    -0.076 S 
ATOM     11  C   UNL     1      -5.571  -0.908  -1.047  0.00  0.00    +0.116 A 
ATOM     12  N   UNL     1      -4.594  -0.077  -0.694  0.00  0.00    -0.229 NA
BRANCH   8  13
ATOM     13  C   UNL     1      -9.142  -1.129  -2.290  0.00  0.00    +0.136 A 
ATOM     14  C   UNL     1      -9.753  -1.608  -3.407  0.00  0.00    +0.050 A 
ATOM     15  C   UNL     1     -11.030  -1.010  -3.459  0.00  0.00    +0.042 A 
ATOM     16  C   UNL     1     -11.130  -0.199  -2.389  0.00  0.00    +0.196 A 
ATOM     17  O   UNL     1      -9.987  -0.273  -1.684  0.00  0.00    -0.463 OA
ENDBRANCH   8  13
ENDBRANCH   1   2
BRANCH   1  18
ATOM     18  N   UNL     1      -2.437   1.304  -0.056  0.00  0.00    +0.390 N 
ATOM     19  H   UNL     1      -2.330   0.616  -0.811  0.00  0.00    -0.081 HD
BRANCH  18  21
ATOM     20  C   UNL     1      -2.831   1.577   2.369  0.00  0.00    -0.017 C 
ATOM     21  C   UNL     1      -2.593   0.587   1.227  0.00  0.00    -0.081 C 
ENDBRANCH  18  21
BRANCH  18  22
ATOM     22  C   UNL     1      -1.235   2.162  -0.013  0.00  0.00    +0.019 C 
BRANCH  22  23
ATOM     23  C   UNL     1      -0.012   1.282   0.039  0.00  0.00    +0.201 C 
ATOM     24  O   UNL     1      -0.133   0.076   0.057  0.00  0.00    -0.278 OA
ATOM     25  N   UNL     1       1.216   1.837   0.061  0.00  0.00    -0.286 N 
ATOM     26  H   UNL     1       1.316   2.799  -0.015  0.00  0.00    +0.155 HD
BRANCH  25  27
ATOM     27  C   UNL     1       2.349   1.024   0.193  0.00  0.00    +0.053 A 
ATOM     28  C   UNL     1       2.370  -0.238  -0.384  0.00  0.00    +0.044 A 
ATOM     29  C   UNL     1       3.491  -1.036  -0.256  0.00  0.00    +0.043 A 
ATOM     30  C   UNL     1       4.588  -0.582   0.454  0.00  0.00    +0.021 A 
ATOM     31  C   UNL     1       4.569   0.673   1.034  0.00  0.00    +0.023 A 
ATOM     32  C   UNL     1       3.452   1.478   0.906  0.00  0.00    +0.062 A 
ATOM     33 CL   UNL     1       3.428   3.053   1.634  0.00  0.00    -0.082 Cl
ATOM     34 CL   UNL     1       3.521  -2.613  -0.983  0.00  0.00    -0.083 Cl
ENDBRANCH  25  27
ENDBRANCH  22  23
ENDBRANCH  18  22
ENDBRANCH   1  18
TORSDOF 7
