REMARK  Name = ZINC09309938
REMARK  8 active torsions:
REMARK  status: ('A' for Active; 'I' for Inactive)
REMARK    1  A    between atoms: C_1  and  C_2
REMARK    2  A    between atoms: C_2  and  C_3
REMARK    3  A    between atoms: C_9  and  S_19
REMARK    4  A    between atoms: N_10  and  C_13
REMARK    5  A    between atoms: S_19  and  C_20
REMARK    6  A    between atoms: C_20  and  C_21
REMARK    7  A    between atoms: N_23  and  C_24
REMARK    8  A    between atoms: C_27  and  N_30
REMARK                            x       y       z     vdW  Elec       q    Type
REMARK                         _______ _______ _______ _____ _____    ______ ____
ROOT
ATOM      1  C   UNL     1       8.368   2.595   0.091  0.00  0.00    -0.008 A 
ATOM      2  C   UNL     1       7.356   1.718   0.159  0.00  0.00    +0.026 A 
ATOM      3  C   UNL     1       5.989   2.205   0.096  0.00  0.00    +0.073 A 
ATOM      4  C   UNL     1       5.862   3.601  -0.035  0.00  0.00    +0.116 A 
ATOM      5  S   UNL     1       7.544   4.168  -0.065  0.00  0.00    -0.073 S 
ATOM      6  N   UNL     1       4.678   4.198  -0.105  0.00  0.00    -0.216 NA
ATOM      7  C   UNL     1       3.564   3.497  -0.055  0.00  0.00    +0.178 A 
ATOM      8  N   UNL     1       3.596   2.136   0.070  0.00  0.00    -0.255 N 
ATOM      9  C   UNL     1       4.763   1.471   0.152  0.00  0.00    +0.267 A 
ATOM     10  O   UNL     1       4.775   0.258   0.269  0.00  0.00    -0.267 OA
ENDROOT
BRANCH   8  11
ATOM     11  C   UNL     1       2.392   1.421   0.120  0.00  0.00    +0.052 A 
ATOM     12  C   UNL     1       2.000   0.800   1.298  0.00  0.00    +0.026 A 
ATOM     13  C   UNL     1       0.812   0.097   1.344  0.00  0.00    +0.002 A 
ATOM     14  C   UNL     1       0.014   0.011   0.218  0.00  0.00    +0.000 A 
ATOM     15  C   UNL     1       0.402   0.629  -0.957  0.00  0.00    +0.002 A 
ATOM     16  C   UNL     1       1.588   1.334  -1.009  0.00  0.00    +0.026 A 
ENDBRANCH   8  11
BRANCH   1  18
ATOM     17  C   UNL     1      10.369   2.091  -1.284  0.00  0.00    +0.009 C 
ATOM     18  C   UNL     1       9.849   2.317   0.137  0.00  0.00    +0.039 C 
ENDBRANCH   1  18
BRANCH   7  19
ATOM     19  S   UNL     1       2.011   4.325  -0.152  0.00  0.00    -0.078 S 
BRANCH  19  20
ATOM     20  C   UNL     1       2.577   6.037  -0.302  0.00  0.00    +0.173 C 
BRANCH  20  21
ATOM     21  C   UNL     1       1.384   6.953  -0.402  0.00  0.00    +0.227 C 
ATOM     22  O   UNL     1       0.263   6.494  -0.374  0.00  0.00    -0.275 OA
ATOM     23  N   UNL     1       1.565   8.284  -0.521  0.00  0.00    -0.285 N 
ATOM     24  H   UNL     1       2.460   8.646  -0.613  0.00  0.00    +0.155 HD
BRANCH  23  25
ATOM     25  C   UNL     1       0.460   9.143  -0.513  0.00  0.00    +0.034 A 
ATOM     26  C   UNL     1       0.480  10.308  -1.269  0.00  0.00    +0.025 A 
ATOM     27  C   UNL     1      -0.614  11.151  -1.263  0.00  0.00    +0.034 A 
ATOM     28  C   UNL     1      -1.724  10.842  -0.498  0.00  0.00    +0.126 A 
ATOM     29  C   UNL     1      -1.744   9.685   0.260  0.00  0.00    +0.034 A 
ATOM     30  C   UNL     1      -0.655   8.835   0.254  0.00  0.00    +0.025 A 
BRANCH  28  31
ATOM     31  N   UNL     1      -2.892  11.751  -0.489  0.00  0.00    +0.056 N 
ATOM     32  O   UNL     1      -3.870  11.479   0.185  0.00  0.00    -0.126 OA
ATOM     33  O   UNL     1      -2.875  12.770  -1.156  0.00  0.00    -0.126 OA
ENDBRANCH  28  31
ENDBRANCH  23  25
ENDBRANCH  20  21
ENDBRANCH  19  20
ENDBRANCH   7  19
TORSDOF 7
