REMARK  Name = ZINC39636602
REMARK  8 active torsions:
REMARK  status: ('A' for Active; 'I' for Inactive)
REMARK    1  A    between atoms: C_1  and  C_2
REMARK    2  A    between atoms: C_5  and  C_34
REMARK    3  A    between atoms: C_6  and  C_8
REMARK    4  A    between atoms: C_8  and  N_9
REMARK    5  A    between atoms: C_10  and  C_12
REMARK    6  A    between atoms: C_23  and  C_25
REMARK    7  A    between atoms: C_27  and  O_32
REMARK    8  A    between atoms: O_32  and  C_33
REMARK                            x       y       z     vdW  Elec       q    Type
REMARK                         _______ _______ _______ _____ _____    ______ ____
ROOT
ATOM      1  C   UNL     1       2.489  -4.320   4.460  0.00  0.00    +0.100 C 
ATOM      2  C   UNL     1       3.566  -3.217   4.353  0.00  0.00    +0.121 C 
ATOM      3  N   UNL     1       3.884  -2.867   5.758  0.00  0.00    -0.296 N 
ATOM      4  C   UNL     1       3.876  -4.166   6.473  0.00  0.00    +0.115 C 
ATOM      5  C   UNL     1       2.698  -4.943   5.851  0.00  0.00    -0.004 C 
ATOM      6  C   UNL     1       3.051  -6.421   5.721  0.00  0.00    -0.010 C 
ATOM      7  C   UNL     1       3.197  -7.032   7.117  0.00  0.00    -0.082 C 
ATOM      8  N   UNL     1       1.939  -6.872   7.857  0.00  0.00    +0.379 N 
ATOM      9  C   UNL     1       1.655  -5.446   8.059  0.00  0.00    -0.082 C 
ATOM     10  C   UNL     1       1.444  -4.768   6.702  0.00  0.00    -0.010 C 
ATOM     11  C   UNL     1       4.126  -1.644   6.269  0.00  0.00    +0.248 C 
ATOM     12  O   UNL     1       4.470  -1.527   7.430  0.00  0.00    -0.270 OA
ATOM     13  H   UNL     1       1.186  -7.292   7.333  0.00  0.00    -0.086 HD
ATOM     14  H   UNL     1       2.017  -7.328   8.754  0.00  0.00    -0.086 HD
ENDROOT
BRANCH  11  15
ATOM     15  C   UNL     1       3.975  -0.444   5.420  0.00  0.00    +0.054 A 
ATOM     16  C   UNL     1       4.320  -0.494   4.069  0.00  0.00    +0.059 A 
ATOM     17  C   UNL     1       4.175   0.633   3.279  0.00  0.00    +0.121 A 
ATOM     18  C   UNL     1       3.687   1.811   3.830  0.00  0.00    +0.047 A 
ATOM     19  C   UNL     1       3.344   1.863   5.168  0.00  0.00    +0.019 A 
ATOM     20  C   UNL     1       3.479   0.743   5.965  0.00  0.00    +0.030 A 
ATOM     21 BR   UNL     1       3.002   0.818   7.793  0.00  0.00    -0.050 Br
BRANCH  17  22
ATOM     22  O   UNL     1       4.511   0.588   1.963  0.00  0.00    -0.495 OA
ATOM     23  C   UNL     1       4.336   1.788   1.207  0.00  0.00    +0.277 C 
ENDBRANCH  17  22
ENDBRANCH  11  15
BRANCH   1  25
ATOM     24  N   UNL     1       0.089  -4.457   3.878  0.00  0.00    -0.311 N 
ATOM     25  C   UNL     1       1.111  -3.720   4.356  0.00  0.00    +0.218 C 
ATOM     26  O   UNL     1       0.921  -2.573   4.702  0.00  0.00    -0.275 OA
ATOM     27  H   UNL     1       0.241  -5.374   3.601  0.00  0.00    +0.149 HD
BRANCH  24  28
ATOM     28  C   UNL     1      -1.251  -3.873   3.776  0.00  0.00    +0.139 C 
BRANCH  28  34
ATOM     29  C   UNL     1      -3.808  -5.755  -0.092  0.00  0.00    +0.044 C 
ATOM     30  C   UNL     1      -3.428  -5.797   1.366  0.00  0.00    -0.050 A 
ATOM     31  C   UNL     1      -3.953  -6.776   2.189  0.00  0.00    +0.003 A 
ATOM     32  C   UNL     1      -3.604  -6.814   3.526  0.00  0.00    +0.004 A 
ATOM     33  C   UNL     1      -2.730  -5.875   4.040  0.00  0.00    -0.046 A 
ATOM     34  C   UNL     1      -2.204  -4.897   3.216  0.00  0.00    -0.027 A 
ATOM     35  C   UNL     1      -2.549  -4.861   1.878  0.00  0.00    +0.008 A 
ATOM     36  C   UNL     1      -2.350  -5.917   5.498  0.00  0.00    +0.044 C 
ENDBRANCH  28  34
ENDBRANCH  24  28
ENDBRANCH   1  25
TORSDOF 5
