REMARK  Name = ZINC36050674
REMARK  12 active torsions:
REMARK  status: ('A' for Active; 'I' for Inactive)
REMARK    1  A    between atoms: C_1  and  C_2
REMARK    2  A    between atoms: C_2  and  C_3
REMARK    3  A    between atoms: C_3  and  C_5
REMARK    4  A    between atoms: C_3  and  N_6
REMARK    5  A    between atoms: N_6  and  C_7
REMARK    6  A    between atoms: C_9  and  C_10
REMARK    7  A    between atoms: C_15  and  C_31
REMARK    8  A    between atoms: C_16  and  C_27
REMARK    9  A    between atoms: C_17  and  C_20
REMARK   10  A    between atoms: C_25  and  C_26
REMARK   11  A    between atoms: C_27  and  O_29
REMARK   12  A    between atoms: O_29  and  C_30
REMARK                            x       y       z     vdW  Elec       q    Type
REMARK                         _______ _______ _______ _____ _____    ______ ____
ROOT
ATOM      1  C   UNL     1      -6.198  -0.024   2.802  0.00  0.00    +0.048 C 
ATOM      2  C   UNL     1      -7.106   0.229   3.770  0.00  0.00    +0.072 C 
ATOM      3  S   UNL     1      -8.641   0.134   2.870  0.00  0.00    -0.060 S 
ATOM      4  C   UNL     1      -8.025  -0.217   1.348  0.00  0.00    +0.166 C 
ATOM      5  N   UNL     1      -8.621  -0.420   0.191  0.00  0.00    -0.230 NA
ATOM      6  C   UNL     1      -7.996  -0.691  -0.943  0.00  0.00    +0.053 C 
ATOM      7  C   UNL     1      -6.618  -0.779  -0.979  0.00  0.00    +0.082 C 
ATOM      8  C   UNL     1      -5.863  -0.557   0.313  0.00  0.00    +0.150 C 
ATOM      9  N   UNL     1      -6.670  -0.254   1.525  0.00  0.00    -0.267 N 
ATOM     10  C   UNL     1      -8.793  -0.905  -2.204  0.00  0.00    +0.066 C 
ENDROOT
BRANCH   8  11
ATOM     11  C   UNL     1      -5.047  -1.793   0.592  0.00  0.00    -0.019 A 
ATOM     12  C   UNL     1      -5.662  -2.934   1.073  0.00  0.00    +0.006 A 
ATOM     13  C   UNL     1      -4.913  -4.067   1.329  0.00  0.00    +0.000 A 
ATOM     14  C   UNL     1      -3.550  -4.061   1.102  0.00  0.00    +0.000 A 
ATOM     15  C   UNL     1      -2.935  -2.921   0.620  0.00  0.00    +0.004 A 
ATOM     16  C   UNL     1      -3.684  -1.788   0.360  0.00  0.00    -0.045 A 
ATOM     17  C   UNL     1      -3.015  -0.547  -0.171  0.00  0.00    +0.044 C 
ENDBRANCH   8  11
BRANCH   1  20
ATOM     18  C   UNL     1      -4.328   0.087   4.365  0.00  0.00    +0.239 C 
ATOM     19  O   UNL     1      -5.212   0.368   5.354  0.00  0.00    -0.271 OA
ATOM     20  C   UNL     1      -4.758  -0.048   3.096  0.00  0.00    +0.091 C 
BRANCH  18  21
ATOM     21  N   UNL     1      -2.983  -0.060   4.660  0.00  0.00    -0.309 N 
ATOM     22  H   UNL     1      -2.341  -0.189   3.945  0.00  0.00    +0.149 HD
BRANCH  21  23
ATOM     23  C   UNL     1      -2.530  -0.020   6.053  0.00  0.00    +0.070 C 
ATOM     24  C   UNL     1      -2.402   1.435   6.506  0.00  0.00    +0.028 C 
BRANCH  23  26
ATOM     25  C   UNL     1      -1.323  -2.197   5.832  0.00  0.00    +0.005 C 
ATOM     26  C   UNL     1      -1.169  -0.711   6.166  0.00  0.00    +0.018 C 
ENDBRANCH  23  26
ENDBRANCH  21  23
ENDBRANCH  18  21
ENDBRANCH   1  20
BRANCH   7  27
ATOM     27  C   UNL     1      -5.942  -1.066  -2.171  0.00  0.00    +0.339 C 
ATOM     28  O   UNL     1      -6.559  -1.131  -3.220  0.00  0.00    -0.245 OA
BRANCH  27  29
ATOM     29  O   UNL     1      -4.606  -1.269  -2.159  0.00  0.00    -0.465 OA
ATOM     30  C   UNL     1      -3.982  -1.557  -3.412  0.00  0.00    +0.280 C 
ENDBRANCH  27  29
ENDBRANCH   7  27
TORSDOF 7
