REMARK  Name = ZINC06409809
REMARK  10 active torsions:
REMARK  status: ('A' for Active; 'I' for Inactive)
REMARK    1  A    between atoms: C_1  and  C_2
REMARK    2  A    between atoms: C_7  and  C_14
REMARK    3  A    between atoms: C_14  and  C_16
REMARK    4  A    between atoms: C_14  and  N_70
REMARK    5  A    between atoms: N_20  and  C_21
REMARK    6  A    between atoms: C_26  and  C_27
REMARK    7  A    between atoms: C_26  and  N_70
REMARK    8  A    between atoms: C_27  and  C_28
REMARK    9  A    between atoms: C_34  and  C_35
REMARK   10  A    between atoms: C_34  and  N_70
REMARK                            x       y       z     vdW  Elec       q    Type
REMARK                         _______ _______ _______ _____ _____    ______ ____
ROOT
ATOM      1  C   UNL     1      -1.447  -0.444   0.176  0.00  0.00    +0.039 C 
ENDROOT
BRANCH   1   8
ATOM      2  C   UNL     1      -2.610  -8.194  -1.309  0.00  0.00    +0.044 C 
ATOM      3  C   UNL     1      -2.564  -6.693  -1.180  0.00  0.00    -0.048 A 
ATOM      4  C   UNL     1      -3.450  -5.913  -1.912  0.00  0.00    +0.004 A 
ATOM      5  C   UNL     1      -3.425  -4.551  -1.809  0.00  0.00    +0.010 A 
ATOM      6  C   UNL     1      -2.501  -3.937  -0.959  0.00  0.00    -0.001 A 
ATOM      7  C   UNL     1      -2.447  -2.480  -0.825  0.00  0.00    +0.017 A 
ATOM      8  C   UNL     1      -1.529  -1.940   0.015  0.00  0.00    +0.011 A 
ATOM      9  C   UNL     1      -0.646  -2.774   0.734  0.00  0.00    +0.251 A 
ATOM     10  O   UNL     1       0.174  -2.267   1.480  0.00  0.00    -0.268 OA
ATOM     11  N   UNL     1      -0.692  -4.113   0.622  0.00  0.00    -0.322 N 
ATOM     12  H   UNL     1      -0.073  -4.657   1.134  0.00  0.00    +0.169 HD
ATOM     13  C   UNL     1      -1.602  -4.724  -0.214  0.00  0.00    +0.049 A 
ATOM     14  C   UNL     1      -1.645  -6.109  -0.336  0.00  0.00    +0.029 A 
ENDBRANCH   1   8
BRANCH   1  15
ATOM     15  C   UNL     1      -1.820  -0.069   1.587  0.00  0.00    +0.143 A 
ATOM     16  N   UNL     1      -1.082  -0.226   2.659  0.00  0.00    -0.115 NA
ATOM     17  N   UNL     1      -1.748   0.217   3.669  0.00  0.00    -0.023 NA
ATOM     18  N   UNL     1      -2.895   0.645   3.271  0.00  0.00    -0.044 NA
ATOM     19  N   UNL     1      -2.977   0.486   1.993  0.00  0.00    -0.227 N 
BRANCH  19  20
ATOM     20  C   UNL     1      -4.116   0.841   1.143  0.00  0.00    +0.111 C 
ATOM     21  C   UNL     1      -4.432   2.345   1.284  0.00  0.00    +0.027 C 
ATOM     22  C   UNL     1      -5.979   2.415   1.223  0.00  0.00    +0.002 C 
ATOM     23  C   UNL     1      -6.410   1.151   2.008  0.00  0.00    +0.002 C 
ATOM     24  C   UNL     1      -5.374   0.082   1.603  0.00  0.00    +0.027 C 
ENDBRANCH  19  20
ENDBRANCH   1  15
BRANCH   1  25
ATOM     25  N   UNL     1      -0.059  -0.007  -0.085  0.00  0.00    +0.392 N 
ATOM     26  H   UNL     1       0.563  -0.446   0.604  0.00  0.00    -0.080 HD
BRANCH  25  27
ATOM     27  C   UNL     1       0.041   1.462   0.043  0.00  0.00    -0.072 C 
BRANCH  27  28
ATOM     28  C   UNL     1      -0.974   2.151  -0.872  0.00  0.00    +0.016 C 
BRANCH  28  29
ATOM     29  C   UNL     1      -0.764   3.642  -0.822  0.00  0.00    -0.049 A 
ATOM     30  C   UNL     1      -1.443   4.404   0.111  0.00  0.00    +0.003 A 
ATOM     31  C   UNL     1      -1.246   5.772   0.160  0.00  0.00    +0.000 A 
ATOM     32  C   UNL     1      -0.380   6.378  -0.729  0.00  0.00    +0.000 A 
ATOM     33  C   UNL     1       0.295   5.617  -1.665  0.00  0.00    +0.000 A 
ATOM     34  C   UNL     1       0.103   4.249  -1.711  0.00  0.00    +0.003 A 
ENDBRANCH  28  29
ENDBRANCH  27  28
ENDBRANCH  25  27
BRANCH  25  35
ATOM     35  C   UNL     1       0.355  -0.426  -1.441  0.00  0.00    -0.034 C 
BRANCH  35  36
ATOM     36  C   UNL     1       1.855  -0.317  -1.544  0.00  0.00    -0.027 A 
ATOM     37  C   UNL     1       2.803  -1.207  -1.162  0.00  0.00    +0.009 A 
ATOM     38  C   UNL     1       4.135  -0.891  -1.356  0.00  0.00    +0.008 A 
ATOM     39  C   UNL     1       4.453   0.298  -1.922  0.00  0.00    +0.045 A 
ATOM     40  S   UNL     1       2.842   1.014  -2.207  0.00  0.00    -0.103 S 
ENDBRANCH  35  36
ENDBRANCH  25  35
ENDBRANCH   1  25
TORSDOF 9
