REMARK  Name = ZINC39949103
REMARK  11 active torsions:
REMARK  status: ('A' for Active; 'I' for Inactive)
REMARK    1  A    between atoms: C_1  and  C_2
REMARK    2  A    between atoms: C_2  and  N_3
REMARK    3  A    between atoms: N_3  and  C_4
REMARK    4  A    between atoms: N_3  and  C_6
REMARK    5  A    between atoms: C_4  and  C_5
REMARK    6  A    between atoms: C_9  and  C_12
REMARK    7  A    between atoms: C_16  and  C_24
REMARK    8  A    between atoms: C_17  and  N_18
REMARK    9  A    between atoms: N_25  and  N_26
REMARK   10  A    between atoms: C_27  and  C_28
REMARK   11  A    between atoms: C_36  and  C_38
REMARK                            x       y       z     vdW  Elec       q    Type
REMARK                         _______ _______ _______ _____ _____    ______ ____
ROOT
ATOM      1  C   UNL     1       0.425  -6.273  -1.220  0.00  0.00    +0.013 C 
ATOM      2  C   UNL     1      -0.065  -6.923  -2.303  0.00  0.00    -0.025 C 
ATOM      3  C   UNL     1      -0.482  -6.276  -3.603  0.00  0.00    +0.042 C 
ATOM      4  C   UNL     1      -0.957  -7.440  -4.490  0.00  0.00    +0.043 C 
ATOM      5  C   UNL     1      -0.782  -8.677  -3.642  0.00  0.00    -0.006 C 
ATOM      6  C   UNL     1      -0.263  -8.312  -2.405  0.00  0.00    +0.038 C 
ENDROOT
BRANCH   1  10
ATOM      7  C   UNL     1       0.498  -2.034  -1.144  0.00  0.00    +0.013 A 
ATOM      8  C   UNL     1      -0.569  -2.694  -1.730  0.00  0.00    +0.022 A 
ATOM      9  C   UNL     1      -0.600  -4.072  -1.759  0.00  0.00    +0.010 A 
ATOM     10  C   UNL     1       0.451  -4.804  -1.194  0.00  0.00    -0.025 A 
ATOM     11  C   UNL     1       1.526  -4.129  -0.604  0.00  0.00    +0.010 A 
ATOM     12  C   UNL     1       1.544  -2.751  -0.588  0.00  0.00    +0.022 A 
BRANCH   7  13
ATOM     13  N   UNL     1       0.523  -0.637  -1.119  0.00  0.00    -0.394 NA
ATOM     14  H   UNL     1       1.367  -0.323  -0.663  0.00  0.00    +0.126 HD
BRANCH  13  16
ATOM     15  C   UNL     1       1.774  -0.524  -3.221  0.00  0.00    +0.022 C 
ATOM     16  C   UNL     1       0.489  -0.122  -2.495  0.00  0.00    +0.081 C 
ENDBRANCH  13  16
BRANCH  13  17
ATOM     17  C   UNL     1      -0.646  -0.140  -0.382  0.00  0.00    +0.081 C 
ATOM     18  C   UNL     1      -0.547  -0.572   1.083  0.00  0.00    +0.022 C 
ENDBRANCH  13  17
ENDBRANCH   7  13
ENDBRANCH   1  10
BRANCH   6  19
ATOM     19  N   UNL     1       0.022  -9.205  -1.398  0.00  0.00    -0.325 N 
ATOM     20  C   UNL     1       1.071 -10.223  -1.562  0.00  0.00    +0.133 C 
ATOM     21  C   UNL     1       2.002 -10.159  -0.346  0.00  0.00    +0.178 C 
ATOM     22  O   UNL     1       1.222 -10.238   0.849  0.00  0.00    -0.377 OA
ATOM     23  C   UNL     1       0.304  -9.155   1.022  0.00  0.00    +0.178 C 
ATOM     24  C   UNL     1      -0.710  -9.165  -0.122  0.00  0.00    +0.133 C 
ENDBRANCH   6  19
BRANCH   5  25
ATOM     25  C   UNL     1      -1.084  -9.969  -4.035  0.00  0.00    +0.140 C 
ATOM     26  N   UNL     1      -1.482 -10.209  -5.282  0.00  0.00    -0.157 NA
BRANCH  26  27
ATOM     27  N   UNL     1      -1.764 -11.413  -5.649  0.00  0.00    -0.157 NA
ATOM     28  C   UNL     1      -2.160 -11.652  -6.891  0.00  0.00    +0.141 C 
BRANCH  28  29
ATOM     29  C   UNL     1      -2.464 -12.946  -7.284  0.00  0.00    +0.003 C 
ATOM     30  C   UNL     1      -2.411 -14.107  -6.498  0.00  0.00    +0.005 A 
ATOM     31  C   UNL     1      -2.060 -14.330  -5.154  0.00  0.00    +0.010 A 
ATOM     32  C   UNL     1      -2.101 -15.591  -4.645  0.00  0.00    +0.001 A 
ATOM     33  C   UNL     1      -2.485 -16.681  -5.427  0.00  0.00    +0.002 A 
ATOM     34  C   UNL     1      -2.835 -16.537  -6.731  0.00  0.00    +0.026 A 
ATOM     35  C   UNL     1      -2.816 -15.251  -7.328  0.00  0.00    +0.043 A 
ATOM     36  N   UNL     1      -3.107 -14.854  -8.553  0.00  0.00    -0.377 N 
ATOM     37  C   UNL     1      -2.928 -13.402  -8.650  0.00  0.00    +0.109 C 
ATOM     38  C   UNL     1      -4.253 -12.727  -9.009  0.00  0.00    +0.035 C 
ATOM     39  H   UNL     1      -3.398 -15.432  -9.276  0.00  0.00    +0.160 HD
ENDBRANCH  28  29
ENDBRANCH  26  27
ENDBRANCH   5  25
TORSDOF 8
