REMARK  Name = ZINC00925520
REMARK  11 active torsions:
REMARK  status: ('A' for Active; 'I' for Inactive)
REMARK    1  A    between atoms: C_1  and  C_2
REMARK    2  A    between atoms: C_7  and  S_8
REMARK    3  A    between atoms: S_8  and  N_11
REMARK    4  A    between atoms: N_11  and  C_12
REMARK    5  A    between atoms: N_11  and  C_21
REMARK    6  A    between atoms: C_12  and  C_13
REMARK    7  A    between atoms: C_16  and  O_19
REMARK    8  A    between atoms: O_19  and  C_20
REMARK    9  A    between atoms: C_21  and  C_22
REMARK   10  A    between atoms: C_25  and  C_35
REMARK   11  A    between atoms: C_27  and  C_34
REMARK                            x       y       z     vdW  Elec       q    Type
REMARK                         _______ _______ _______ _____ _____    ______ ____
ROOT
ATOM      1  N   UNL     1       3.301   1.133  -1.844  0.00  0.00    -0.168 NA
ENDROOT
BRANCH   1   2
ATOM      2  S   UNL     1       3.289   1.355  -0.203  0.00  0.00    +0.064 S 
ATOM      3  O   UNL     1       2.253   0.528   0.311  0.00  0.00    -0.153 OA
ATOM      4  O   UNL     1       3.324   2.758   0.018  0.00  0.00    -0.153 OA
BRANCH   2  11
ATOM      5  C   UNL     1       3.995  -1.539  -0.204  0.00  0.00    +0.046 C 
ATOM      6  C   UNL     1       5.041  -0.625   0.380  0.00  0.00    -0.022 A 
ATOM      7  C   UNL     1       6.227  -1.171   0.870  0.00  0.00    +0.007 A 
ATOM      8  C   UNL     1       7.200  -0.393   1.399  0.00  0.00    +0.031 A 
ATOM      9  C   UNL     1       7.022   1.013   1.475  0.00  0.00    +0.102 A 
ATOM     10  C   UNL     1       5.778   1.585   0.968  0.00  0.00    +0.126 A 
ATOM     11  C   UNL     1       4.805   0.708   0.421  0.00  0.00    +0.136 A 
ATOM     12  N   UNL     1       5.745   2.909   1.101  0.00  0.00    -0.189 NA
ATOM     13  S   UNL     1       7.103   3.315   1.771  0.00  0.00    +0.117 S 
ATOM     14  N   UNL     1       7.841   1.946   1.957  0.00  0.00    -0.191 NA
ENDBRANCH   2  11
ENDBRANCH   1   2
BRANCH   1  15
ATOM     15  C   UNL     1       3.998   2.091  -2.707  0.00  0.00    +0.145 C 
BRANCH  15  16
ATOM     16  C   UNL     1       5.391   1.590  -2.990  0.00  0.00    -0.031 A 
ATOM     17  C   UNL     1       6.435   1.943  -2.155  0.00  0.00    +0.008 A 
ATOM     18  C   UNL     1       7.711   1.481  -2.410  0.00  0.00    +0.046 A 
ATOM     19  C   UNL     1       7.948   0.671  -3.511  0.00  0.00    +0.120 A 
ATOM     20  C   UNL     1       6.900   0.323  -4.351  0.00  0.00    +0.046 A 
ATOM     21  C   UNL     1       5.624   0.783  -4.088  0.00  0.00    +0.008 A 
BRANCH  19  22
ATOM     22  O   UNL     1       9.204   0.219  -3.767  0.00  0.00    -0.495 OA
ATOM     23  C   UNL     1      10.234   0.618  -2.860  0.00  0.00    +0.277 C 
ENDBRANCH  19  22
ENDBRANCH  15  16
ENDBRANCH   1  15
BRANCH   1  24
ATOM     24  C   UNL     1       2.616  -0.020  -2.433  0.00  0.00    +0.150 C 
BRANCH  24  25
ATOM     25  C   UNL     1       1.383   0.448  -3.163  0.00  0.00    +0.033 A 
ATOM     26  C   UNL     1       1.437   0.685  -4.497  0.00  0.00    +0.020 A 
ATOM     27  C   UNL     1       0.221   1.134  -5.177  0.00  0.00    +0.002 A 
ATOM     28  C   UNL     1       0.213   1.390  -6.552  0.00  0.00    -0.041 A 
ATOM     29  C   UNL     1      -0.937   1.812  -7.156  0.00  0.00    +0.007 A 
ATOM     30  C   UNL     1      -2.099   1.990  -6.417  0.00  0.00    -0.048 A 
ATOM     31  C   UNL     1      -2.114   1.745  -5.061  0.00  0.00    +0.029 A 
ATOM     32  C   UNL     1      -0.955   1.314  -4.424  0.00  0.00    +0.050 A 
ATOM     33  N   UNL     1      -0.943   1.060  -3.069  0.00  0.00    -0.322 N 
ATOM     34  H   UNL     1      -1.779   1.188  -2.536  0.00  0.00    +0.169 HD
ATOM     35  C   UNL     1       0.178   0.643  -2.454  0.00  0.00    +0.254 A 
ATOM     36  O   UNL     1       0.152   0.428  -1.255  0.00  0.00    -0.268 OA
ATOM     37  C   UNL     1      -3.356   2.457  -7.105  0.00  0.00    +0.044 C 
ATOM     38  C   UNL     1       1.469   1.201  -7.364  0.00  0.00    +0.044 C 
ENDBRANCH  24  25
ENDBRANCH   1  24
TORSDOF 7
