REMARK  Name = ZINC09141514
REMARK  7 active torsions:
REMARK  status: ('A' for Active; 'I' for Inactive)
REMARK    1  A    between atoms: C_1  and  C_2
REMARK    2  A    between atoms: C_5  and  N_11
REMARK    3  A    between atoms: C_6  and  N_8
REMARK    4  A    between atoms: C_12  and  C_14
REMARK    5  A    between atoms: C_14  and  S_15
REMARK    6  A    between atoms: S_15  and  C_16
REMARK    7  A    between atoms: N_26  and  C_27
REMARK                            x       y       z     vdW  Elec       q    Type
REMARK                         _______ _______ _______ _____ _____    ______ ____
ROOT
ATOM      1  C   UNL     1      -1.119  -2.034  -0.019  0.00  0.00    +0.177 A 
ATOM      2  N   UNL     1      -1.137  -0.724  -0.026  0.00  0.00    -0.223 NA
ATOM      3  C   UNL     1       0.001  -0.002  -0.048  0.00  0.00    +0.079 A 
ATOM      4  C   UNL     1      -0.018   1.396  -0.056  0.00  0.00    +0.028 A 
ATOM      5  C   UNL     1       1.159   2.089  -0.078  0.00  0.00    +0.002 A 
ATOM      6  C   UNL     1       2.379   1.424  -0.092  0.00  0.00    +0.001 A 
ATOM      7  C   UNL     1       2.431   0.058  -0.085  0.00  0.00    +0.015 A 
ATOM      8  C   UNL     1       1.244  -0.674  -0.063  0.00  0.00    +0.065 A 
ATOM      9  C   UNL     1       1.239  -2.143  -0.054  0.00  0.00    +0.267 A 
ATOM     10  O   UNL     1       2.278  -2.778  -0.067  0.00  0.00    -0.267 OA
ATOM     11  N   UNL     1       0.037  -2.764  -0.033  0.00  0.00    -0.253 N 
ENDROOT
BRANCH  11  12
ATOM     12  C   UNL     1      -0.024  -4.165  -0.023  0.00  0.00    +0.087 A 
ATOM     13  C   UNL     1      -0.036  -4.852   1.183  0.00  0.00    +0.032 A 
ATOM     14  C   UNL     1      -0.095  -6.232   1.190  0.00  0.00    +0.040 A 
ATOM     15  C   UNL     1      -0.143  -6.931  -0.004  0.00  0.00    +0.126 A 
ATOM     16  C   UNL     1      -0.132  -6.250  -1.209  0.00  0.00    +0.078 A 
ATOM     17  C   UNL     1      -0.078  -4.867  -1.222  0.00  0.00    +0.150 A 
ATOM     18  F   UNL     1      -0.073  -4.201  -2.397  0.00  0.00    -0.203 F 
ATOM     19  F   UNL     1      -0.201  -8.281   0.006  0.00  0.00    -0.205 F 
ENDBRANCH  11  12
BRANCH   1  20
ATOM     20  S   UNL     1      -2.656  -2.895   0.011  0.00  0.00    -0.078 S 
BRANCH  20  21
ATOM     21  C   UNL     1      -3.802  -1.493   0.020  0.00  0.00    +0.173 C 
BRANCH  21  23
ATOM     22  N   UNL     1      -6.249  -1.133   0.056  0.00  0.00    -0.283 N 
ATOM     23  C   UNL     1      -5.220  -2.003   0.046  0.00  0.00    +0.228 C 
ATOM     24  O   UNL     1      -5.435  -3.197   0.057  0.00  0.00    -0.275 OA
ATOM     25  H   UNL     1      -6.078  -0.181   0.129  0.00  0.00    +0.155 HD
BRANCH  22  30
ATOM     26  C   UNL     1     -11.579  -3.039  -0.322  0.00  0.00    +0.044 C 
ATOM     27  C   UNL     1     -10.163  -2.533  -0.222  0.00  0.00    -0.048 A 
ATOM     28  C   UNL     1      -9.123  -3.285  -0.737  0.00  0.00    +0.005 A 
ATOM     29  C   UNL     1      -7.824  -2.824  -0.647  0.00  0.00    +0.026 A 
ATOM     30  C   UNL     1      -7.563  -1.603  -0.037  0.00  0.00    +0.064 A 
ATOM     31  C   UNL     1      -8.609  -0.853   0.484  0.00  0.00    +0.148 A 
ATOM     32  C   UNL     1      -9.906  -1.317   0.386  0.00  0.00    +0.038 A 
BRANCH  31  33
ATOM     33  N   UNL     1      -8.335   0.445   1.140  0.00  0.00    +0.058 N 
ATOM     34  O   UNL     1      -9.239   1.060   1.677  0.00  0.00    -0.126 OA
ATOM     35  O   UNL     1      -7.204   0.899   1.144  0.00  0.00    -0.126 OA
ENDBRANCH  31  33
ENDBRANCH  22  30
ENDBRANCH  21  23
ENDBRANCH  20  21
ENDBRANCH   1  20
TORSDOF 6
