REMARK  Name = ZINC19973198
REMARK  10 active torsions:
REMARK  status: ('A' for Active; 'I' for Inactive)
REMARK    1  A    between atoms: C_1  and  C_2
REMARK    2  A    between atoms: C_4  and  C_40
REMARK    3  A    between atoms: C_7  and  C_14
REMARK    4  A    between atoms: C_14  and  C_16
REMARK    5  A    between atoms: C_14  and  N_27
REMARK    6  A    between atoms: N_20  and  C_21
REMARK    7  A    between atoms: N_27  and  C_28
REMARK    8  A    between atoms: N_27  and  C_34
REMARK    9  A    between atoms: C_28  and  C_29
REMARK   10  A    between atoms: C_34  and  C_35
REMARK                            x       y       z     vdW  Elec       q    Type
REMARK                         _______ _______ _______ _____ _____    ______ ____
ROOT
ATOM      1  C   UNL     1      -3.612   6.206   0.641  0.00  0.00    +0.163 C 
ENDROOT
BRANCH   1   8
ATOM      2  C   UNL     1      -0.895  -0.260  -3.158  0.00  0.00    +0.044 C 
ATOM      3  C   UNL     1      -1.583   0.824  -2.368  0.00  0.00    -0.048 A 
ATOM      4  C   UNL     1      -2.756   0.536  -1.685  0.00  0.00    +0.007 A 
ATOM      5  C   UNL     1      -3.398   1.505  -0.967  0.00  0.00    -0.041 A 
ATOM      6  C   UNL     1      -2.863   2.796  -0.912  0.00  0.00    +0.002 A 
ATOM      7  C   UNL     1      -3.522   3.857  -0.148  0.00  0.00    +0.021 A 
ATOM      8  C   UNL     1      -2.960   5.091  -0.136  0.00  0.00    +0.042 A 
ATOM      9  C   UNL     1      -1.766   5.336  -0.847  0.00  0.00    +0.254 A 
ATOM     10  O   UNL     1      -1.277   6.452  -0.822  0.00  0.00    -0.268 OA
ATOM     11  N   UNL     1      -1.153   4.368  -1.551  0.00  0.00    -0.322 N 
ATOM     12  H   UNL     1      -0.223   4.588  -2.095  0.00  0.00    +0.169 HD
ATOM     13  C   UNL     1      -1.673   3.092  -1.604  0.00  0.00    +0.050 A 
ATOM     14  C   UNL     1      -1.040   2.090  -2.332  0.00  0.00    +0.029 A 
ATOM     15  C   UNL     1      -4.675   1.183  -0.234  0.00  0.00    +0.044 C 
ENDBRANCH   1   8
BRANCH   1  16
ATOM     16  C   UNL     1      -4.013   7.309  -0.305  0.00  0.00    +0.173 A 
ATOM     17  N   UNL     1      -3.214   8.171  -0.885  0.00  0.00    -0.111 NA
ATOM     18  N   UNL     1      -3.933   8.951  -1.616  0.00  0.00    -0.023 NA
ATOM     19  N   UNL     1      -5.170   8.609  -1.517  0.00  0.00    -0.044 NA
ATOM     20  N   UNL     1      -5.260   7.597  -0.722  0.00  0.00    -0.224 N 
BRANCH  20  21
ATOM     21  C   UNL     1      -6.488   6.895  -0.341  0.00  0.00    +0.111 C 
ATOM     22  C   UNL     1      -7.101   6.233  -1.577  0.00  0.00    +0.027 C 
ATOM     23  C   UNL     1      -8.384   5.500  -1.179  0.00  0.00    +0.002 C 
ATOM     24  C   UNL     1      -9.381   6.500  -0.589  0.00  0.00    +0.000 C 
ATOM     25  C   UNL     1      -8.768   7.162   0.646  0.00  0.00    +0.002 C 
ATOM     26  C   UNL     1      -7.485   7.895   0.249  0.00  0.00    +0.027 C 
ENDBRANCH  20  21
ENDBRANCH   1  16
BRANCH   1  27
ATOM     27  N   UNL     1      -2.666   6.731   1.633  0.00  0.00    -0.277 NA
BRANCH  27  28
ATOM     28  C   UNL     1      -3.305   7.740   2.488  0.00  0.00    +0.160 C 
BRANCH  28  29
ATOM     29  C   UNL     1      -3.327   9.065   1.770  0.00  0.00    +0.119 A 
ATOM     30  C   UNL     1      -4.366   9.568   1.080  0.00  0.00    +0.046 A 
ATOM     31  C   UNL     1      -3.954  10.823   0.576  0.00  0.00    +0.041 A 
ATOM     32  C   UNL     1      -2.688  11.012   0.988  0.00  0.00    +0.195 A 
ATOM     33  O   UNL     1      -2.315   9.947   1.716  0.00  0.00    -0.467 OA
ENDBRANCH  28  29
ENDBRANCH  27  28
BRANCH  27  34
ATOM     34  C   UNL     1      -2.092   5.646   2.439  0.00  0.00    +0.128 C 
BRANCH  34  35
ATOM     35  C   UNL     1      -0.708   5.324   1.937  0.00  0.00    +0.004 A 
ATOM     36  C   UNL     1       0.431   6.050   2.049  0.00  0.00    +0.012 A 
ATOM     37  C   UNL     1       1.600   5.551   1.505  0.00  0.00    +0.008 A 
ATOM     38  C   UNL     1       1.573   4.352   0.875  0.00  0.00    +0.045 A 
ATOM     39  S   UNL     1      -0.142   3.885   1.045  0.00  0.00    -0.100 S 
ENDBRANCH  34  35
ENDBRANCH  27  34
ENDBRANCH   1  27
TORSDOF 8
