REMARK  Name = ZINC39486681
REMARK  9 active torsions:
REMARK  status: ('A' for Active; 'I' for Inactive)
REMARK    1  A    between atoms: C_1  and  C_2
REMARK    2  A    between atoms: C_2  and  C_29
REMARK    3  A    between atoms: N_4  and  C_22
REMARK    4  A    between atoms: N_7  and  C_8
REMARK    5  A    between atoms: C_8  and  C_9
REMARK    6  A    between atoms: C_9  and  C_16
REMARK    7  A    between atoms: N_12  and  O_15
REMARK    8  A    between atoms: C_27  and  O_28
REMARK    9  A    between atoms: C_29  and  C_30
REMARK                            x       y       z     vdW  Elec       q    Type
REMARK                         _______ _______ _______ _____ _____    ______ ____
ROOT
ATOM      1  C   UNL     1      -0.399   1.053   0.077  0.00  0.00    +0.034 C 
ATOM      2  C   UNL     1      -0.256  -0.438   0.388  0.00  0.00    +0.056 C 
ATOM      3  C   UNL     1      -1.563  -0.994   0.986  0.00  0.00    +0.141 C 
ATOM      4  N   UNL     1      -1.170  -1.460   2.323  0.00  0.00    -0.250 N 
ATOM      5  C   UNL     1       0.138  -1.229   2.503  0.00  0.00    +0.310 C 
ATOM      6  O   UNL     1       0.727  -1.518   3.526  0.00  0.00    -0.252 OA
ATOM      7  N   UNL     1       0.736  -0.651   1.453  0.00  0.00    -0.277 N 
ENDROOT
BRANCH   4   8
ATOM      8  C   UNL     1      -2.026  -2.052   3.262  0.00  0.00    +0.079 A 
ATOM      9  C   UNL     1      -2.193  -3.429   3.279  0.00  0.00    +0.027 A 
ATOM     10  C   UNL     1      -3.038  -4.011   4.205  0.00  0.00    +0.002 A 
ATOM     11  C   UNL     1      -3.718  -3.224   5.116  0.00  0.00    +0.004 A 
ATOM     12  C   UNL     1      -3.557  -1.851   5.104  0.00  0.00    +0.047 A 
ATOM     13  C   UNL     1      -2.707  -1.260   4.183  0.00  0.00    +0.138 A 
BRANCH  13  14
ATOM     14  O   UNL     1      -2.543   0.089   4.175  0.00  0.00    -0.505 OA
ATOM     15  H   UNL     1      -3.169   0.558   3.606  0.00  0.00    +0.292 HD
ENDBRANCH  13  14
ENDBRANCH   4   8
BRANCH   7  16
ATOM     16  C   UNL     1       2.153  -0.287   1.378  0.00  0.00    +0.117 C 
BRANCH  16  17
ATOM     17  C   UNL     1       2.415   0.933   2.263  0.00  0.00    -0.008 C 
ATOM     18  C   UNL     1       3.915   1.237   2.285  0.00  0.00    +0.026 C 
ATOM     19  C   UNL     1       4.663   0.050   2.896  0.00  0.00    +0.115 C 
ATOM     20  N   UNL     1       4.174  -0.188   4.260  0.00  0.00    -0.191 NA
ATOM     21  C   UNL     1       2.745  -0.529   4.260  0.00  0.00    +0.115 C 
ATOM     22  C   UNL     1       1.940   0.641   3.690  0.00  0.00    +0.026 C 
BRANCH  17  23
ATOM     23  C   UNL     1       1.655   2.139   1.708  0.00  0.00    -0.003 C 
ATOM     24  C   UNL     1       2.285   2.574   0.384  0.00  0.00    +0.004 C 
ATOM     25  C   UNL     1       1.525   3.780  -0.171  0.00  0.00    +0.000 C 
ATOM     26  C   UNL     1       1.598   4.934   0.831  0.00  0.00    +0.000 C 
ATOM     27  C   UNL     1       0.968   4.500   2.156  0.00  0.00    +0.000 C 
ATOM     28  C   UNL     1       1.728   3.293   2.711  0.00  0.00    +0.004 C 
ENDBRANCH  17  23
BRANCH  20  29
ATOM     29  O   UNL     1       4.960  -1.227   4.926  0.00  0.00    -0.312 OA
ATOM     30  H   UNL     1       4.674  -1.419   5.829  0.00  0.00    +0.237 HD
ENDBRANCH  20  29
ENDBRANCH  16  17
ENDBRANCH   7  16
BRANCH   2  31
ATOM     31  C   UNL     1       0.135  -1.213  -0.872  0.00  0.00    +0.062 C 
BRANCH  31  32
ATOM     32  C   UNL     1      -0.921  -1.018  -1.929  0.00  0.00    -0.045 A 
ATOM     33  C   UNL     1      -1.996  -1.886  -2.001  0.00  0.00    +0.004 A 
ATOM     34  C   UNL     1      -2.964  -1.707  -2.971  0.00  0.00    +0.000 A 
ATOM     35  C   UNL     1      -2.859  -0.660  -3.868  0.00  0.00    +0.000 A 
ATOM     36  C   UNL     1      -1.786   0.208  -3.795  0.00  0.00    +0.000 A 
ATOM     37  C   UNL     1      -0.819   0.031  -2.823  0.00  0.00    +0.004 A 
ENDBRANCH  31  32
ENDBRANCH   2  31
TORSDOF 8
