REMARK  Name = ZINC12250720
REMARK  9 active torsions:
REMARK  status: ('A' for Active; 'I' for Inactive)
REMARK    1  A    between atoms: C_1  and  C_2
REMARK    2  A    between atoms: C_3  and  C_29
REMARK    3  A    between atoms: C_4  and  C_23
REMARK    4  A    between atoms: C_6  and  C_21
REMARK    5  A    between atoms: C_7  and  S_9
REMARK    6  A    between atoms: S_9  and  C_10
REMARK    7  A    between atoms: C_10  and  C_11
REMARK    8  A    between atoms: N_13  and  C_14
REMARK    9  A    between atoms: N_31  and  C_32
REMARK                            x       y       z     vdW  Elec       q    Type
REMARK                         _______ _______ _______ _____ _____    ______ ____
ROOT
ATOM      1  C   UNL     1      -3.889   6.945   0.154  0.00  0.00    +0.061 C 
ATOM      2  C   UNL     1      -2.678   7.840   0.099  0.00  0.00    +0.014 C 
ATOM      3  C   UNL     1      -1.455   7.292   0.018  0.00  0.00    +0.044 C 
ATOM      4  C   UNL     1      -0.214   8.136  -0.044  0.00  0.00    +0.098 C 
ATOM      5  C   UNL     1      -0.504   9.547   0.376  0.00  0.00    +0.069 C 
ATOM      6  C   UNL     1      -1.779  10.016   0.446  0.00  0.00    +0.080 C 
ATOM      7  N   UNL     1      -2.842   9.198   0.133  0.00  0.00    -0.312 N 
ATOM      8  H   UNL     1      -3.824   9.639  -0.091  0.00  0.00    +0.152 HD
ENDROOT
BRANCH   4   9
ATOM      9  C   UNL     1       0.311   8.143  -1.456  0.00  0.00    -0.035 A 
ATOM     10  C   UNL     1      -0.479   8.620  -2.486  0.00  0.00    +0.004 A 
ATOM     11  C   UNL     1       0.005   8.630  -3.780  0.00  0.00    +0.000 A 
ATOM     12  C   UNL     1       1.275   8.155  -4.048  0.00  0.00    +0.000 A 
ATOM     13  C   UNL     1       2.063   7.673  -3.019  0.00  0.00    +0.000 A 
ATOM     14  C   UNL     1       1.581   7.667  -1.724  0.00  0.00    +0.004 A 
ENDBRANCH   4   9
BRANCH   3  15
ATOM     15  C   UNL     1      -1.331   5.882  -0.005  0.00  0.00    +0.247 C 
ATOM     16  O   UNL     1      -1.113   5.274   1.026  0.00  0.00    -0.270 OA
ATOM     17  N   UNL     1      -1.456   5.214  -1.169  0.00  0.00    -0.282 N 
ATOM     18  H   UNL     1      -1.555   5.769  -2.114  0.00  0.00    +0.155 HD
BRANCH  17  19
ATOM     19  C   UNL     1      -1.458   3.816  -1.175  0.00  0.00    +0.034 A 
ATOM     20  C   UNL     1      -1.046   3.124  -2.307  0.00  0.00    +0.023 A 
ATOM     21  C   UNL     1      -1.049   1.743  -2.310  0.00  0.00    +0.002 A 
ATOM     22  C   UNL     1      -1.462   1.049  -1.188  0.00  0.00    +0.000 A 
ATOM     23  C   UNL     1      -1.878   1.734  -0.061  0.00  0.00    +0.002 A 
ATOM     24  C   UNL     1      -1.871   3.115  -0.050  0.00  0.00    +0.023 A 
ENDBRANCH  17  19
ENDBRANCH   3  15
BRANCH   5  25
ATOM     25  C   UNL     1       0.583  10.416   0.716  0.00  0.00    +0.098 C 
ATOM     26  N   UNL     1       1.445  11.105   0.985  0.00  0.00    -0.191 NA
ENDBRANCH   5  25
BRANCH   6  27
ATOM     27  S   UNL     1      -2.073  11.681   0.940  0.00  0.00    -0.100 S 
BRANCH  27  28
ATOM     28  C   UNL     1      -3.880  11.723   0.847  0.00  0.00    +0.171 C 
BRANCH  28  29
ATOM     29  C   UNL     1      -4.372  13.092   1.238  0.00  0.00    +0.227 C 
ATOM     30  O   UNL     1      -3.579  13.955   1.550  0.00  0.00    -0.275 OA
ATOM     31  N   UNL     1      -5.693  13.358   1.243  0.00  0.00    -0.284 N 
ATOM     32  H   UNL     1      -6.417  12.553   1.047  0.00  0.00    +0.155 HD
BRANCH  31  33
ATOM     33  C   UNL     1      -6.145  14.658   1.496  0.00  0.00    +0.052 A 
ATOM     34  C   UNL     1      -5.407  15.749   1.058  0.00  0.00    +0.025 A 
ATOM     35  C   UNL     1      -5.855  17.031   1.309  0.00  0.00    +0.002 A 
ATOM     36  C   UNL     1      -7.038  17.230   1.996  0.00  0.00    +0.002 A 
ATOM     37  C   UNL     1      -7.777  16.146   2.435  0.00  0.00    +0.022 A 
ATOM     38  C   UNL     1      -7.337  14.860   2.182  0.00  0.00    +0.062 A 
ATOM     39 CL   UNL     1      -8.268  13.500   2.726  0.00  0.00    -0.082 Cl
ENDBRANCH  31  33
ENDBRANCH  28  29
ENDBRANCH  27  28
ENDBRANCH   6  27
TORSDOF 8
