REMARK  Name = ZINC59336711
REMARK  10 active torsions:
REMARK  status: ('A' for Active; 'I' for Inactive)
REMARK    1  A    between atoms: C_1  and  C_2
REMARK    2  A    between atoms: C_2  and  N_3
REMARK    3  A    between atoms: N_3  and  C_4
REMARK    4  A    between atoms: N_3  and  C_6
REMARK    5  A    between atoms: C_4  and  C_5
REMARK    6  A    between atoms: C_9  and  C_13
REMARK    7  A    between atoms: C_10  and  O_12
REMARK    8  A    between atoms: N_20  and  C_23
REMARK    9  A    between atoms: C_26  and  C_30
REMARK   10  A    between atoms: C_27  and  C_29
REMARK                            x       y       z     vdW  Elec       q    Type
REMARK                         _______ _______ _______ _____ _____    ______ ____
ROOT
ATOM      1  C   UNL     1      -3.564  -2.460   5.008  0.00  0.00    +0.030 C 
ATOM      2  C   UNL     1      -3.039  -1.828   6.129  0.00  0.00    +0.102 C 
ATOM      3  C   UNL     1      -3.842  -1.629   7.344  0.00  0.00    +0.276 C 
ATOM      4  O   UNL     1      -5.120  -2.058   7.405  0.00  0.00    -0.268 OA
ATOM      5  N   UNL     1      -3.283  -1.020   8.376  0.00  0.00    -0.123 NA
ATOM      6  C   UNL     1      -2.025  -0.587   8.345  0.00  0.00    +0.340 C 
ATOM      7  O   UNL     1      -1.581  -0.036   9.336  0.00  0.00    -0.250 OA
ATOM      8  N   UNL     1      -1.220  -0.725   7.281  0.00  0.00    -0.188 N 
ATOM      9  C   UNL     1      -1.651  -1.333   6.155  0.00  0.00    +0.264 C 
ATOM     10  O   UNL     1      -0.918  -1.463   5.191  0.00  0.00    -0.269 OA
ENDROOT
BRANCH   8  11
ATOM     11  C   UNL     1       0.092  -0.236   7.342  0.00  0.00    +0.046 A 
ATOM     12  C   UNL     1       0.363   1.076   6.977  0.00  0.00    +0.024 A 
ATOM     13  C   UNL     1       1.657   1.555   7.039  0.00  0.00    +0.005 A 
ATOM     14  C   UNL     1       2.682   0.730   7.463  0.00  0.00    -0.047 A 
ATOM     15  C   UNL     1       2.415  -0.578   7.826  0.00  0.00    -0.046 A 
ATOM     16  C   UNL     1       1.122  -1.061   7.772  0.00  0.00    +0.027 A 
ATOM     17  C   UNL     1       3.535  -1.474   8.287  0.00  0.00    +0.044 C 
ATOM     18  C   UNL     1       4.093   1.256   7.529  0.00  0.00    +0.044 C 
ENDBRANCH   8  11
BRANCH   1  22
ATOM     19  C   UNL     1      -1.047  -3.517   1.835  0.00  0.00    +0.033 A 
ATOM     20  C   UNL     1      -0.681  -3.812   3.151  0.00  0.00    +0.024 A 
ATOM     21  C   UNL     1      -1.496  -3.470   4.186  0.00  0.00    +0.013 A 
ATOM     22  C   UNL     1      -2.716  -2.815   3.936  0.00  0.00    +0.017 A 
ATOM     23  C   UNL     1      -3.087  -2.516   2.607  0.00  0.00    +0.126 A 
ATOM     24  C   UNL     1      -2.246  -2.865   1.568  0.00  0.00    +0.069 A 
BRANCH  23  25
ATOM     25  O   UNL     1      -4.260  -1.886   2.353  0.00  0.00    -0.506 OA
ATOM     26  H   UNL     1      -4.194  -0.921   2.341  0.00  0.00    +0.292 HD
ENDBRANCH  23  25
BRANCH  19  27
ATOM     27  N   UNL     1      -0.206  -3.871   0.789  0.00  0.00    -0.330 N 
BRANCH  27  29
ATOM     28  C   UNL     1       2.167  -3.524   1.268  0.00  0.00    +0.024 C 
ATOM     29  C   UNL     1       1.058  -4.559   1.066  0.00  0.00    +0.102 C 
ENDBRANCH  27  29
BRANCH  27  30
ATOM     30  C   UNL     1      -0.583  -3.559  -0.591  0.00  0.00    +0.102 C 
ATOM     31  C   UNL     1      -1.384  -4.723  -1.178  0.00  0.00    +0.024 C 
ENDBRANCH  27  30
ENDBRANCH  19  27
ENDBRANCH   1  22
TORSDOF 6
