REMARK  Name = ZINC61700525
REMARK  9 active torsions:
REMARK  status: ('A' for Active; 'I' for Inactive)
REMARK    1  A    between atoms: C_1  and  C_2
REMARK    2  A    between atoms: C_2  and  C_4
REMARK    3  A    between atoms: C_2  and  N_22
REMARK    4  A    between atoms: C_7  and  S_11
REMARK    5  A    between atoms: S_11  and  C_12
REMARK    6  A    between atoms: N_18  and  C_19
REMARK    7  A    between atoms: C_19  and  C_20
REMARK    8  A    between atoms: C_19  and  C_21
REMARK    9  A    between atoms: N_22  and  C_23
REMARK                            x       y       z     vdW  Elec       q    Type
REMARK                         _______ _______ _______ _____ _____    ______ ____
ROOT
ATOM      1  C   UNL     1       0.697  -0.492  -1.243  0.00  0.00    -0.061 A 
ATOM      2  C   UNL     1      -0.005  -0.642  -2.426  0.00  0.00    +0.003 A 
ATOM      3  C   UNL     1       0.641  -1.087  -3.562  0.00  0.00    +0.016 A 
ATOM      4  C   UNL     1       1.998  -1.383  -3.518  0.00  0.00    +0.030 A 
ATOM      5  C   UNL     1       2.700  -1.231  -2.328  0.00  0.00    +0.032 A 
ATOM      6  C   UNL     1       2.048  -0.781  -1.196  0.00  0.00    +0.018 A 
ATOM      7 BR   UNL     1       4.547  -1.633  -2.260  0.00  0.00    -0.049 Br
ENDROOT
BRANCH   1   9
ATOM      8  C   UNL     1      -0.168   1.514  -0.069  0.00  0.00    -0.009 C 
ATOM      9  C   UNL     1      -0.012  -0.007  -0.005  0.00  0.00    -0.044 C 
BRANCH   9  10
ATOM     10  N   UNL     1      -1.339  -0.632   0.076  0.00  0.00    +0.382 N 
ATOM     11  C   UNL     1      -1.982  -0.253   1.342  0.00  0.00    -0.100 C 
ATOM     12  H   UNL     1      -1.907  -0.318  -0.697  0.00  0.00    -0.085 HD
ATOM     13  H   UNL     1      -1.241  -1.635   0.036  0.00  0.00    -0.085 HD
ENDBRANCH   9  10
ENDBRANCH   1   9
BRANCH   4  14
ATOM     14  S   UNL     1       2.826  -1.951  -4.965  0.00  0.00    -0.049 S 
BRANCH  14  15
ATOM     15  C   UNL     1       3.022  -3.681  -4.694  0.00  0.00    +0.197 A 
ATOM     16  N   UNL     1       2.542  -4.350  -3.686  0.00  0.00    -0.144 NA
ATOM     17  N   UNL     1       2.917  -5.692  -3.838  0.00  0.00    -0.226 N 
ATOM     18  H   UNL     1       2.700  -6.421  -3.236  0.00  0.00    +0.194 HD
ATOM     19  C   UNL     1       3.637  -5.784  -4.975  0.00  0.00    +0.345 A 
ATOM     20  O   UNL     1       4.131  -6.798  -5.434  0.00  0.00    -0.245 OA
ATOM     21  N   UNL     1       3.704  -4.551  -5.515  0.00  0.00    -0.268 N 
BRANCH  21  22
ATOM     22  C   UNL     1       4.388  -4.196  -6.761  0.00  0.00    +0.088 C 
ATOM     23  C   UNL     1       5.874  -4.540  -6.643  0.00  0.00    +0.031 C 
ATOM     24  C   UNL     1       3.772  -4.980  -7.922  0.00  0.00    +0.031 C 
ENDBRANCH  21  22
ENDBRANCH  14  15
ENDBRANCH   4  14
TORSDOF 5
