REMARK  Name = ZINC00651631
REMARK  5 active torsions:
REMARK  status: ('A' for Active; 'I' for Inactive)
REMARK    1  A    between atoms: C_6  and  C_7
REMARK    2  A    between atoms: C_10  and  C_12
REMARK    3  A    between atoms: N_14  and  C_15
REMARK    4  A    between atoms: C_18  and  N_21
REMARK    5  A    between atoms: C_22  and  C_24
REMARK                            x       y       z     vdW  Elec       q    Type
REMARK                         _______ _______ _______ _____ _____    ______ ____
ROOT
ATOM      1  C   UNL     1       2.344  -6.970  -0.335  0.00  0.00    +0.034 A 
ATOM      2  C   UNL     1       3.563  -6.310  -0.257  0.00  0.00    +0.025 A 
ATOM      3  C   UNL     1       3.598  -4.933  -0.167  0.00  0.00    +0.025 A 
ATOM      4  C   UNL     1       2.413  -4.208  -0.154  0.00  0.00    +0.034 A 
ATOM      5  C   UNL     1       1.194  -4.869  -0.227  0.00  0.00    +0.025 A 
ATOM      6  C   UNL     1       1.159  -6.245  -0.322  0.00  0.00    +0.025 A 
ENDROOT
BRANCH   1   9
ATOM      7  C   UNL     1       3.227  -9.108   0.224  0.00  0.00    +0.284 C 
ATOM      8  O   UNL     1       4.136  -8.563   0.823  0.00  0.00    -0.266 OA
ATOM      9  N   UNL     1       2.309  -8.367  -0.427  0.00  0.00    -0.279 N 
ATOM     10  H   UNL     1       1.624  -8.800  -0.959  0.00  0.00    +0.155 HD
BRANCH   7  14
ATOM     11  C   UNL     1       2.411 -12.603  -0.207  0.00  0.00    +0.136 A 
ATOM     12  C   UNL     1       3.533 -12.733   0.561  0.00  0.00    +0.050 A 
ATOM     13  C   UNL     1       4.001 -11.443   0.827  0.00  0.00    +0.055 A 
ATOM     14  C   UNL     1       3.131 -10.569   0.211  0.00  0.00    +0.190 A 
ATOM     15  O   UNL     1       2.179 -11.296  -0.411  0.00  0.00    -0.450 OA
BRANCH  11  21
ATOM     16  C   UNL     1       1.942 -15.037  -0.447  0.00  0.00    +0.013 A 
ATOM     17  C   UNL     1       1.167 -16.071  -0.930  0.00  0.00    +0.021 A 
ATOM     18  C   UNL     1       0.049 -15.800  -1.700  0.00  0.00    +0.041 A 
ATOM     19  C   UNL     1      -0.303 -14.491  -1.986  0.00  0.00    +0.021 A 
ATOM     20  C   UNL     1       0.460 -13.449  -1.504  0.00  0.00    +0.013 A 
ATOM     21  C   UNL     1       1.589 -13.715  -0.726  0.00  0.00    +0.017 A 
ATOM     22 CL   UNL     1      -0.917 -17.107  -2.311  0.00  0.00    -0.084 Cl
ENDBRANCH  11  21
ENDBRANCH   7  14
ENDBRANCH   1   9
BRANCH   4  23
ATOM     23  N   UNL     1       2.448  -2.811  -0.063  0.00  0.00    -0.282 N 
ATOM     24  C   UNL     1       3.439  -2.121  -0.662  0.00  0.00    +0.248 C 
ATOM     25  O   UNL     1       4.347  -2.714  -1.210  0.00  0.00    -0.270 OA
ATOM     26  H   UNL     1       1.760  -2.340   0.432  0.00  0.00    +0.155 HD
BRANCH  24  27
ATOM     27  C   UNL     1       3.420  -0.644  -0.653  0.00  0.00    +0.037 A 
ATOM     28  C   UNL     1       4.445   0.074  -1.273  0.00  0.00    +0.014 A 
ATOM     29  C   UNL     1       4.423   1.453  -1.261  0.00  0.00    +0.016 A 
ATOM     30  C   UNL     1       3.386   2.126  -0.635  0.00  0.00    +0.018 A 
ATOM     31  C   UNL     1       2.367   1.420  -0.018  0.00  0.00    +0.016 A 
ATOM     32  C   UNL     1       2.379   0.041  -0.024  0.00  0.00    +0.014 A 
ATOM     33 BR   UNL     1       3.364   4.016  -0.622  0.00  0.00    -0.050 Br
ENDBRANCH  24  27
ENDBRANCH   4  23
TORSDOF 5
