REMARK  Name = ZINC13065017
REMARK  15 active torsions:
REMARK  status: ('A' for Active; 'I' for Inactive)
REMARK    1  A    between atoms: C_1  and  C_2
REMARK    2  A    between atoms: C_2  and  C_3
REMARK    3  A    between atoms: C_3  and  C_5
REMARK    4  A    between atoms: C_3  and  N_74
REMARK    5  A    between atoms: N_9  and  C_10
REMARK    6  A    between atoms: C_10  and  C_11
REMARK    7  A    between atoms: C_10  and  C_12
REMARK    8  A    between atoms: C_10  and  C_13
REMARK    9  A    between atoms: C_13  and  C_14
REMARK   10  A    between atoms: C_15  and  C_16
REMARK   11  A    between atoms: C_15  and  N_74
REMARK   12  A    between atoms: C_25  and  C_26
REMARK   13  A    between atoms: C_25  and  N_74
REMARK   14  A    between atoms: C_31  and  C_39
REMARK   15  A    between atoms: C_32  and  C_38
REMARK                            x       y       z     vdW  Elec       q    Type
REMARK                         _______ _______ _______ _____ _____    ______ ____
ROOT
ATOM      1  N   UNL     1       1.086   1.951   4.348  0.00  0.00    +0.392 N 
ATOM      2  H   UNL     1       0.410   2.031   5.116  0.00  0.00    -0.080 HD
ENDROOT
BRANCH   1   3
ATOM      3  C   UNL     1       0.519   1.079   3.298  0.00  0.00    +0.003 C 
BRANCH   3   4
ATOM      4  C   UNL     1      -0.251  -0.034   3.961  0.00  0.00    +0.139 A 
ATOM      5  N   UNL     1       0.101  -0.699   5.034  0.00  0.00    -0.115 NA
ATOM      6  N   UNL     1      -0.816  -1.569   5.282  0.00  0.00    -0.023 NA
ATOM      7  N   UNL     1      -1.746  -1.474   4.398  0.00  0.00    -0.043 NA
ATOM      8  N   UNL     1      -1.437  -0.536   3.568  0.00  0.00    -0.225 N 
BRANCH   8   9
ATOM      9  C   UNL     1      -2.224  -0.103   2.411  0.00  0.00    +0.061 C 
ATOM     10  C   UNL     1      -1.350  -0.141   1.156  0.00  0.00    +0.036 C 
ATOM     11  C   UNL     1      -2.726   1.324   2.640  0.00  0.00    +0.036 C 
BRANCH   9  12
ATOM     12  C   UNL     1      -3.420  -1.041   2.228  0.00  0.00    +0.026 C 
ATOM     13  C   UNL     1      -4.242  -0.589   1.020  0.00  0.00    +0.006 C 
ENDBRANCH   9  12
ENDBRANCH   8   9
ENDBRANCH   3   4
BRANCH   3  15
ATOM     14  C   UNL     1       2.329   1.602   1.657  0.00  0.00    +0.002 C 
ATOM     15  C   UNL     1       1.635   0.484   2.437  0.00  0.00    -0.011 C 
ENDBRANCH   3  15
ENDBRANCH   1   3
BRANCH   1  16
ATOM     16  C   UNL     1       1.349   3.298   3.798  0.00  0.00    -0.041 C 
BRANCH  16  17
ATOM     17  C   UNL     1       0.038   4.028   3.659  0.00  0.00    -0.060 A 
ATOM     18  C   UNL     1      -0.597   4.078   2.432  0.00  0.00    +0.005 A 
ATOM     19  C   UNL     1      -1.802   4.742   2.301  0.00  0.00    +0.050 A 
ATOM     20  C   UNL     1      -2.371   5.369   3.397  0.00  0.00    +0.166 A 
ATOM     21  C   UNL     1      -1.729   5.324   4.632  0.00  0.00    +0.166 A 
ATOM     22  C   UNL     1      -0.524   4.651   4.757  0.00  0.00    +0.051 A 
ATOM     23  O   UNL     1      -2.482   6.009   5.541  0.00  0.00    -0.453 OA
ATOM     24  C   UNL     1      -3.382   6.818   4.762  0.00  0.00    +0.466 C 
ATOM     25  O   UNL     1      -3.527   6.083   3.533  0.00  0.00    -0.453 OA
ENDBRANCH  16  17
ENDBRANCH   1  16
BRANCH   1  26
ATOM     26  C   UNL     1       2.338   1.365   4.870  0.00  0.00    -0.036 C 
BRANCH  26  27
ATOM     27  C   UNL     1       2.688   2.047   6.168  0.00  0.00    +0.001 A 
ATOM     28  C   UNL     1       2.289   1.504   7.344  0.00  0.00    +0.017 A 
ATOM     29  C   UNL     1       2.648   2.189   8.588  0.00  0.00    -0.001 A 
ATOM     30  C   UNL     1       2.270   1.674   9.832  0.00  0.00    +0.010 A 
ATOM     31  C   UNL     1       2.616   2.340  10.974  0.00  0.00    +0.004 A 
ATOM     32  C   UNL     1       3.341   3.522  10.910  0.00  0.00    -0.046 A 
ATOM     33  C   UNL     1       3.724   4.048   9.695  0.00  0.00    -0.024 A 
ATOM     34  C   UNL     1       3.383   3.387   8.519  0.00  0.00    +0.052 A 
ATOM     35  N   UNL     1       3.754   3.890   7.290  0.00  0.00    -0.322 N 
ATOM     36  H   UNL     1       4.260   4.716   7.244  0.00  0.00    +0.169 HD
ATOM     37  C   UNL     1       3.423   3.251   6.153  0.00  0.00    +0.251 A 
ATOM     38  O   UNL     1       3.768   3.724   5.084  0.00  0.00    -0.268 OA
ATOM     39  C   UNL     1       4.511   5.332   9.640  0.00  0.00    +0.046 C 
ATOM     40  C   UNL     1       3.712   4.239  12.182  0.00  0.00    +0.044 C 
ENDBRANCH  26  27
ENDBRANCH   1  26
TORSDOF 9
