REMARK  Name = ZINC08295969
REMARK  7 active torsions:
REMARK  status: ('A' for Active; 'I' for Inactive)
REMARK    1  A    between atoms: C_1  and  C_2
REMARK    2  A    between atoms: C_2  and  C_3
REMARK    3  A    between atoms: C_3  and  N_4
REMARK    4  A    between atoms: C_5  and  N_26
REMARK    5  A    between atoms: C_6  and  C_13
REMARK    6  A    between atoms: N_9  and  C_12
REMARK    7  A    between atoms: N_18  and  C_19
REMARK                            x       y       z     vdW  Elec       q    Type
REMARK                         _______ _______ _______ _____ _____    ______ ____
ROOT
ATOM      1  N   UNL     1      -2.207  -0.924  -0.670  0.00  0.00    -0.281 N 
ATOM      2  C   UNL     1      -2.152  -1.672   0.480  0.00  0.00    +0.115 A 
ATOM      3  C   UNL     1      -2.088  -3.055   0.385  0.00  0.00    +0.103 A 
ATOM      4  C   UNL     1      -2.080  -3.647  -0.899  0.00  0.00    +0.267 A 
ATOM      5  O   UNL     1      -2.024  -4.859  -1.016  0.00  0.00    -0.267 OA
ATOM      6  N   UNL     1      -2.136  -2.861  -1.992  0.00  0.00    -0.263 N 
ATOM      7  C   UNL     1      -2.203  -1.523  -1.875  0.00  0.00    +0.333 A 
ATOM      8  O   UNL     1      -2.256  -0.840  -2.879  0.00  0.00    -0.246 OA
ATOM      9  C   UNL     1      -2.128  -3.471  -3.324  0.00  0.00    +0.157 C 
ENDROOT
BRANCH   3  10
ATOM     10  C   UNL     1      -2.027  -3.896   1.606  0.00  0.00    +0.089 A 
ATOM     11  C   UNL     1      -1.858  -5.248   1.521  0.00  0.00    +0.077 A 
ATOM     12  S   UNL     1      -1.864  -5.694   3.251  0.00  0.00    -0.060 S 
ATOM     13  C   UNL     1      -2.083  -4.099   3.900  0.00  0.00    +0.163 A 
ATOM     14  N   UNL     1      -2.131  -3.355   2.813  0.00  0.00    -0.224 NA
ATOM     15  N   UNL     1      -2.178  -3.706   5.226  0.00  0.00    -0.294 N 
ATOM     16  H   UNL     1      -2.196  -2.763   5.452  0.00  0.00    +0.154 HD
BRANCH  15  17
ATOM     17  C   UNL     1      -2.246  -4.669   6.237  0.00  0.00    +0.033 A 
ATOM     18  C   UNL     1      -2.945  -5.851   6.027  0.00  0.00    +0.025 A 
ATOM     19  C   UNL     1      -3.006  -6.803   7.025  0.00  0.00    +0.022 A 
ATOM     20  C   UNL     1      -2.381  -6.575   8.239  0.00  0.00    +0.041 A 
ATOM     21  C   UNL     1      -1.689  -5.397   8.453  0.00  0.00    +0.022 A 
ATOM     22  C   UNL     1      -1.619  -4.444   7.456  0.00  0.00    +0.025 A 
ATOM     23 CL   UNL     1      -2.466  -7.771   9.495  0.00  0.00    -0.084 Cl
ENDBRANCH  15  17
ENDBRANCH   3  10
BRANCH   2  24
ATOM     24  N   UNL     1      -2.162  -1.060   1.706  0.00  0.00    -0.344 N 
ATOM     25  H   UNL     1      -2.472  -1.544   2.488  0.00  0.00    +0.144 HD
ATOM     26  H   UNL     1      -1.858  -0.143   1.793  0.00  0.00    +0.144 HD
ENDBRANCH   2  24
BRANCH   1  27
ATOM     27  C   UNL     1      -2.275   0.537  -0.586  0.00  0.00    +0.128 C 
BRANCH  27  29
ATOM     28  C   UNL     1      -0.930   2.640  -0.490  0.00  0.00    +0.005 C 
ATOM     29  C   UNL     1      -0.859   1.115  -0.579  0.00  0.00    +0.018 C 
ENDBRANCH  27  29
ENDBRANCH   1  27
TORSDOF 5
