REMARK  Name = ZINC46602669
REMARK  7 active torsions:
REMARK  status: ('A' for Active; 'I' for Inactive)
REMARK    1  A    between atoms: C_3  and  C_20
REMARK    2  A    between atoms: C_5  and  O_7
REMARK    3  A    between atoms: O_7  and  C_8
REMARK    4  A    between atoms: C_8  and  C_10
REMARK    5  A    between atoms: C_14  and  O_16
REMARK    6  A    between atoms: O_16  and  C_17
REMARK    7  A    between atoms: N_22  and  C_23
REMARK                            x       y       z     vdW  Elec       q    Type
REMARK                         _______ _______ _______ _____ _____    ______ ____
ROOT
ATOM      1  C   UNL     1       0.024   1.391   0.090  0.00  0.00    +0.004 A 
ATOM      2  C   UNL     1       1.210   2.089  -0.017  0.00  0.00    +0.013 A 
ATOM      3  C   UNL     1       2.418   1.399  -0.127  0.00  0.00    +0.040 A 
ATOM      4  C   UNL     1       2.421   0.004  -0.128  0.00  0.00    +0.059 A 
ATOM      5  C   UNL     1       1.225  -0.687  -0.020  0.00  0.00    +0.133 A 
ATOM      6  C   UNL     1       0.028   0.009   0.089  0.00  0.00    +0.046 A 
ENDROOT
BRANCH   3   7
ATOM      7  C   UNL     1       3.690   2.143  -0.243  0.00  0.00    +0.244 C 
ATOM      8  O   UNL     1       4.740   1.540  -0.339  0.00  0.00    -0.270 OA
ATOM      9  N   UNL     1       3.684   3.491  -0.242  0.00  0.00    -0.308 N 
ATOM     10  H   UNL     1       2.845   3.973  -0.166  0.00  0.00    +0.149 HD
BRANCH   9  11
ATOM     11  C   UNL     1       4.944   4.229  -0.357  0.00  0.00    +0.073 C 
ATOM     12  C   UNL     1       5.145   5.433   0.565  0.00  0.00    +0.024 C 
ATOM     13  C   UNL     1       4.883   5.648  -0.927  0.00  0.00    +0.024 C 
ENDBRANCH   9  11
ENDBRANCH   3   7
BRANCH   5  14
ATOM     14  O   UNL     1       1.224  -2.046  -0.021  0.00  0.00    -0.422 OA
BRANCH  14  15
ATOM     15  C   UNL     1       1.742  -2.680   1.048  0.00  0.00    +0.345 C 
ATOM     16  O   UNL     1       2.098  -2.042   2.019  0.00  0.00    -0.245 OA
BRANCH  15  17
ATOM     17  C   UNL     1       1.880  -4.151   1.040  0.00  0.00    +0.063 A 
ATOM     18  C   UNL     1       1.478  -4.886  -0.077  0.00  0.00    +0.015 A 
ATOM     19  C   UNL     1       1.607  -6.260  -0.081  0.00  0.00    +0.004 A 
ATOM     20  C   UNL     1       2.134  -6.912   1.019  0.00  0.00    +0.046 A 
ATOM     21  C   UNL     1       2.537  -6.190   2.134  0.00  0.00    +0.128 A 
ATOM     22  C   UNL     1       2.417  -4.810   2.147  0.00  0.00    +0.060 A 
BRANCH  21  23
ATOM     23  O   UNL     1       3.054  -6.837   3.212  0.00  0.00    -0.434 OA
BRANCH  23  24
ATOM     24  C   UNL     1       3.154  -8.259   3.128  0.00  0.00    +0.541 C 
ATOM     25  F   UNL     1       1.881  -8.806   2.937  0.00  0.00    -0.166 F 
ATOM     26  F   UNL     1       3.977  -8.607   2.051  0.00  0.00    -0.166 F 
ENDBRANCH  23  24
ENDBRANCH  21  23
ENDBRANCH  15  17
ENDBRANCH  14  15
ENDBRANCH   5  14
TORSDOF 7
