REMARK  Name = ZINC33259621
REMARK  9 active torsions:
REMARK  status: ('A' for Active; 'I' for Inactive)
REMARK    1  A    between atoms: C_1  and  C_2
REMARK    2  A    between atoms: C_2  and  C_3
REMARK    3  A    between atoms: C_3  and  S_4
REMARK    4  A    between atoms: S_4  and  C_5
REMARK    5  A    between atoms: C_5  and  C_6
REMARK    6  A    between atoms: C_6  and  C_7
REMARK    7  A    between atoms: C_7  and  N_8
REMARK    8  A    between atoms: C_9  and  C_11
REMARK    9  A    between atoms: N_21  and  C_29
REMARK                            x       y       z     vdW  Elec       q    Type
REMARK                         _______ _______ _______ _____ _____    ______ ____
ROOT
ATOM      1  C   UNL     1      -0.036   9.243   0.078  0.00  0.00    +0.092 C 
ATOM      2  C   UNL     1      -0.958   9.823  -0.998  0.00  0.00    +0.016 C 
ATOM      3  C   UNL     1      -2.343   9.182  -0.872  0.00  0.00    +0.020 C 
ATOM      4  C   UNL     1      -2.210   7.662  -1.002  0.00  0.00    +0.107 C 
ATOM      5  N   UNL     1      -1.319   7.156   0.050  0.00  0.00    -0.310 N 
ATOM      6  C   UNL     1       0.030   7.722  -0.079  0.00  0.00    +0.119 C 
ATOM      7  C   UNL     1      -1.280   5.773   0.043  0.00  0.00    +0.188 A 
ATOM      8  C   UNL     1      -2.535   4.999   0.051  0.00  0.00    +0.293 A 
ATOM      9  O   UNL     1      -3.610   5.569   0.065  0.00  0.00    -0.264 OA
ATOM     10  N   UNL     1      -2.477   3.650   0.044  0.00  0.00    -0.292 N 
ATOM     11  C   UNL     1      -1.244   3.029   0.029  0.00  0.00    +0.162 A 
ATOM     12  C   UNL     1      -0.070   3.804   0.022  0.00  0.00    +0.109 A 
ATOM     13  N   UNL     1      -0.128   5.151   0.029  0.00  0.00    -0.224 NA
ATOM     14  C   UNL     1       1.173   3.152   0.007  0.00  0.00    +0.033 A 
ATOM     15  C   UNL     1       1.187   1.771   0.000  0.00  0.00    +0.022 A 
ATOM     16  C   UNL     1      -0.013   1.076   0.008  0.00  0.00    +0.113 A 
ATOM     17  N   UNL     1      -1.169   1.705   0.017  0.00  0.00    -0.236 NA
ATOM     18  C   UNL     1      -3.708   2.855   0.052  0.00  0.00    +0.154 C 
ENDROOT
BRANCH   1  20
ATOM     19  N   UNL     1       1.531  11.156   0.026  0.00  0.00    -0.315 N 
ATOM     20  C   UNL     1       1.346   9.825  -0.075  0.00  0.00    +0.218 C 
ATOM     21  O   UNL     1       2.291   9.095  -0.289  0.00  0.00    -0.275 OA
ATOM     22  H   UNL     1       0.674  11.818   0.220  0.00  0.00    +0.149 HD
BRANCH  19  23
ATOM     23  C   UNL     1       2.874  11.722  -0.123  0.00  0.00    +0.105 C 
BRANCH  23  24
ATOM     24  C   UNL     1       2.808  13.242   0.034  0.00  0.00    +0.029 C 
BRANCH  24  25
ATOM     25  C   UNL     1       4.210  13.833  -0.121  0.00  0.00    +0.070 C 
BRANCH  25  26
ATOM     26  S   UNL     1       4.131  15.635   0.065  0.00  0.00    -0.161 S 
BRANCH  26  27
ATOM     27  C   UNL     1       5.851  16.174  -0.143  0.00  0.00    +0.069 C 
BRANCH  27  29
ATOM     28  C   UNL     1       7.379  18.150  -0.184  0.00  0.00    +0.004 C 
ATOM     29  C   UNL     1       5.928  17.696  -0.008  0.00  0.00    +0.007 C 
ENDBRANCH  27  29
ENDBRANCH  26  27
ENDBRANCH  25  26
ENDBRANCH  24  25
ENDBRANCH  23  24
ENDBRANCH  19  23
ENDBRANCH   1  20
TORSDOF 7
