REMARK  Name = ZINC13801116
REMARK  13 active torsions:
REMARK  status: ('A' for Active; 'I' for Inactive)
REMARK    1  A    between atoms: C_1  and  C_2
REMARK    2  A    between atoms: C_2  and  C_3
REMARK    3  A    between atoms: C_3  and  C_4
REMARK    4  A    between atoms: C_4  and  S_5
REMARK    5  A    between atoms: S_5  and  C_6
REMARK    6  A    between atoms: C_6  and  S_28
REMARK    7  A    between atoms: C_7  and  C_26
REMARK    8  A    between atoms: C_13  and  C_20
REMARK    9  A    between atoms: C_15  and  C_18
REMARK   10  A    between atoms: S_28  and  C_29
REMARK   11  A    between atoms: C_29  and  C_30
REMARK   12  A    between atoms: C_30  and  C_31
REMARK   13  A    between atoms: C_31  and  C_32
REMARK                            x       y       z     vdW  Elec       q    Type
REMARK                         _______ _______ _______ _____ _____    ______ ____
ROOT
ATOM      1  C   UNL     1      -0.971   1.460  -4.099  0.00  0.00    +0.157 C 
ATOM      2  C   UNL     1      -0.349   0.933  -5.395  0.00  0.00    +0.148 C 
ATOM      3  C   UNL     1       0.447  -0.328  -5.347  0.00  0.00    -0.029 C 
ATOM      4  C   UNL     1       1.573  -0.431  -6.061  0.00  0.00    -0.011 C 
ATOM      5  C   UNL     1       2.181  -1.798  -5.881  0.00  0.00    +0.049 C 
ATOM      6  C   UNL     1       1.054  -2.666  -5.275  0.00  0.00    +0.010 C 
ATOM      7  C   UNL     1       0.168  -1.597  -4.593  0.00  0.00    +0.034 C 
ATOM      8  C   UNL     1       1.363   1.894  -6.909  0.00  0.00    +0.113 C 
ATOM      9  C   UNL     1       0.720   2.061  -5.561  0.00  0.00    +0.156 C 
ATOM     10  C   UNL     1      -0.041   3.277  -5.182  0.00  0.00    +0.092 C 
ATOM     11  N   UNL     1       0.199   4.547  -5.636  0.00  0.00    -0.347 N 
ATOM     12  H   UNL     1      -0.354   5.283  -5.332  0.00  0.00    +0.143 HD
ATOM     13  H   UNL     1       0.922   4.710  -6.262  0.00  0.00    +0.143 HD
ATOM     14  N   UNL     1       2.149   0.591  -6.885  0.00  0.00    -0.401 NA
ATOM     15  H   UNL     1       2.209   0.232  -7.845  0.00  0.00    +0.124 HD
ATOM     16  H   UNL     1       3.094   0.790  -6.534  0.00  0.00    +0.124 HD
ATOM     17  N   UNL     1      -0.991   2.935  -4.335  0.00  0.00    -0.351 N 
ATOM     18  H   UNL     1      -1.650   3.590  -3.899  0.00  0.00    +0.163 HD
ENDROOT
BRANCH   8  19
ATOM     19  C   UNL     1       0.310   1.851  -7.986  0.00  0.00    -0.027 A 
ATOM     20  C   UNL     1       0.106   0.690  -8.707  0.00  0.00    +0.005 A 
ATOM     21  C   UNL     1      -0.864   0.649  -9.691  0.00  0.00    +0.000 A 
ATOM     22  C   UNL     1      -1.622   1.773  -9.962  0.00  0.00    +0.000 A 
ATOM     23  C   UNL     1      -1.414   2.936  -9.244  0.00  0.00    +0.000 A 
ATOM     24  C   UNL     1      -0.448   2.975  -8.256  0.00  0.00    +0.005 A 
ENDBRANCH   8  19
BRANCH   9  25
ATOM     25  C   UNL     1       1.746   1.826  -4.532  0.00  0.00    +0.081 C 
ATOM     26  N   UNL     1       2.538   1.645  -3.737  0.00  0.00    -0.195 NA
ENDBRANCH   9  25
BRANCH   2  27
ATOM     27  C   UNL     1      -1.324   0.931  -6.499  0.00  0.00    +0.080 C 
ATOM     28  N   UNL     1      -2.076   0.930  -7.350  0.00  0.00    -0.195 NA
ENDBRANCH   2  27
BRANCH   1  29
ATOM     29  S   UNL     1       0.066   1.046  -2.668  0.00  0.00    -0.120 S 
BRANCH  29  30
ATOM     30  C   UNL     1      -0.898   1.627  -1.246  0.00  0.00    +0.072 C 
BRANCH  30  31
ATOM     31  C   UNL     1      -0.187   1.230   0.049  0.00  0.00    +0.010 C 
BRANCH  31  33
ATOM     32  C   UNL     1      -0.288   1.323   2.544  0.00  0.00    +0.004 C 
ATOM     33  C   UNL     1      -1.000   1.720   1.249  0.00  0.00    -0.003 C 
ENDBRANCH  31  33
ENDBRANCH  30  31
ENDBRANCH  29  30
ENDBRANCH   1  29
BRANCH   1  34
ATOM     34  S   UNL     1      -2.655   0.823  -3.881  0.00  0.00    -0.120 S 
BRANCH  34  35
ATOM     35  C   UNL     1      -3.613   2.278  -3.377  0.00  0.00    +0.072 C 
BRANCH  35  36
ATOM     36  C   UNL     1      -5.093   1.905  -3.275  0.00  0.00    +0.010 C 
BRANCH  36  37
ATOM     37  C   UNL     1      -5.901   3.133  -2.850  0.00  0.00    -0.003 C 
ATOM     38  C   UNL     1      -7.381   2.759  -2.748  0.00  0.00    +0.004 C 
ENDBRANCH  36  37
ENDBRANCH  35  36
ENDBRANCH  34  35
ENDBRANCH   1  34
TORSDOF 11
