REMARK  Name = ZINC32948489
REMARK  7 active torsions:
REMARK  status: ('A' for Active; 'I' for Inactive)
REMARK    1  A    between atoms: C_1  and  C_2
REMARK    2  A    between atoms: C_7  and  N_8
REMARK    3  A    between atoms: C_15  and  S_17
REMARK    4  A    between atoms: S_17  and  C_18
REMARK    5  A    between atoms: C_18  and  C_19
REMARK    6  A    between atoms: N_21  and  C_22
REMARK    7  A    between atoms: C_27  and  C_28
REMARK                            x       y       z     vdW  Elec       q    Type
REMARK                         _______ _______ _______ _____ _____    ______ ____
ROOT
ATOM      1  N   UNL     1       8.341   7.185  -0.549  0.00  0.00    -0.281 N 
ATOM      2  C   UNL     1       7.210   7.963  -0.545  0.00  0.00    +0.161 A 
ATOM      3  C   UNL     1       7.412   9.340  -0.654  0.00  0.00    +0.122 A 
ATOM      4  C   UNL     1       6.353  10.238  -0.661  0.00  0.00    +0.268 A 
ATOM      5  O   UNL     1       6.551  11.439  -0.757  0.00  0.00    -0.267 OA
ATOM      6  N   UNL     1       5.094   9.746  -0.565  0.00  0.00    -0.301 N 
ATOM      7  H   UNL     1       4.233  10.431  -0.577  0.00  0.00    +0.171 HD
ATOM      8  C   UNL     1       4.920   8.399  -0.455  0.00  0.00    +0.172 A 
ATOM      9  N   UNL     1       5.920   7.554  -0.448  0.00  0.00    -0.204 NA
ATOM     10  S   UNL     1       9.178   9.485  -0.757  0.00  0.00    -0.055 S 
ATOM     11  C   UNL     1       9.564   7.744  -0.653  0.00  0.00    +0.132 A 
ATOM     12  S   UNL     1      11.096   6.979  -0.678  0.00  0.00    -0.024 S 
ENDROOT
BRANCH   1  19
ATOM     13  C   UNL     1       8.371   6.025   2.050  0.00  0.00    +0.046 C 
ATOM     14  C   UNL     1       8.233   5.187   0.805  0.00  0.00    -0.027 A 
ATOM     15  C   UNL     1       8.111   3.814   0.906  0.00  0.00    +0.005 A 
ATOM     16  C   UNL     1       7.990   3.044  -0.236  0.00  0.00    +0.000 A 
ATOM     17  C   UNL     1       7.986   3.644  -1.482  0.00  0.00    +0.002 A 
ATOM     18  C   UNL     1       8.102   5.016  -1.589  0.00  0.00    +0.026 A 
ATOM     19  C   UNL     1       8.223   5.793  -0.444  0.00  0.00    +0.052 A 
ENDBRANCH   1  19
BRANCH   8  20
ATOM     20  S   UNL     1       3.280   7.767  -0.324  0.00  0.00    -0.078 S 
BRANCH  20  21
ATOM     21  C   UNL     1       3.634   5.995  -0.217  0.00  0.00    +0.173 C 
BRANCH  21  22
ATOM     22  C   UNL     1       2.341   5.231  -0.094  0.00  0.00    +0.227 C 
ATOM     23  O   UNL     1       1.284   5.826  -0.081  0.00  0.00    -0.275 OA
ATOM     24  N   UNL     1       2.358   3.887   0.000  0.00  0.00    -0.284 N 
ATOM     25  H   UNL     1       3.317   3.354   0.079  0.00  0.00    +0.155 HD
BRANCH  24  26
ATOM     26  C   UNL     1       1.157   3.170  -0.003  0.00  0.00    +0.039 A 
ATOM     27  C   UNL     1       0.025   3.711  -0.597  0.00  0.00    +0.062 A 
ATOM     28  C   UNL     1      -1.161   2.999  -0.599  0.00  0.00    +0.125 A 
ATOM     29  C   UNL     1      -1.217   1.745  -0.013  0.00  0.00    +0.039 A 
ATOM     30  C   UNL     1      -0.092   1.207   0.584  0.00  0.00    +0.008 A 
ATOM     31  C   UNL     1       1.095   1.914   0.588  0.00  0.00    -0.029 A 
ATOM     32  C   UNL     1       2.322   1.324   1.233  0.00  0.00    +0.045 C 
ATOM     33  F   UNL     1      -2.263   3.524  -1.176  0.00  0.00    -0.205 F 
ENDBRANCH  24  26
ENDBRANCH  21  22
ENDBRANCH  20  21
ENDBRANCH   8  20
TORSDOF 5
