REMARK  Name = ZINC34830415
REMARK  9 active torsions:
REMARK  status: ('A' for Active; 'I' for Inactive)
REMARK    1  A    between atoms: C_1  and  C_2
REMARK    2  A    between atoms: C_2  and  C_3
REMARK    3  A    between atoms: C_3  and  C_5
REMARK    4  A    between atoms: C_3  and  C_11
REMARK    5  A    between atoms: C_20  and  C_22
REMARK    6  A    between atoms: C_22  and  C_24
REMARK    7  A    between atoms: C_22  and  N_25
REMARK    8  A    between atoms: C_33  and  C_35
REMARK    9  A    between atoms: C_40  and  C_41
REMARK                            x       y       z     vdW  Elec       q    Type
REMARK                         _______ _______ _______ _____ _____    ______ ____
ROOT
ATOM      1  C   UNL     1       4.704   0.529   0.228  0.00  0.00    +0.223 C 
ATOM      2  O   UNL     1       5.884   0.263   0.304  0.00  0.00    -0.275 OA
ATOM      3  N   UNL     1       4.311   1.807   0.055  0.00  0.00    -0.299 N 
ATOM      4  C   UNL     1       5.245   2.878   0.060  0.00  0.00    +0.109 C 
ATOM      5  C   UNL     1       5.620   3.409   1.482  0.00  0.00    +0.038 C 
ATOM      6  C   UNL     1       4.317   3.377   2.347  0.00  0.00    +0.109 C 
ATOM      7  N   UNL     1       3.133   3.737   1.648  0.00  0.00    -0.301 N 
ATOM      8  C   UNL     1       2.307   2.628   1.104  0.00  0.00    +0.126 C 
ATOM      9  C   UNL     1       2.883   2.158  -0.157  0.00  0.00    +0.126 C 
ATOM     10  C   UNL     1       2.775   5.026   1.486  0.00  0.00    +0.202 C 
ATOM     11  O   UNL     1       3.514   5.912   1.861  0.00  0.00    -0.277 OA
ENDROOT
BRANCH  10  12
ATOM     12  C   UNL     1       1.458   5.367   0.839  0.00  0.00    +0.018 C 
ATOM     13  C   UNL     1       0.329   5.194   1.858  0.00  0.00    -0.004 C 
BRANCH  12  14
ATOM     14  N   UNL     1       1.487   6.759   0.372  0.00  0.00    +0.395 N 
ATOM     15  C   UNL     1       1.745   7.646   1.515  0.00  0.00    -0.071 C 
ATOM     16  C   UNL     1       1.448   9.096   1.095  0.00  0.00    +0.024 C 
ATOM     17  C   UNL     1       2.111   9.328  -0.224  0.00  0.00    -0.010 A 
ATOM     18  C   UNL     1       2.623   8.373  -1.051  0.00  0.00    -0.047 A 
ATOM     19  C   UNL     1       3.203   8.822  -2.234  0.00  0.00    +0.010 A 
ATOM     20  C   UNL     1       3.233  10.147  -2.513  0.00  0.00    +0.045 A 
ATOM     21  S   UNL     1       2.424  10.844  -1.081  0.00  0.00    -0.101 S 
ATOM     22  C   UNL     1       2.532   6.905  -0.648  0.00  0.00    -0.005 C 
ATOM     23  H   UNL     1       0.593   6.992  -0.033  0.00  0.00    -0.079 HD
BRANCH  22  24
ATOM     24  C   UNL     1       2.181   6.071  -1.853  0.00  0.00    -0.054 A 
ATOM     25  C   UNL     1       0.857   5.801  -2.146  0.00  0.00    +0.002 A 
ATOM     26  C   UNL     1       0.536   5.036  -3.251  0.00  0.00    +0.000 A 
ATOM     27  C   UNL     1       1.538   4.541  -4.064  0.00  0.00    +0.000 A 
ATOM     28  C   UNL     1       2.862   4.812  -3.773  0.00  0.00    +0.003 A 
ATOM     29  C   UNL     1       3.183   5.580  -2.669  0.00  0.00    -0.049 A 
ATOM     30  C   UNL     1       4.626   5.880  -2.354  0.00  0.00    +0.044 C 
ENDBRANCH  22  24
ENDBRANCH  12  14
ENDBRANCH  10  12
BRANCH   1  31
ATOM     31  C   UNL     1       3.676  -0.568   0.328  0.00  0.00    +0.105 C 
BRANCH  31  32
ATOM     32  C   UNL     1       3.461  -1.181  -1.032  0.00  0.00    -0.036 A 
ATOM     33  C   UNL     1       4.517  -1.778  -1.695  0.00  0.00    +0.004 A 
ATOM     34  C   UNL     1       4.320  -2.340  -2.943  0.00  0.00    +0.000 A 
ATOM     35  C   UNL     1       3.067  -2.305  -3.527  0.00  0.00    +0.000 A 
ATOM     36  C   UNL     1       2.012  -1.709  -2.863  0.00  0.00    +0.000 A 
ATOM     37  C   UNL     1       2.208  -1.151  -1.613  0.00  0.00    +0.004 A 
ENDBRANCH  31  32
BRANCH  31  39
ATOM     38  C   UNL     1       4.225  -1.063   2.715  0.00  0.00    +0.005 C 
ATOM     39  C   UNL     1       4.169  -1.642   1.300  0.00  0.00    +0.014 C 
ENDBRANCH  31  39
ENDBRANCH   1  31
TORSDOF 6
