REMARK  Name = ZINC64395536
REMARK  9 active torsions:
REMARK  status: ('A' for Active; 'I' for Inactive)
REMARK    1  A    between atoms: C_1  and  C_2
REMARK    2  A    between atoms: C_2  and  C_3
REMARK    3  A    between atoms: C_6  and  N_9
REMARK    4  A    between atoms: C_10  and  C_12
REMARK    5  A    between atoms: C_13  and  C_29
REMARK    6  A    between atoms: C_16  and  S_18
REMARK    7  A    between atoms: S_18  and  N_21
REMARK    8  A    between atoms: N_21  and  C_22
REMARK    9  A    between atoms: C_25  and  C_28
REMARK                            x       y       z     vdW  Elec       q    Type
REMARK                         _______ _______ _______ _____ _____    ______ ____
ROOT
ATOM      1  C   UNL     1       2.817  -2.413   6.978  0.00  0.00    +0.086 C 
ATOM      2  C   UNL     1       2.324  -2.612   8.222  0.00  0.00    +0.072 C 
ATOM      3  N   UNL     1       3.316  -2.954   9.073  0.00  0.00    -0.157 NA
ATOM      4  N   UNL     1       4.436  -3.014   8.561  0.00  0.00    -0.154 NA
ATOM      5  C   UNL     1       4.303  -2.683   7.132  0.00  0.00    +0.327 C 
ATOM      6  C   UNL     1       0.873  -2.472   8.604  0.00  0.00    +0.068 C 
ENDROOT
BRANCH   1   8
ATOM      7  N   UNL     1       2.745  -1.883   4.597  0.00  0.00    -0.282 N 
ATOM      8  C   UNL     1       2.085  -2.032   5.762  0.00  0.00    +0.250 C 
ATOM      9  O   UNL     1       0.883  -1.851   5.808  0.00  0.00    -0.270 OA
ATOM     10  H   UNL     1       3.688  -2.103   4.543  0.00  0.00    +0.155 HD
BRANCH   7  14
ATOM     11  C   UNL     1       0.736  -0.478   1.230  0.00  0.00    -0.048 A 
ATOM     12  C   UNL     1       1.762  -1.395   1.089  0.00  0.00    +0.005 A 
ATOM     13  C   UNL     1       2.430  -1.863   2.203  0.00  0.00    +0.023 A 
ATOM     14  C   UNL     1       2.071  -1.411   3.467  0.00  0.00    +0.034 A 
ATOM     15  C   UNL     1       1.041  -0.489   3.605  0.00  0.00    +0.023 A 
ATOM     16  C   UNL     1       0.381  -0.022   2.486  0.00  0.00    +0.005 A 
BRANCH  11  18
ATOM     17  C   UNL     1       0.717   1.278  -0.521  0.00  0.00    +0.009 C 
ATOM     18  C   UNL     1       0.009   0.031   0.012  0.00  0.00    +0.032 C 
ENDBRANCH  11  18
ENDBRANCH   7  14
ENDBRANCH   1   8
BRANCH   5  19
ATOM     19  S   UNL     1       5.269  -1.202   6.728  0.00  0.00    +0.092 S 
ATOM     20  O   UNL     1       5.159  -0.909   5.341  0.00  0.00    -0.151 OA
ATOM     21  O   UNL     1       5.045  -0.191   7.701  0.00  0.00    -0.151 OA
BRANCH  19  22
ATOM     22  N   UNL     1       6.848  -1.652   6.941  0.00  0.00    -0.100 NA
BRANCH  22  23
ATOM     23  C   UNL     1       7.874  -0.732   6.710  0.00  0.00    +0.074 A 
ATOM     24  C   UNL     1       7.571   0.562   6.308  0.00  0.00    +0.027 A 
ATOM     25  C   UNL     1       8.587   1.469   6.081  0.00  0.00    +0.005 A 
ATOM     26  C   UNL     1       9.905   1.090   6.254  0.00  0.00    -0.050 A 
ATOM     27  C   UNL     1      10.211  -0.198   6.655  0.00  0.00    +0.005 A 
ATOM     28  C   UNL     1       9.199  -1.108   6.889  0.00  0.00    +0.027 A 
ATOM     29  C   UNL     1      11.012   2.082   6.005  0.00  0.00    +0.044 C 
ENDBRANCH  22  23
ENDBRANCH  19  22
ENDBRANCH   5  19
TORSDOF 6
