REMARK  Name = ZINC24017226
REMARK  9 active torsions:
REMARK  status: ('A' for Active; 'I' for Inactive)
REMARK    1  A    between atoms: C_1  and  C_2
REMARK    2  A    between atoms: C_2  and  N_3
REMARK    3  A    between atoms: C_13  and  S_14
REMARK    4  A    between atoms: S_14  and  C_15
REMARK    5  A    between atoms: C_15  and  C_17
REMARK    6  A    between atoms: C_15  and  C_18
REMARK    7  A    between atoms: N_20  and  C_21
REMARK    8  A    between atoms: C_23  and  N_28
REMARK    9  A    between atoms: C_26  and  C_27
REMARK                            x       y       z     vdW  Elec       q    Type
REMARK                         _______ _______ _______ _____ _____    ______ ____
ROOT
ATOM      1  C   UNL     1      -6.191  -0.909  -0.190  0.00  0.00    +0.137 C 
ATOM      2  C   UNL     1      -6.811  -1.066   1.200  0.00  0.00    +0.029 C 
ENDROOT
BRANCH   1   3
ATOM      3  C   UNL     1      -4.894  -0.149  -0.078  0.00  0.00    +0.230 C 
ATOM      4  O   UNL     1      -3.839  -0.747  -0.087  0.00  0.00    -0.274 OA
ATOM      5  N   UNL     1      -4.907   1.194   0.031  0.00  0.00    -0.284 N 
ATOM      6  H   UNL     1      -5.865   1.730   0.113  0.00  0.00    +0.155 HD
BRANCH   5   7
ATOM      7  C   UNL     1      -3.703   1.907   0.041  0.00  0.00    +0.038 A 
ATOM      8  C   UNL     1      -2.575   1.360   0.638  0.00  0.00    +0.056 A 
ATOM      9  C   UNL     1      -1.388   2.066   0.645  0.00  0.00    +0.128 A 
ATOM     10  C   UNL     1      -1.324   3.319   0.063  0.00  0.00    +0.033 A 
ATOM     11  C   UNL     1      -2.444   3.864  -0.537  0.00  0.00    +0.007 A 
ATOM     12  C   UNL     1      -3.634   3.163  -0.548  0.00  0.00    -0.029 A 
ATOM     13  C   UNL     1      -4.856   3.760  -1.196  0.00  0.00    +0.045 C 
BRANCH   9  14
ATOM     14  N   UNL     1      -0.186   1.483   1.281  0.00  0.00    +0.056 N 
ATOM     15  O   UNL     1      -0.243   0.382   1.798  0.00  0.00    -0.126 OA
ATOM     16  O   UNL     1       0.863   2.103   1.284  0.00  0.00    -0.126 OA
ENDBRANCH   9  14
ENDBRANCH   5   7
ENDBRANCH   1   3
BRANCH   1  17
ATOM     17  S   UNL     1      -5.873  -2.544  -0.898  0.00  0.00    -0.075 S 
BRANCH  17  28
ATOM     18  N   UNL     1      -7.724  -4.383  -1.575  0.00  0.00    -0.288 N 
ATOM     19  C   UNL     1      -8.975  -4.881  -1.708  0.00  0.00    +0.262 A 
ATOM     20  O   UNL     1      -9.166  -5.993  -2.166  0.00  0.00    -0.267 OA
ATOM     21  C   UNL     1     -10.094  -4.029  -1.284  0.00  0.00    +0.066 A 
ATOM     22  C   UNL     1     -11.419  -4.451  -1.386  0.00  0.00    +0.030 A 
ATOM     23  C   UNL     1     -12.430  -3.610  -0.974  0.00  0.00    +0.019 A 
ATOM     24  C   UNL     1     -12.138  -2.352  -0.460  0.00  0.00    +0.017 A 
ATOM     25  C   UNL     1     -10.847  -1.920  -0.351  0.00  0.00    +0.029 A 
ATOM     26  C   UNL     1      -9.799  -2.750  -0.761  0.00  0.00    +0.079 A 
ATOM     27  N   UNL     1      -8.507  -2.358  -0.670  0.00  0.00    -0.223 NA
ATOM     28  C   UNL     1      -7.526  -3.136  -1.054  0.00  0.00    +0.173 A 
ATOM     29 BR   UNL     1     -14.231  -4.172  -1.108  0.00  0.00    -0.050 Br
BRANCH  18  31
ATOM     30  C   UNL     1      -6.094  -6.036  -0.805  0.00  0.00    +0.027 C 
ATOM     31  C   UNL     1      -6.572  -5.190  -1.986  0.00  0.00    +0.124 C 
ENDBRANCH  18  31
ENDBRANCH  17  28
ENDBRANCH   1  17
TORSDOF 6
