REMARK  Name = ZINC10308044
REMARK  6 active torsions:
REMARK  status: ('A' for Active; 'I' for Inactive)
REMARK    1  A    between atoms: C_1  and  C_2
REMARK    2  A    between atoms: C_4  and  N_7
REMARK    3  A    between atoms: C_8  and  C_10
REMARK    4  A    between atoms: C_10  and  S_11
REMARK    5  A    between atoms: S_11  and  C_12
REMARK    6  A    between atoms: N_17  and  C_18
REMARK                            x       y       z     vdW  Elec       q    Type
REMARK                         _______ _______ _______ _____ _____    ______ ____
ROOT
ATOM      1  C   UNL     1       0.110  -8.493  -2.062  0.00  0.00    +0.160 A 
ATOM      2  N   UNL     1       0.108  -8.435  -3.379  0.00  0.00    -0.133 NA
ATOM      3  N   UNL     1       0.119  -9.597  -4.115  0.00  0.00    -0.125 NA
ATOM      4  C   UNL     1       0.132 -10.764  -3.500  0.00  0.00    +0.183 A 
ATOM      5  S   UNL     1       0.136 -10.258  -1.787  0.00  0.00    -0.025 S 
ATOM      6  N   UNL     1       0.145 -12.044  -4.040  0.00  0.00    -0.319 N 
ATOM      7  H   UNL     1       0.153 -12.818  -3.455  0.00  0.00    +0.148 HD
ENDROOT
BRANCH   6   8
ATOM      8  C   UNL     1       0.145 -12.226  -5.494  0.00  0.00    +0.072 C 
ATOM      9  C   UNL     1      -1.293 -12.179  -6.015  0.00  0.00    +0.022 C 
ATOM     10  C   UNL     1      -1.292 -12.369  -7.533  0.00  0.00    +0.002 C 
ATOM     11  C   UNL     1      -0.668 -13.723  -7.877  0.00  0.00    +0.000 C 
ATOM     12  C   UNL     1       0.769 -13.770  -7.357  0.00  0.00    +0.002 C 
ATOM     13  C   UNL     1       0.769 -13.580  -5.838  0.00  0.00    +0.022 C 
ENDBRANCH   6   8
BRANCH   1  14
ATOM     14  S   UNL     1       0.098  -7.180  -0.886  0.00  0.00    -0.088 S 
BRANCH  14  15
ATOM     15  C   UNL     1       0.071  -5.679  -1.905  0.00  0.00    +0.172 C 
BRANCH  15  17
ATOM     16  N   UNL     1       0.039  -3.231  -1.552  0.00  0.00    -0.254 N 
ATOM     17  C   UNL     1       0.059  -4.466  -1.011  0.00  0.00    +0.230 C 
ATOM     18  O   UNL     1       0.068  -4.600   0.194  0.00  0.00    -0.274 OA
ATOM     19  H   UNL     1       0.033  -3.124  -2.516  0.00  0.00    +0.158 HD
BRANCH  16  23
ATOM     20  C   UNL     1      -0.018   1.503   0.010  0.00  0.00    +0.069 C 
ATOM     21  C   UNL     1       0.002  -0.004   0.002  0.00  0.00    +0.082 A 
ATOM     22  C   UNL     1       0.008  -0.820  -1.138  0.00  0.00    +0.092 A 
ATOM     23  C   UNL     1       0.028  -2.114  -0.729  0.00  0.00    +0.224 A 
ATOM     24  O   UNL     1       0.035  -2.120   0.615  0.00  0.00    -0.339 OA
ATOM     25  N   UNL     1       0.023  -0.774   1.055  0.00  0.00    -0.081 NA
ENDBRANCH  16  23
ENDBRANCH  15  17
ENDBRANCH  14  15
ENDBRANCH   1  14
TORSDOF 5
