REMARK  Name = ZINC22707997
REMARK  7 active torsions:
REMARK  status: ('A' for Active; 'I' for Inactive)
REMARK    1  A    between atoms: C_1  and  C_2
REMARK    2  A    between atoms: C_4  and  N_18
REMARK    3  A    between atoms: C_6  and  C_9
REMARK    4  A    between atoms: C_7  and  O_8
REMARK    5  A    between atoms: N_18  and  C_19
REMARK    6  A    between atoms: C_19  and  N_21
REMARK    7  A    between atoms: C_22  and  C_24
REMARK                            x       y       z     vdW  Elec       q    Type
REMARK                         _______ _______ _______ _____ _____    ______ ____
ROOT
ATOM      1  C   UNL     1      -0.863   1.341   0.122  0.00  0.00    +0.047 C 
ATOM      2  C   UNL     1      -0.411  -0.095   0.063  0.00  0.00    -0.007 A 
ATOM      3  C   UNL     1      -0.398  -0.764  -1.145  0.00  0.00    +0.030 A 
ATOM      4  C   UNL     1       0.018  -2.089  -1.209  0.00  0.00    +0.034 A 
ATOM      5  C   UNL     1       0.421  -2.748  -0.059  0.00  0.00    +0.040 A 
ATOM      6  C   UNL     1       0.410  -2.077   1.165  0.00  0.00    +0.080 A 
ATOM      7  C   UNL     1      -0.004  -0.740   1.220  0.00  0.00    +0.132 A 
ENDROOT
BRANCH   6   8
ATOM      8  C   UNL     1       0.838  -2.772   2.396  0.00  0.00    +0.232 A 
ATOM      9  N   UNL     1       0.860  -2.238   3.591  0.00  0.00    -0.209 NA
ATOM     10  C   UNL     1       1.308  -3.166   4.476  0.00  0.00    +0.110 A 
ATOM     11  C   UNL     1       1.530  -3.155   5.855  0.00  0.00    +0.031 A 
ATOM     12  C   UNL     1       2.002  -4.287   6.479  0.00  0.00    +0.002 A 
ATOM     13  C   UNL     1       2.257  -5.438   5.748  0.00  0.00    +0.004 A 
ATOM     14  C   UNL     1       2.042  -5.464   4.385  0.00  0.00    +0.048 A 
ATOM     15  C   UNL     1       1.567  -4.333   3.739  0.00  0.00    +0.156 A 
ATOM     16  O   UNL     1       1.258  -4.050   2.454  0.00  0.00    -0.435 OA
ENDBRANCH   6   8
BRANCH   7  17
ATOM     17  O   UNL     1      -0.013  -0.078   2.407  0.00  0.00    -0.506 OA
ATOM     18  H   UNL     1      -0.845  -0.154   2.893  0.00  0.00    +0.292 HD
ENDBRANCH   7  17
BRANCH   4  19
ATOM     19  N   UNL     1       0.028  -2.760  -2.438  0.00  0.00    -0.297 N 
ATOM     20  H   UNL     1      -0.732  -2.689  -3.036  0.00  0.00    +0.154 HD
BRANCH  19  21
ATOM     21  C   UNL     1       1.094  -3.506  -2.790  0.00  0.00    +0.141 C 
ATOM     22  S   UNL     1       2.389  -3.720  -1.691  0.00  0.00    -0.018 S 
BRANCH  21  23
ATOM     23  N   UNL     1       1.141  -4.082  -4.008  0.00  0.00    -0.264 N 
ATOM     24  C   UNL     1       2.208  -4.827  -4.360  0.00  0.00    +0.250 C 
ATOM     25  O   UNL     1       3.127  -4.979  -3.580  0.00  0.00    -0.270 OA
ATOM     26  H   UNL     1       0.408  -3.960  -4.631  0.00  0.00    +0.157 HD
BRANCH  24  27
ATOM     27  C   UNL     1       2.260  -5.458  -5.694  0.00  0.00    +0.039 A 
ATOM     28  C   UNL     1       1.207  -5.280  -6.595  0.00  0.00    +0.014 A 
ATOM     29  C   UNL     1       1.261  -5.872  -7.840  0.00  0.00    +0.022 A 
ATOM     30  C   UNL     1       2.355  -6.641  -8.198  0.00  0.00    +0.059 A 
ATOM     31  C   UNL     1       3.403  -6.822  -7.308  0.00  0.00    +0.060 A 
ATOM     32  C   UNL     1       3.363  -6.231  -6.062  0.00  0.00    +0.034 A 
ATOM     33 CL   UNL     1       4.771  -7.789  -7.765  0.00  0.00    -0.082 Cl
ATOM     34 CL   UNL     1       2.415  -7.383  -9.766  0.00  0.00    -0.082 Cl
ENDBRANCH  24  27
ENDBRANCH  21  23
ENDBRANCH  19  21
ENDBRANCH   4  19
TORSDOF 6
