REMARK  Name = ZINC08856583
REMARK  8 active torsions:
REMARK  status: ('A' for Active; 'I' for Inactive)
REMARK    1  A    between atoms: C_1  and  C_2
REMARK    2  A    between atoms: C_2  and  C_3
REMARK    3  A    between atoms: C_2  and  C_4
REMARK    4  A    between atoms: C_4  and  C_5
REMARK    5  A    between atoms: C_5  and  C_33
REMARK    6  A    between atoms: C_10  and  C_12
REMARK    7  A    between atoms: C_17  and  O_18
REMARK    8  A    between atoms: N_23  and  C_26
REMARK                            x       y       z     vdW  Elec       q    Type
REMARK                         _______ _______ _______ _____ _____    ______ ____
ROOT
ATOM      1  C   UNL     1       3.243   0.207   1.152  0.00  0.00    +0.048 C 
ATOM      2  C   UNL     1       2.547  -0.385  -0.091  0.00  0.00    +0.086 C 
ATOM      3  C   UNL     1       2.244  -1.860   0.287  0.00  0.00    +0.077 C 
ATOM      4  C   UNL     1       2.786  -2.020   1.722  0.00  0.00    -0.023 C 
ATOM      5  C   UNL     1       0.733  -1.910   0.317  0.00  0.00    +0.229 C 
ATOM      6  O   UNL     1       0.070  -2.892   0.574  0.00  0.00    -0.275 OA
ATOM      7  N   UNL     1       0.243  -0.702   0.017  0.00  0.00    -0.210 N 
ATOM      8  C   UNL     1       1.172   0.229  -0.230  0.00  0.00    +0.229 C 
ATOM      9  O   UNL     1       0.946   1.384  -0.520  0.00  0.00    -0.275 OA
ATOM     10  N   UNL     1       2.797  -0.655   2.247  0.00  0.00    +0.396 N 
ATOM     11  H   UNL     1       1.854  -0.384   2.550  0.00  0.00    -0.083 HD
ATOM     12  H   UNL     1       3.445  -0.585   3.041  0.00  0.00    -0.083 HD
ENDROOT
BRANCH   4  13
ATOM     13  C   UNL     1       1.880  -2.914   2.529  0.00  0.00    -0.016 A 
ATOM     14  C   UNL     1       0.932  -2.360   3.368  0.00  0.00    +0.025 A 
ATOM     15  C   UNL     1       0.099  -3.179   4.109  0.00  0.00    +0.043 A 
ATOM     16  C   UNL     1       0.213  -4.555   4.012  0.00  0.00    +0.043 A 
ATOM     17  C   UNL     1       1.159  -5.113   3.174  0.00  0.00    +0.084 A 
ATOM     18  C   UNL     1       1.993  -4.292   2.426  0.00  0.00    +0.137 A 
ATOM     19 CL   UNL     1       1.302  -6.838   3.051  0.00  0.00    -0.080 Cl
ATOM     20 CL   UNL     1      -1.090  -2.480   5.163  0.00  0.00    -0.083 Cl
BRANCH  18  21
ATOM     21  O   UNL     1       2.921  -4.838   1.596  0.00  0.00    -0.505 OA
ATOM     22  H   UNL     1       3.778  -4.998   2.016  0.00  0.00    +0.292 HD
ENDBRANCH  18  21
ENDBRANCH   4  13
BRANCH   7  23
ATOM     23  C   UNL     1      -1.132  -0.435  -0.041  0.00  0.00    +0.045 A 
ATOM     24  C   UNL     1      -1.911  -1.008  -1.037  0.00  0.00    +0.024 A 
ATOM     25  C   UNL     1      -3.267  -0.747  -1.089  0.00  0.00    +0.003 A 
ATOM     26  C   UNL     1      -3.847   0.093  -0.156  0.00  0.00    +0.020 A 
ATOM     27  C   UNL     1      -3.073   0.670   0.835  0.00  0.00    +0.043 A 
ATOM     28  C   UNL     1      -1.716   0.408   0.894  0.00  0.00    +0.044 A 
ATOM     29 CL   UNL     1      -3.805   1.724   2.004  0.00  0.00    -0.083 Cl
ENDBRANCH   7  23
BRANCH   1  30
ATOM     30  C   UNL     1       2.813   1.635   1.365  0.00  0.00    +0.346 C 
ATOM     31  O   UNL     1       3.504   2.541   0.962  0.00  0.00    -0.248 OA
ATOM     32  O   UNL     1       1.662   1.902   2.002  0.00  0.00    -0.248 OA
ENDBRANCH   1  30
BRANCH   1  33
ATOM     33  C   UNL     1       4.764   0.126   1.004  0.00  0.00    +0.002 C 
BRANCH  33  35
ATOM     34  C   UNL     1       5.127  -0.232   3.449  0.00  0.00    +0.007 C 
ATOM     35  C   UNL     1       5.430   0.685   2.262  0.00  0.00    -0.018 C 
ATOM     36  C   UNL     1       6.943   0.759   2.048  0.00  0.00    +0.007 C 
ENDBRANCH  33  35
ENDBRANCH   1  33
TORSDOF 6
