REMARK  Name = ZINC67021986
REMARK  5 active torsions:
REMARK  status: ('A' for Active; 'I' for Inactive)
REMARK    1  A    between atoms: C_1  and  C_2
REMARK    2  A    between atoms: N_4  and  C_5
REMARK    3  A    between atoms: C_5  and  C_6
REMARK    4  A    between atoms: C_9  and  C_11
REMARK    5  A    between atoms: C_16  and  C_19
REMARK                            x       y       z     vdW  Elec       q    Type
REMARK                         _______ _______ _______ _____ _____    ______ ____
ROOT
ATOM      1  C   UNL     1      -6.248  -4.050   1.060  0.00  0.00    +0.256 C 
ATOM      2  O   UNL     1      -7.156  -4.383   0.320  0.00  0.00    -0.269 OA
ATOM      3  N   UNL     1      -6.410  -4.115   2.397  0.00  0.00    -0.260 N 
ATOM      4  C   UNL     1      -7.613  -4.561   2.929  0.00  0.00    +0.165 A 
ATOM      5  N   UNL     1      -7.969  -4.692   4.194  0.00  0.00    -0.225 NA
ATOM      6  C   UNL     1      -9.171  -5.138   4.527  0.00  0.00    +0.080 A 
ATOM      7  C   UNL     1     -10.060  -5.469   3.543  0.00  0.00    +0.076 A 
ATOM      8  S   UNL     1      -9.092  -5.103   2.085  0.00  0.00    -0.060 S 
ATOM      9  H   UNL     1      -5.687  -3.851   2.986  0.00  0.00    +0.157 HD
ENDROOT
BRANCH   6  10
ATOM     10  C   UNL     1      -9.548  -5.277   5.955  0.00  0.00    +0.001 A 
ATOM     11  C   UNL     1     -10.812  -5.752   6.301  0.00  0.00    +0.013 A 
ATOM     12  C   UNL     1     -11.158  -5.880   7.630  0.00  0.00    +0.039 A 
ATOM     13  C   UNL     1     -10.253  -5.536   8.621  0.00  0.00    +0.123 A 
ATOM     14  C   UNL     1      -8.995  -5.063   8.281  0.00  0.00    +0.039 A 
ATOM     15  C   UNL     1      -8.638  -4.937   6.955  0.00  0.00    +0.013 A 
ATOM     16  F   UNL     1     -10.597  -5.662   9.921  0.00  0.00    -0.205 F 
ENDBRANCH   6  10
BRANCH   1  20
ATOM     17  C   UNL     1      -2.550  -2.680   0.012  0.00  0.00    +0.008 A 
ATOM     18  C   UNL     1      -3.340  -2.968  -1.052  0.00  0.00    +0.013 A 
ATOM     19  C   UNL     1      -4.612  -3.439  -0.832  0.00  0.00    +0.021 A 
ATOM     20  C   UNL     1      -4.980  -3.580   0.498  0.00  0.00    +0.075 A 
ATOM     21  S   UNL     1      -3.505  -3.045   1.345  0.00  0.00    -0.087 S 
BRANCH  17  22
ATOM     22  C   UNL     1      -1.136  -2.159   0.001  0.00  0.00    +0.146 C 
BRANCH  22  26
ATOM     23  C   UNL     1      -0.018   1.503   0.010  0.00  0.00    +0.109 C 
ATOM     24  C   UNL     1       0.002  -0.004   0.002  0.00  0.00    +0.210 C 
ATOM     25  O   UNL     1       1.060  -0.596  -0.011  0.00  0.00    -0.276 OA
ATOM     26  N   UNL     1      -1.156  -0.694   0.009  0.00  0.00    -0.311 N 
ATOM     27  H   UNL     1      -2.002  -0.220   0.020  0.00  0.00    +0.149 HD
ENDBRANCH  22  26
ENDBRANCH  17  22
ENDBRANCH   1  20
TORSDOF 4
