REMARK  Name = ZINC37550083
REMARK  7 active torsions:
REMARK  status: ('A' for Active; 'I' for Inactive)
REMARK    1  A    between atoms: C_3  and  N_13
REMARK    2  A    between atoms: C_6  and  C_7
REMARK    3  A    between atoms: C_8  and  C_9
REMARK    4  A    between atoms: C_9  and  C_10
REMARK    5  A    between atoms: C_10  and  O_11
REMARK    6  A    between atoms: C_14  and  C_16
REMARK    7  A    between atoms: C_16  and  N_17
REMARK                            x       y       z     vdW  Elec       q    Type
REMARK                         _______ _______ _______ _____ _____    ______ ____
ROOT
ATOM      1  C   UNL     1      -0.019   1.404  -0.018  0.00  0.00    +0.019 A 
ATOM      2  C   UNL     1       1.168   2.104  -0.015  0.00  0.00    +0.027 A 
ATOM      3  C   UNL     1       2.379   1.424  -0.023  0.00  0.00    +0.069 A 
ATOM      4  C   UNL     1       2.397   0.032  -0.033  0.00  0.00    +0.146 A 
ATOM      5  C   UNL     1       1.212  -0.675  -0.036  0.00  0.00    +0.057 A 
ATOM      6  C   UNL     1      -0.005   0.008  -0.028  0.00  0.00    +0.028 A 
ATOM      7  F   UNL     1       3.577  -0.627  -0.041  0.00  0.00    -0.204 F 
ENDROOT
BRANCH   3   8
ATOM      8  N   UNL     1       3.582   2.138  -0.021  0.00  0.00    -0.282 N 
ATOM      9  C   UNL     1       3.621   3.390   0.478  0.00  0.00    +0.239 C 
ATOM     10  O   UNL     1       2.641   3.859   1.016  0.00  0.00    -0.273 OA
ATOM     11  H   UNL     1       4.387   1.733  -0.379  0.00  0.00    +0.155 HD
BRANCH   9  12
ATOM     12  C   UNL     1       4.883   4.205   0.368  0.00  0.00    +0.242 C 
BRANCH  12  13
ATOM     13  N   UNL     1       4.671   5.519   0.981  0.00  0.00    -0.223 N 
ATOM     14  C   UNL     1       5.418   6.077   1.952  0.00  0.00    +0.245 A 
ATOM     15  N   UNL     1       4.886   7.248   2.208  0.00  0.00    -0.117 NA
ATOM     16  N   UNL     1       3.867   7.400   1.435  0.00  0.00    -0.023 NA
ATOM     17  N   UNL     1       3.738   6.360   0.688  0.00  0.00    -0.044 NA
ENDBRANCH  12  13
ENDBRANCH   9  12
ENDBRANCH   3   8
BRANCH   6  18
ATOM     18  C   UNL     1      -1.237  -0.722  -0.030  0.00  0.00    -0.066 C 
ATOM     19  C   UNL     1      -2.247  -1.320  -0.032  0.00  0.00    -0.095 C 
BRANCH  19  20
ATOM     20  C   UNL     1      -3.514  -2.071  -0.034  0.00  0.00    +0.117 C 
BRANCH  20  21
ATOM     21  C   UNL     1      -3.217  -3.572  -0.045  0.00  0.00    +0.168 C 
BRANCH  21  22
ATOM     22  O   UNL     1      -4.447  -4.300  -0.048  0.00  0.00    -0.394 OA
ATOM     23  H   UNL     1      -4.335  -5.261  -0.055  0.00  0.00    +0.209 HD
ENDBRANCH  21  22
ENDBRANCH  20  21
ENDBRANCH  19  20
ENDBRANCH   6  18
TORSDOF 7
