REMARK  Name = ZINC28308798
REMARK  9 active torsions:
REMARK  status: ('A' for Active; 'I' for Inactive)
REMARK    1  A    between atoms: C_1  and  C_2
REMARK    2  A    between atoms: C_5  and  N_9
REMARK    3  A    between atoms: C_6  and  C_8
REMARK    4  A    between atoms: C_10  and  C_12
REMARK    5  A    between atoms: C_12  and  N_22
REMARK    6  A    between atoms: C_13  and  C_14
REMARK    7  A    between atoms: C_17  and  O_20
REMARK    8  A    between atoms: O_20  and  C_21
REMARK    9  A    between atoms: C_23  and  C_25
REMARK                            x       y       z     vdW  Elec       q    Type
REMARK                         _______ _______ _______ _____ _____    ______ ____
ROOT
ATOM      1  C   UNL     1      -3.577   2.251   0.344  0.00  0.00    +0.097 C 
ATOM      2  C   UNL     1      -4.763   1.686   0.013  0.00  0.00    +0.036 C 
ENDROOT
BRANCH   2   3
ATOM      3  C   UNL     1      -4.882   0.224  -0.074  0.00  0.00    -0.023 A 
ATOM      4  C   UNL     1      -3.834  -0.535  -0.607  0.00  0.00    +0.011 A 
ATOM      5  C   UNL     1      -3.949  -1.906  -0.682  0.00  0.00    +0.046 A 
ATOM      6  C   UNL     1      -5.107  -2.534  -0.240  0.00  0.00    +0.120 A 
ATOM      7  C   UNL     1      -6.152  -1.784   0.286  0.00  0.00    +0.046 A 
ATOM      8  C   UNL     1      -6.046  -0.414   0.370  0.00  0.00    +0.011 A 
BRANCH   6   9
ATOM      9  O   UNL     1      -5.217  -3.885  -0.322  0.00  0.00    -0.495 OA
ATOM     10  C   UNL     1      -4.105  -4.594  -0.872  0.00  0.00    +0.277 C 
ENDBRANCH   6   9
ENDBRANCH   2   3
BRANCH   1  12
ATOM     11  N   UNL     1      -2.453   0.836   1.983  0.00  0.00    -0.280 N 
ATOM     12  C   UNL     1      -2.452   1.404   0.761  0.00  0.00    +0.262 C 
ATOM     13  O   UNL     1      -1.519   1.216   0.003  0.00  0.00    -0.268 OA
ATOM     14  H   UNL     1      -3.321   0.962   2.648  0.00  0.00    +0.155 HD
BRANCH  11  19
ATOM     15  C   UNL     1       2.026  -2.188   3.706  0.00  0.00    +0.044 C 
ATOM     16  C   UNL     1       0.835  -1.386   3.248  0.00  0.00    -0.050 A 
ATOM     17  C   UNL     1       0.738  -0.988   1.927  0.00  0.00    +0.005 A 
ATOM     18  C   UNL     1      -0.352  -0.253   1.504  0.00  0.00    +0.024 A 
ATOM     19  C   UNL     1      -1.351   0.087   2.407  0.00  0.00    +0.037 A 
ATOM     20  C   UNL     1      -1.251  -0.315   3.733  0.00  0.00    -0.029 A 
ATOM     21  C   UNL     1      -0.158  -1.050   4.149  0.00  0.00    +0.008 A 
ATOM     22  C   UNL     1      -2.333   0.051   4.716  0.00  0.00    +0.045 C 
ENDBRANCH  11  19
ENDBRANCH   1  12
BRANCH   1  23
ATOM     23  N   UNL     1      -3.424   3.640   0.288  0.00  0.00    -0.277 N 
ATOM     24  C   UNL     1      -2.235   4.200   0.589  0.00  0.00    +0.248 C 
ATOM     25  O   UNL     1      -1.272   3.494   0.817  0.00  0.00    -0.270 OA
ATOM     26  H   UNL     1      -4.274   4.276  -0.001  0.00  0.00    +0.155 HD
BRANCH  24  27
ATOM     27  C   UNL     1      -2.103   5.670   0.640  0.00  0.00    +0.037 A 
ATOM     28  C   UNL     1      -3.206   6.483   0.373  0.00  0.00    +0.014 A 
ATOM     29  C   UNL     1      -3.078   7.855   0.429  0.00  0.00    +0.016 A 
ATOM     30  C   UNL     1      -1.855   8.427   0.738  0.00  0.00    +0.018 A 
ATOM     31  C   UNL     1      -0.756   7.626   0.998  0.00  0.00    +0.016 A 
ATOM     32  C   UNL     1      -0.873   6.253   0.951  0.00  0.00    +0.014 A 
ATOM     33 BR   UNL     1      -1.686  10.309   0.805  0.00  0.00    -0.050 Br
ENDBRANCH  24  27
ENDBRANCH   1  23
TORSDOF 6
