REMARK  Name = ZINC03670459
REMARK  8 active torsions:
REMARK  status: ('A' for Active; 'I' for Inactive)
REMARK    1  A    between atoms: C_1  and  C_2
REMARK    2  A    between atoms: C_2  and  C_3
REMARK    3  A    between atoms: C_6  and  N_9
REMARK    4  A    between atoms: C_19  and  C_20
REMARK    5  A    between atoms: C_19  and  O_31
REMARK    6  A    between atoms: N_22  and  C_23
REMARK    7  A    between atoms: C_23  and  C_24
REMARK    8  A    between atoms: C_27  and  C_30
REMARK                            x       y       z     vdW  Elec       q    Type
REMARK                         _______ _______ _______ _____ _____    ______ ____
ROOT
ATOM      1  N   UNL     1      -2.442   6.182   0.057  0.00  0.00    -0.214 N 
ATOM      2  C   UNL     1      -1.308   6.624   0.631  0.00  0.00    +0.314 C 
ATOM      3  O   UNL     1      -1.315   7.719   1.159  0.00  0.00    -0.252 OA
ATOM      4  N   UNL     1      -0.173   5.914   0.648  0.00  0.00    -0.269 N 
ATOM      5  C   UNL     1      -0.060   4.648   0.071  0.00  0.00    +0.043 A 
ATOM      6  C   UNL     1       1.141   3.953   0.116  0.00  0.00    +0.025 A 
ATOM      7  C   UNL     1       1.232   2.701  -0.461  0.00  0.00    +0.017 A 
ATOM      8  C   UNL     1       0.133   2.136  -1.083  0.00  0.00    +0.018 A 
ATOM      9  C   UNL     1      -1.066   2.828  -1.135  0.00  0.00    +0.025 A 
ATOM     10  C   UNL     1      -1.160   4.073  -0.556  0.00  0.00    +0.034 A 
ATOM     11  C   UNL     1      -2.452   4.857  -0.587  0.00  0.00    +0.247 C 
ATOM     12 BR   UNL     1       0.270   0.422  -1.869  0.00  0.00    -0.050 Br
ATOM     13  H   UNL     1       0.606   6.297   1.081  0.00  0.00    +0.156 HD
ENDROOT
BRANCH   1  17
ATOM     14  C   UNL     1      -5.882   8.532   0.101  0.00  0.00    -0.048 A 
ATOM     15  C   UNL     1      -5.692   7.569   1.075  0.00  0.00    +0.005 A 
ATOM     16  C   UNL     1      -4.552   6.789   1.063  0.00  0.00    +0.024 A 
ATOM     17  C   UNL     1      -3.598   6.971   0.072  0.00  0.00    +0.041 A 
ATOM     18  C   UNL     1      -3.790   7.942  -0.903  0.00  0.00    +0.024 A 
ATOM     19  C   UNL     1      -4.934   8.715  -0.889  0.00  0.00    +0.005 A 
BRANCH  14  21
ATOM     20  C   UNL     1      -6.874  10.640   0.949  0.00  0.00    +0.009 C 
ATOM     21  C   UNL     1      -7.127   9.382   0.116  0.00  0.00    +0.032 C 
ENDBRANCH  14  21
ENDBRANCH   1  17
BRANCH  11  22
ATOM     22  C   UNL     1      -2.848   5.045  -2.029  0.00  0.00    +0.269 C 
ATOM     23  O   UNL     1      -3.907   4.609  -2.428  0.00  0.00    -0.270 OA
ATOM     24  N   UNL     1      -2.025   5.697  -2.874  0.00  0.00    -0.307 N 
ATOM     25  H   UNL     1      -1.179   6.045  -2.555  0.00  0.00    +0.149 HD
BRANCH  24  26
ATOM     26  C   UNL     1      -2.411   5.878  -4.276  0.00  0.00    +0.139 C 
BRANCH  26  27
ATOM     27  C   UNL     1      -1.326   6.633  -5.001  0.00  0.00    -0.030 A 
ATOM     28  C   UNL     1      -1.364   8.013  -5.058  0.00  0.00    +0.005 A 
ATOM     29  C   UNL     1      -0.366   8.705  -5.719  0.00  0.00    +0.003 A 
ATOM     30  C   UNL     1       0.664   8.016  -6.332  0.00  0.00    -0.050 A 
ATOM     31  C   UNL     1       0.698   6.635  -6.280  0.00  0.00    +0.003 A 
ATOM     32  C   UNL     1      -0.296   5.944  -5.614  0.00  0.00    +0.005 A 
ATOM     33  C   UNL     1       1.748   8.770  -7.057  0.00  0.00    +0.044 C 
ENDBRANCH  26  27
ENDBRANCH  24  26
ENDBRANCH  11  22
BRANCH  11  34
ATOM     34  O   UNL     1      -3.462   4.068   0.044  0.00  0.00    -0.360 OA
ATOM     35  H   UNL     1      -3.620   3.216  -0.385  0.00  0.00    +0.213 HD
ENDBRANCH  11  34
TORSDOF 6
