REMARK  Name = ZINC24069534
REMARK  10 active torsions:
REMARK  status: ('A' for Active; 'I' for Inactive)
REMARK    1  A    between atoms: C_1  and  C_2
REMARK    2  A    between atoms: C_3  and  C_8
REMARK    3  A    between atoms: C_4  and  C_7
REMARK    4  A    between atoms: C_8  and  C_9
REMARK    5  A    between atoms: C_13  and  C_30
REMARK    6  A    between atoms: N_17  and  C_18
REMARK    7  A    between atoms: C_22  and  S_24
REMARK    8  A    between atoms: S_24  and  N_27
REMARK    9  A    between atoms: N_27  and  C_28
REMARK   10  A    between atoms: N_27  and  C_29
REMARK                            x       y       z     vdW  Elec       q    Type
REMARK                         _______ _______ _______ _____ _____    ______ ____
ROOT
ATOM      1  C   UNL     1      -1.927   8.956   4.799  0.00  0.00    +0.226 C 
ATOM      2  O   UNL     1      -2.497   9.883   5.332  0.00  0.00    -0.275 OA
ATOM      3  N   UNL     1      -0.598   8.798   4.963  0.00  0.00    -0.249 N 
ATOM      4  C   UNL     1       0.145   9.730   5.778  0.00  0.00    +0.130 C 
ATOM      5  C   UNL     1       1.651   9.416   5.858  0.00  0.00    +0.069 C 
ATOM      6  S   UNL     1       1.761   7.911   4.818  0.00  0.00    -0.085 S 
ATOM      7  C   UNL     1       0.048   7.747   4.358  0.00  0.00    +0.164 C 
ATOM      8  N   UNL     1      -0.484   6.820   3.597  0.00  0.00    -0.226 NA
ATOM      9  C   UNL     1       2.074   9.121   7.299  0.00  0.00    +0.021 C 
ENDROOT
BRANCH   8  10
ATOM     10  C   UNL     1       0.306   5.837   3.062  0.00  0.00    +0.068 A 
ATOM     11  C   UNL     1       1.532   6.162   2.479  0.00  0.00    +0.028 A 
ATOM     12  C   UNL     1       2.322   5.167   1.942  0.00  0.00    +0.004 A 
ATOM     13  C   UNL     1       1.904   3.848   1.985  0.00  0.00    +0.028 A 
ATOM     14  C   UNL     1       0.688   3.520   2.556  0.00  0.00    +0.107 A 
ATOM     15  C   UNL     1      -0.112   4.505   3.097  0.00  0.00    +0.056 A 
BRANCH  14  16
ATOM     16  S   UNL     1       0.163   1.838   2.600  0.00  0.00    +0.060 S 
ATOM     17  O   UNL     1      -0.756   1.728   3.678  0.00  0.00    -0.153 OA
ATOM     18  O   UNL     1       1.338   1.044   2.516  0.00  0.00    -0.153 OA
BRANCH  16  19
ATOM     19  N   UNL     1      -0.698   1.558   1.213  0.00  0.00    -0.183 NA
ATOM     20  C   UNL     1      -0.013   1.086   0.008  0.00  0.00    +0.131 C 
ATOM     21  C   UNL     1      -2.146   1.783   1.192  0.00  0.00    +0.131 C 
ENDBRANCH  16  19
ENDBRANCH  14  16
ENDBRANCH   8  10
BRANCH   1  22
ATOM     22  C   UNL     1      -2.703   7.979   3.953  0.00  0.00    +0.136 C 
BRANCH  22  25
ATOM     23  C   UNL     1      -5.046   7.038   5.990  0.00  0.00    +0.069 C 
ATOM     24  C   UNL     1      -5.183   7.972   4.815  0.00  0.00    +0.084 A 
ATOM     25  C   UNL     1      -4.156   8.377   3.932  0.00  0.00    +0.026 A 
ATOM     26  C   UNL     1      -4.782   9.203   3.059  0.00  0.00    +0.138 A 
ATOM     27  O   UNL     1      -6.067   9.252   3.439  0.00  0.00    -0.359 OA
ATOM     28  N   UNL     1      -6.269   8.567   4.414  0.00  0.00    -0.083 NA
ATOM     29  C   UNL     1      -4.158   9.922   1.891  0.00  0.00    +0.089 C 
ENDBRANCH  22  25
ENDBRANCH   1  22
TORSDOF 5
