REMARK  Name = ZINC02453019
REMARK  9 active torsions:
REMARK  status: ('A' for Active; 'I' for Inactive)
REMARK    1  A    between atoms: C_1  and  C_2
REMARK    2  A    between atoms: C_5  and  S_8
REMARK    3  A    between atoms: S_8  and  O_11
REMARK    4  A    between atoms: O_11  and  C_12
REMARK    5  A    between atoms: C_14  and  N_28
REMARK    6  A    between atoms: C_16  and  S_18
REMARK    7  A    between atoms: S_18  and  C_19
REMARK    8  A    between atoms: C_19  and  C_20
REMARK    9  A    between atoms: C_23  and  C_26
REMARK                            x       y       z     vdW  Elec       q    Type
REMARK                         _______ _______ _______ _____ _____    ______ ____
ROOT
ATOM      1  C   UNL     1       0.341  -0.557   1.192  0.00  0.00    +0.253 A 
ATOM      2  C   UNL     1       1.671  -0.832   1.486  0.00  0.00    +0.113 A 
ATOM      3  C   UNL     1       1.974  -1.397   2.723  0.00  0.00    +0.124 A 
ATOM      4  N   UNL     1       0.986  -1.661   3.573  0.00  0.00    -0.207 NA
ATOM      5  C   UNL     1      -0.272  -1.390   3.256  0.00  0.00    +0.194 A 
ATOM      6  N   UNL     1      -0.594  -0.849   2.090  0.00  0.00    -0.185 NA
ENDROOT
BRANCH   3   7
ATOM      7  N   UNL     1       3.288  -1.683   3.062  0.00  0.00    -0.343 N 
ATOM      8  H   UNL     1       3.491  -2.079   3.923  0.00  0.00    +0.144 HD
ATOM      9  H   UNL     1       4.003  -1.487   2.437  0.00  0.00    +0.144 HD
ENDBRANCH   3   7
BRANCH   1  10
ATOM     10  O   UNL     1       0.002  -0.004   0.002  0.00  0.00    -0.322 OA
BRANCH  10  11
ATOM     11  S   UNL     1      -0.019   1.518   0.010  0.00  0.00    +0.152 S 
ATOM     12  O   UNL     1      -0.587   1.923  -1.227  0.00  0.00    -0.131 OA
ATOM     13  O   UNL     1      -0.563   1.910   1.263  0.00  0.00    -0.131 OA
BRANCH  11  18
ATOM     14  C   UNL     1       5.720   3.381  -0.034  0.00  0.00    +0.044 C 
ATOM     15  C   UNL     1       4.287   2.916  -0.023  0.00  0.00    -0.050 A 
ATOM     16  C   UNL     1       3.618   2.708  -1.215  0.00  0.00    +0.005 A 
ATOM     17  C   UNL     1       2.303   2.281  -1.205  0.00  0.00    +0.031 A 
ATOM     18  C   UNL     1       1.657   2.062  -0.003  0.00  0.00    +0.128 A 
ATOM     19  C   UNL     1       2.324   2.274   1.189  0.00  0.00    +0.031 A 
ATOM     20  C   UNL     1       3.641   2.696   1.179  0.00  0.00    +0.005 A 
ENDBRANCH  11  18
ENDBRANCH  10  11
ENDBRANCH   1  10
BRANCH   5  21
ATOM     21  S   UNL     1      -1.548  -1.759   4.413  0.00  0.00    -0.081 S 
BRANCH  21  22
ATOM     22  C   UNL     1      -0.559  -2.450   5.762  0.00  0.00    +0.112 C 
BRANCH  22  23
ATOM     23  C   UNL     1      -1.466  -2.848   6.898  0.00  0.00    -0.037 A 
ATOM     24  C   UNL     1      -1.760  -1.937   7.896  0.00  0.00    +0.006 A 
ATOM     25  C   UNL     1      -2.593  -2.293   8.936  0.00  0.00    +0.019 A 
ATOM     26  C   UNL     1      -3.133  -3.580   8.985  0.00  0.00    +0.052 A 
ATOM     27  C   UNL     1      -2.828  -4.496   7.977  0.00  0.00    +0.019 A 
ATOM     28  C   UNL     1      -1.997  -4.125   6.940  0.00  0.00    +0.006 A 
BRANCH  26  29
ATOM     29  C   UNL     1      -3.995  -3.958  10.064  0.00  0.00    +0.099 C 
ATOM     30  N   UNL     1      -4.679  -4.258  10.920  0.00  0.00    -0.191 NA
ENDBRANCH  26  29
ENDBRANCH  22  23
ENDBRANCH  21  22
ENDBRANCH   5  21
TORSDOF 8
