REMARK  Name = ZINC13642600
REMARK  9 active torsions:
REMARK  status: ('A' for Active; 'I' for Inactive)
REMARK    1  A    between atoms: C_1  and  C_2
REMARK    2  A    between atoms: C_2  and  N_3
REMARK    3  A    between atoms: C_14  and  C_16
REMARK    4  A    between atoms: C_27  and  S_32
REMARK    5  A    between atoms: S_32  and  N_35
REMARK    6  A    between atoms: N_35  and  C_36
REMARK    7  A    between atoms: C_36  and  C_37
REMARK    8  A    between atoms: C_36  and  C_38
REMARK    9  A    between atoms: C_36  and  C_39
REMARK                            x       y       z     vdW  Elec       q    Type
REMARK                         _______ _______ _______ _____ _____    ______ ____
ROOT
ATOM      1  C   UNL     1      -2.040   1.296  -0.856  0.00  0.00    +0.105 C 
ATOM      2  C   UNL     1      -2.849   0.391  -1.768  0.00  0.00    +0.029 C 
ATOM      3  C   UNL     1      -3.417   1.015  -3.049  0.00  0.00    +0.033 C 
ATOM      4  C   UNL     1      -3.458  -0.193  -3.987  0.00  0.00    -0.030 C 
ATOM      5  C   UNL     1      -2.543  -1.093  -3.613  0.00  0.00    -0.023 C 
ATOM      6  C   UNL     1      -1.807  -0.556  -2.440  0.00  0.00    +0.049 C 
ATOM      7  C   UNL     1      -1.254  -1.442  -1.392  0.00  0.00    -0.018 A 
ATOM      8  C   UNL     1      -0.887  -2.746  -1.643  0.00  0.00    +0.034 A 
ATOM      9  C   UNL     1      -0.343  -3.524  -0.638  0.00  0.00    +0.106 A 
ATOM     10  C   UNL     1      -0.165  -2.993   0.627  0.00  0.00    +0.030 A 
ATOM     11  C   UNL     1      -0.535  -1.690   0.890  0.00  0.00    +0.025 A 
ATOM     12  C   UNL     1      -1.088  -0.902  -0.112  0.00  0.00    +0.031 A 
ATOM     13  N   UNL     1      -1.470   0.412   0.184  0.00  0.00    -0.336 N 
ATOM     14  H   UNL     1      -1.359   0.749   1.087  0.00  0.00    +0.147 HD
ENDROOT
BRANCH   1  26
ATOM     15  N   UNL     1       1.928   3.977  -3.850  0.00  0.00    -0.340 N 
ATOM     16  C   UNL     1       1.213   5.051  -4.347  0.00  0.00    +0.050 A 
ATOM     17  C   UNL     1       1.571   6.115  -5.169  0.00  0.00    +0.026 A 
ATOM     18  C   UNL     1       0.636   7.066  -5.516  0.00  0.00    +0.002 A 
ATOM     19  C   UNL     1      -0.668   6.973  -5.053  0.00  0.00    +0.001 A 
ATOM     20  C   UNL     1      -1.043   5.926  -4.239  0.00  0.00    +0.010 A 
ATOM     21  C   UNL     1      -0.107   4.959  -3.880  0.00  0.00    +0.008 A 
ATOM     22  C   UNL     1      -0.172   3.743  -3.049  0.00  0.00    +0.008 A 
ATOM     23  C   UNL     1       1.113   3.179  -3.067  0.00  0.00    +0.050 A 
ATOM     24  C   UNL     1       1.353   2.007  -2.357  0.00  0.00    +0.027 A 
ATOM     25  C   UNL     1       0.334   1.410  -1.646  0.00  0.00    +0.007 A 
ATOM     26  C   UNL     1      -0.936   1.965  -1.634  0.00  0.00    -0.026 A 
ATOM     27  C   UNL     1      -1.192   3.130  -2.325  0.00  0.00    +0.016 A 
BRANCH  15  29
ATOM     28  C   UNL     1       3.482   2.855  -5.369  0.00  0.00    +0.027 C 
ATOM     29  C   UNL     1       3.346   3.720  -4.115  0.00  0.00    +0.119 C 
ENDBRANCH  15  29
ENDBRANCH   1  26
BRANCH   9  30
ATOM     30  S   UNL     1       0.122  -5.191  -0.968  0.00  0.00    +0.059 S 
ATOM     31  O   UNL     1      -0.113  -5.923   0.228  0.00  0.00    -0.153 OA
ATOM     32  O   UNL     1      -0.478  -5.543  -2.207  0.00  0.00    -0.153 OA
BRANCH  30  33
ATOM     33  N   UNL     1       1.760  -5.202  -1.215  0.00  0.00    -0.185 NA
ATOM     34  H   UNL     1       2.344  -5.642  -0.578  0.00  0.00    +0.149 HD
BRANCH  33  35
ATOM     35  C   UNL     1       2.326  -4.549  -2.398  0.00  0.00    +0.032 C 
ATOM     36  C   UNL     1       1.841  -3.099  -2.460  0.00  0.00    +0.029 C 
ATOM     37  C   UNL     1       3.854  -4.572  -2.311  0.00  0.00    +0.029 C 
ATOM     38  C   UNL     1       1.875  -5.292  -3.657  0.00  0.00    +0.029 C 
ENDBRANCH  33  35
ENDBRANCH  30  33
ENDBRANCH   9  30
TORSDOF 5
