REMARK  Name = ZINC39711631
REMARK  11 active torsions:
REMARK  status: ('A' for Active; 'I' for Inactive)
REMARK    1  A    between atoms: C_1  and  C_2
REMARK    2  A    between atoms: C_2  and  O_3
REMARK    3  A    between atoms: O_3  and  C_4
REMARK    4  A    between atoms: C_4  and  C_6
REMARK    5  A    between atoms: N_9  and  C_12
REMARK    6  A    between atoms: C_12  and  C_14
REMARK    7  A    between atoms: C_12  and  C_29
REMARK    8  A    between atoms: N_34  and  C_35
REMARK    9  A    between atoms: C_35  and  C_36
REMARK   10  A    between atoms: C_35  and  C_37
REMARK   11  A    between atoms: C_35  and  C_38
REMARK                            x       y       z     vdW  Elec       q    Type
REMARK                         _______ _______ _______ _____ _____    ______ ____
ROOT
ATOM      1  C   UNL     1      -6.062  -4.764  -1.516  0.00  0.00    -0.010 C 
ENDROOT
BRANCH   1   2
ATOM      2  C   UNL     1      -6.012  -6.289  -1.632  0.00  0.00    +0.088 C 
ATOM      3  C   UNL     1      -5.034  -6.639  -2.736  0.00  0.00    -0.006 C 
ATOM      4  C   UNL     1      -5.504  -7.379  -3.776  0.00  0.00    -0.003 A 
ATOM      5  C   UNL     1      -4.624  -7.758  -4.882  0.00  0.00    +0.059 A 
ATOM      6  C   UNL     1      -5.125  -8.497  -5.907  0.00  0.00    +0.167 A 
ATOM      7  C   UNL     1      -6.477  -8.903  -5.922  0.00  0.00    +0.168 A 
ATOM      8  C   UNL     1      -7.346  -8.572  -4.904  0.00  0.00    +0.073 A 
ATOM      9  C   UNL     1      -6.913  -7.813  -3.809  0.00  0.00    +0.044 A 
ATOM     10  N   UNL     1      -7.771  -7.503  -2.834  0.00  0.00    -0.284 N 
ATOM     11  C   UNL     1      -7.431  -6.790  -1.775  0.00  0.00    +0.223 C 
ATOM     12  O   UNL     1      -8.258  -6.538  -0.919  0.00  0.00    -0.275 OA
ATOM     13  O   UNL     1      -6.692  -9.623  -7.061  0.00  0.00    -0.453 OA
ATOM     14  C   UNL     1      -5.596  -9.304  -7.935  0.00  0.00    +0.466 C 
ATOM     15  O   UNL     1      -4.521  -8.970  -7.038  0.00  0.00    -0.453 OA
ATOM     16  H   UNL     1      -8.687  -7.815  -2.907  0.00  0.00    +0.155 HD
ENDBRANCH   1   2
BRANCH   1  20
ATOM     17  C   UNL     1      -2.587  -2.958   0.163  0.00  0.00    +0.094 C 
ATOM     18  C   UNL     1      -3.344  -2.238  -0.957  0.00  0.00    -0.004 C 
ATOM     19  C   UNL     1      -4.762  -2.804  -1.053  0.00  0.00    -0.077 C 
ATOM     20  N   UNL     1      -4.700  -4.241  -1.347  0.00  0.00    +0.385 N 
ATOM     21  C   UNL     1      -4.038  -4.948  -0.244  0.00  0.00    -0.077 C 
ATOM     22  C   UNL     1      -2.592  -4.463  -0.117  0.00  0.00    -0.004 C 
ATOM     23  H   UNL     1      -4.178  -4.386  -2.199  0.00  0.00    -0.081 HD
BRANCH  17  24
ATOM     24  C   UNL     1      -1.165  -2.460   0.212  0.00  0.00    +0.310 C 
ATOM     25  O   UNL     1      -0.249  -3.229   0.041  0.00  0.00    -0.251 OA
BRANCH  24  26
ATOM     26  O   UNL     1      -0.917  -1.162   0.446  0.00  0.00    -0.465 OA
BRANCH  26  28
ATOM     27  C   UNL     1       0.538   0.743   0.755  0.00  0.00    +0.048 C 
ATOM     28  C   UNL     1       0.454  -0.759   0.478  0.00  0.00    +0.229 C 
ENDBRANCH  26  28
ENDBRANCH  24  26
ENDBRANCH  17  24
ENDBRANCH   1  20
BRANCH   1  29
ATOM     29  C   UNL     1      -6.681  -4.176  -2.785  0.00  0.00    +0.205 C 
ATOM     30  N   UNL     1      -5.741  -4.280  -3.910  0.00  0.00    -0.152 NA
ATOM     31  N   UNL     1      -5.477  -3.147  -4.315  0.00  0.00    -0.070 NA
ATOM     32  N   UNL     1      -6.135  -2.147  -3.599  0.00  0.00    -0.179 N 
ATOM     33  N   UNL     1      -6.909  -2.725  -2.623  0.00  0.00    -0.183 NA
ATOM     34  H   UNL     1      -6.058  -1.194  -3.764  0.00  0.00    +0.191 HD
BRANCH  33  35
ATOM     35  C   UNL     1      -8.328  -2.391  -2.808  0.00  0.00    +0.035 C 
ATOM     36  C   UNL     1      -9.165  -3.125  -1.759  0.00  0.00    +0.029 C 
ATOM     37  C   UNL     1      -8.522  -0.882  -2.651  0.00  0.00    +0.029 C 
ATOM     38  C   UNL     1      -8.774  -2.820  -4.208  0.00  0.00    +0.029 C 
ENDBRANCH  33  35
ENDBRANCH   1  29
TORSDOF 7
