REMARK  Name = ZINC20284598
REMARK  8 active torsions:
REMARK  status: ('A' for Active; 'I' for Inactive)
REMARK    1  A    between atoms: C_1  and  N_2
REMARK    2  A    between atoms: C_6  and  S_12
REMARK    3  A    between atoms: S_12  and  N_15
REMARK    4  A    between atoms: N_15  and  C_16
REMARK    5  A    between atoms: C_16  and  C_18
REMARK    6  A    between atoms: C_16  and  C_25
REMARK    7  A    between atoms: C_18  and  C_19
REMARK    8  A    between atoms: N_27  and  C_28
REMARK                            x       y       z     vdW  Elec       q    Type
REMARK                         _______ _______ _______ _____ _____    ______ ____
ROOT
ATOM      1  C   UNL     1       3.743  -0.967   0.175  0.00  0.00    +0.167 C 
ENDROOT
BRANCH   1   2
ATOM      2  C   UNL     1       2.426  -0.241   0.078  0.00  0.00    +0.236 C 
ATOM      3  O   UNL     1       1.387  -0.866   0.085  0.00  0.00    -0.274 OA
ATOM      4  N   UNL     1       2.404   1.103  -0.015  0.00  0.00    -0.282 N 
ATOM      5  H   UNL     1       3.346   1.665  -0.095  0.00  0.00    +0.155 HD
BRANCH   4   6
ATOM      6  C   UNL     1       1.179   1.785  -0.011  0.00  0.00    +0.069 A 
ATOM      7  C   UNL     1       0.064   1.215  -0.609  0.00  0.00    +0.029 A 
ATOM      8  C   UNL     1      -1.141   1.891  -0.609  0.00  0.00    +0.040 A 
ATOM      9  C   UNL     1      -1.240   3.133  -0.004  0.00  0.00    +0.126 A 
ATOM     10  C   UNL     1      -0.130   3.705   0.593  0.00  0.00    +0.078 A 
ATOM     11  C   UNL     1       1.080   3.035   0.591  0.00  0.00    +0.147 A 
ATOM     12  F   UNL     1       2.164   3.592   1.174  0.00  0.00    -0.203 F 
ATOM     13  F   UNL     1      -2.421   3.789  -0.001  0.00  0.00    -0.205 F 
ENDBRANCH   4   6
ENDBRANCH   1   2
BRANCH   1  14
ATOM     14  N   UNL     1       3.500  -2.409   0.266  0.00  0.00    -0.178 NA
ATOM     15  H   UNL     1       2.572  -2.837  -0.141  0.00  0.00    +0.149 HD
BRANCH  14  16
ATOM     16  S   UNL     1       4.492  -3.359   1.192  0.00  0.00    +0.059 S 
ATOM     17  O   UNL     1       3.988  -4.684   1.099  0.00  0.00    -0.153 OA
ATOM     18  O   UNL     1       5.826  -3.024   0.833  0.00  0.00    -0.153 OA
BRANCH  16  24
ATOM     19  C   UNL     1       4.126  -0.932   7.779  0.00  0.00    +0.156 C 
ATOM     20  N   UNL     1       3.557  -1.885   6.822  0.00  0.00    -0.277 N 
ATOM     21  C   UNL     1       3.955  -2.060   5.497  0.00  0.00    +0.090 A 
ATOM     22  C   UNL     1       4.923  -1.460   4.706  0.00  0.00    +0.031 A 
ATOM     23  C   UNL     1       5.087  -1.863   3.396  0.00  0.00    +0.031 A 
ATOM     24  C   UNL     1       4.280  -2.856   2.867  0.00  0.00    +0.109 A 
ATOM     25  C   UNL     1       3.313  -3.458   3.648  0.00  0.00    +0.077 A 
ATOM     26  C   UNL     1       3.145  -3.064   4.967  0.00  0.00    +0.159 A 
ATOM     27  O   UNL     1       2.302  -3.462   5.950  0.00  0.00    -0.407 OA
ATOM     28  C   UNL     1       2.553  -2.751   7.061  0.00  0.00    +0.421 A 
ATOM     29  O   UNL     1       1.966  -2.870   8.119  0.00  0.00    -0.223 OA
ENDBRANCH  16  24
ENDBRANCH  14  16
ENDBRANCH   1  14
BRANCH   1  30
ATOM     30  C   UNL     1       4.582  -0.669  -1.069  0.00  0.00    +0.065 C 
BRANCH  30  31
ATOM     31  C   UNL     1       5.945  -1.294  -0.918  0.00  0.00    -0.045 A 
ATOM     32  C   UNL     1       6.975  -0.575  -0.341  0.00  0.00    +0.004 A 
ATOM     33  C   UNL     1       8.224  -1.150  -0.197  0.00  0.00    +0.000 A 
ATOM     34  C   UNL     1       8.446  -2.441  -0.640  0.00  0.00    +0.000 A 
ATOM     35  C   UNL     1       7.417  -3.158  -1.222  0.00  0.00    +0.000 A 
ATOM     36  C   UNL     1       6.167  -2.585  -1.361  0.00  0.00    +0.004 A 
ENDBRANCH  30  31
ENDBRANCH   1  30
TORSDOF 7
