REMARK  Name = ZINC25777662
REMARK  7 active torsions:
REMARK  status: ('A' for Active; 'I' for Inactive)
REMARK    1  A    between atoms: C_1  and  C_2
REMARK    2  A    between atoms: C_5  and  C_8
REMARK    3  A    between atoms: C_8  and  C_9
REMARK    4  A    between atoms: C_11  and  C_29
REMARK    5  A    between atoms: C_12  and  N_23
REMARK    6  A    between atoms: C_18  and  O_19
REMARK    7  A    between atoms: O_19  and  C_20
REMARK                            x       y       z     vdW  Elec       q    Type
REMARK                         _______ _______ _______ _____ _____    ______ ____
ROOT
ATOM      1  C   UNL     1       3.324   1.576  -0.487  0.00  0.00    +0.028 A 
ATOM      2  C   UNL     1       2.362   0.597  -0.234  0.00  0.00    +0.018 A 
ATOM      3  C   UNL     1       2.681  -0.827  -0.131  0.00  0.00    +0.100 A 
ATOM      4  C   UNL     1       1.623  -1.713   0.127  0.00  0.00    +0.142 A 
ATOM      5  N   UNL     1       0.379  -1.273   0.272  0.00  0.00    -0.216 NA
ATOM      6  C   UNL     1       0.041   0.001   0.188  0.00  0.00    +0.129 A 
ATOM      7  C   UNL     1       1.010   0.991  -0.067  0.00  0.00    +0.063 A 
ATOM      8  C   UNL     1       0.691   2.358  -0.164  0.00  0.00    +0.131 A 
ATOM      9  N   UNL     1       1.645   3.241  -0.406  0.00  0.00    -0.197 NA
ATOM     10  C   UNL     1       2.918   2.895  -0.566  0.00  0.00    +0.220 A 
ATOM     11  N   UNL     1      -0.618   2.777  -0.006  0.00  0.00    -0.342 N 
ATOM     12  N   UNL     1      -1.279   0.366   0.347  0.00  0.00    -0.343 N 
ATOM     13  H   UNL     1      -0.866   3.846  -0.083  0.00  0.00    +0.144 HD
ATOM     14  H   UNL     1      -1.410   2.041   0.195  0.00  0.00    +0.144 HD
ATOM     15  H   UNL     1      -1.569   1.425   0.279  0.00  0.00    +0.144 HD
ATOM     16  H   UNL     1      -2.042  -0.402   0.543  0.00  0.00    +0.144 HD
ENDROOT
BRANCH   4  17
ATOM     17  N   UNL     1       1.881  -3.066   0.232  0.00  0.00    -0.314 N 
ATOM     18  C   UNL     1       1.287  -3.804  -0.891  0.00  0.00    +0.106 C 
ATOM     19  C   UNL     1       1.713  -5.272  -0.822  0.00  0.00    +0.019 C 
ATOM     20  C   UNL     1       1.249  -5.870   0.509  0.00  0.00    +0.003 C 
ATOM     21  C   UNL     1       1.843  -5.055   1.661  0.00  0.00    +0.019 C 
ATOM     22  C   UNL     1       1.413  -3.593   1.520  0.00  0.00    +0.106 C 
ENDBRANCH   4  17
BRANCH  10  23
ATOM     23  O   UNL     1       3.840   3.859  -0.812  0.00  0.00    -0.479 OA
ATOM     24  C   UNL     1       3.368   5.206  -0.883  0.00  0.00    +0.279 C 
ENDBRANCH  10  23
BRANCH   3  25
ATOM     25  C   UNL     1       4.024  -1.300  -0.287  0.00  0.00    +0.103 C 
ATOM     26  N   UNL     1       5.089  -1.675  -0.411  0.00  0.00    -0.191 NA
ENDBRANCH   3  25
BRANCH   1  27
ATOM     27  C   UNL     1       4.773   1.204  -0.671  0.00  0.00    +0.076 C 
BRANCH  27  32
ATOM     28  C   UNL     1       7.579   1.843   4.340  0.00  0.00    +0.044 C 
ATOM     29  C   UNL     1       6.847   1.676   3.034  0.00  0.00    -0.050 A 
ATOM     30  C   UNL     1       6.134   0.519   2.783  0.00  0.00    +0.003 A 
ATOM     31  C   UNL     1       5.463   0.366   1.584  0.00  0.00    +0.004 A 
ATOM     32  C   UNL     1       5.504   1.371   0.636  0.00  0.00    -0.043 A 
ATOM     33  C   UNL     1       6.221   2.527   0.885  0.00  0.00    +0.004 A 
ATOM     34  C   UNL     1       6.888   2.681   2.085  0.00  0.00    +0.003 A 
ENDBRANCH  27  32
ENDBRANCH   1  27
TORSDOF 5
