REMARK  Name = ZINC05564908
REMARK  9 active torsions:
REMARK  status: ('A' for Active; 'I' for Inactive)
REMARK    1  A    between atoms: C_1  and  C_2
REMARK    2  A    between atoms: C_2  and  O_3
REMARK    3  A    between atoms: O_3  and  C_4
REMARK    4  A    between atoms: C_7  and  C_12
REMARK    5  A    between atoms: C_9  and  O_10
REMARK    6  A    between atoms: O_10  and  C_11
REMARK    7  A    between atoms: C_15  and  C_26
REMARK    8  A    between atoms: C_21  and  N_25
REMARK    9  A    between atoms: C_22  and  C_23
REMARK                            x       y       z     vdW  Elec       q    Type
REMARK                         _______ _______ _______ _____ _____    ______ ____
ROOT
ATOM      1  C   UNL     1      -1.652   4.204   0.035  0.00  0.00    +0.102 C 
ATOM      2  C   UNL     1      -0.691   3.044   0.023  0.00  0.00    +0.049 A 
ATOM      3  C   UNL     1       0.697   3.052   0.010  0.00  0.00    +0.068 A 
ATOM      4  N   UNL     1       1.112   1.808   0.001  0.00  0.00    -0.176 NA
ATOM      5  N   UNL     1      -0.011   0.966   0.007  0.00  0.00    -0.246 N 
ATOM      6  H   UNL     1       0.120  -0.126   0.005  0.00  0.00    +0.192 HD
ATOM      7  C   UNL     1      -1.107   1.742   0.016  0.00  0.00    +0.222 A 
ATOM      8  O   UNL     1      -2.417   1.391   0.033  0.00  0.00    -0.423 OA
ATOM      9  C   UNL     1      -3.318   2.352   0.324  0.00  0.00    +0.200 C 
ATOM     10  C   UNL     1      -3.029   3.672   0.344  0.00  0.00    +0.098 C 
ATOM     11  C   UNL     1       1.575   4.278   0.007  0.00  0.00    +0.068 C 
ENDROOT
BRANCH   1  15
ATOM     12  C   UNL     1      -1.663   6.114  -3.792  0.00  0.00    +0.163 A 
ATOM     13  C   UNL     1      -1.302   6.828  -2.660  0.00  0.00    +0.065 A 
ATOM     14  C   UNL     1      -1.305   6.209  -1.423  0.00  0.00    +0.026 A 
ATOM     15  C   UNL     1      -1.657   4.876  -1.314  0.00  0.00    -0.017 A 
ATOM     16  C   UNL     1      -2.017   4.159  -2.440  0.00  0.00    +0.055 A 
ATOM     17  C   UNL     1      -2.022   4.774  -3.681  0.00  0.00    +0.162 A 
ATOM     18 BR   UNL     1      -0.820   7.186   0.122  0.00  0.00    -0.050 Br
BRANCH  17  19
ATOM     19  O   UNL     1      -2.377   4.070  -4.790  0.00  0.00    -0.491 OA
ATOM     20  C   UNL     1      -2.734   2.700  -4.601  0.00  0.00    +0.277 C 
ENDBRANCH  17  19
BRANCH  12  21
ATOM     21  O   UNL     1      -1.665   6.722  -5.008  0.00  0.00    -0.489 OA
BRANCH  21  23
ATOM     22  C   UNL     1      -1.349   8.606  -6.489  0.00  0.00    +0.048 C 
ATOM     23  C   UNL     1      -1.286   8.099  -5.046  0.00  0.00    +0.226 C 
ENDBRANCH  21  23
ENDBRANCH  12  21
ENDBRANCH   1  15
BRANCH   9  24
ATOM     24  N   UNL     1      -4.603   1.966   0.615  0.00  0.00    -0.328 N 
ATOM     25  H   UNL     1      -5.363   2.724   0.856  0.00  0.00    +0.145 HD
ATOM     26  H   UNL     1      -4.872   0.900   0.607  0.00  0.00    +0.145 HD
ENDBRANCH   9  24
BRANCH  10  27
ATOM     27  C   UNL     1      -4.070   4.600   0.671  0.00  0.00    +0.101 C 
ATOM     28  N   UNL     1      -4.895   5.336   0.931  0.00  0.00    -0.191 NA
ENDBRANCH  10  27
TORSDOF 6
