REMARK  Name = ZINC14584516
REMARK  7 active torsions:
REMARK  status: ('A' for Active; 'I' for Inactive)
REMARK    1  A    between atoms: C_1  and  C_2
REMARK    2  A    between atoms: C_2  and  N_3
REMARK    3  A    between atoms: N_3  and  C_4
REMARK    4  A    between atoms: C_5  and  N_20
REMARK    5  A    between atoms: N_6  and  C_13
REMARK    6  A    between atoms: C_13  and  C_14
REMARK    7  A    between atoms: C_21  and  C_23
REMARK                            x       y       z     vdW  Elec       q    Type
REMARK                         _______ _______ _______ _____ _____    ______ ____
ROOT
ATOM      1  C   UNL     1      -2.702   2.990  -0.470  0.00  0.00    +0.140 A 
ATOM      2  C   UNL     1      -3.266   4.171  -0.034  0.00  0.00    +0.128 A 
ATOM      3  N   UNL     1      -4.534   4.504  -0.450  0.00  0.00    -0.276 N 
ATOM      4  C   UNL     1      -5.217   3.687  -1.272  0.00  0.00    +0.331 A 
ATOM      5  O   UNL     1      -6.337   3.999  -1.629  0.00  0.00    -0.246 OA
ATOM      6  N   UNL     1      -4.684   2.531  -1.707  0.00  0.00    -0.273 N 
ATOM      7  H   UNL     1      -5.215   1.940  -2.314  0.00  0.00    +0.173 HD
ATOM      8  C   UNL     1      -3.443   2.162  -1.334  0.00  0.00    +0.277 A 
ATOM      9  O   UNL     1      -2.968   1.114  -1.738  0.00  0.00    -0.266 OA
ENDROOT
BRANCH   1  10
ATOM     10  N   UNL     1      -1.403   2.620  -0.061  0.00  0.00    -0.264 N 
ATOM     11  C   UNL     1      -1.192   2.180   1.197  0.00  0.00    +0.223 C 
ATOM     12  O   UNL     1      -0.063   1.946   1.575  0.00  0.00    -0.275 OA
BRANCH  11  13
ATOM     13  C   UNL     1      -2.356   1.985   2.133  0.00  0.00    +0.080 C 
ATOM     14  C   UNL     1      -1.923   2.305   3.569  0.00  0.00    +0.017 C 
ATOM     15  C   UNL     1      -3.161   2.273   4.467  0.00  0.00    +0.027 C 
ATOM     16  C   UNL     1      -3.939   1.011   4.230  0.00  0.00    -0.031 C 
ATOM     17  C   UNL     1      -3.793   0.254   3.190  0.00  0.00    -0.030 C 
ATOM     18  C   UNL     1      -2.819   0.527   2.081  0.00  0.00    +0.039 C 
ENDBRANCH  11  13
BRANCH  10  20
ATOM     19  C   UNL     1      -0.072   1.361  -1.680  0.00  0.00    +0.025 C 
ATOM     20  C   UNL     1      -0.285   2.716  -1.002  0.00  0.00    +0.110 C 
ENDBRANCH  10  20
ENDBRANCH   1  10
BRANCH   2  21
ATOM     21  N   UNL     1      -2.569   5.006   0.806  0.00  0.00    -0.343 N 
ATOM     22  H   UNL     1      -1.644   4.812   1.025  0.00  0.00    +0.144 HD
ATOM     23  H   UNL     1      -3.001   5.789   1.181  0.00  0.00    +0.144 HD
ENDBRANCH   2  21
BRANCH   3  24
ATOM     24  C   UNL     1      -5.145   5.755   0.005  0.00  0.00    +0.163 C 
BRANCH  24  25
ATOM     25  C   UNL     1      -4.808   6.860  -0.963  0.00  0.00    -0.028 A 
ATOM     26  C   UNL     1      -3.671   7.622  -0.774  0.00  0.00    +0.005 A 
ATOM     27  C   UNL     1      -3.359   8.632  -1.665  0.00  0.00    +0.000 A 
ATOM     28  C   UNL     1      -4.191   8.887  -2.739  0.00  0.00    +0.000 A 
ATOM     29  C   UNL     1      -5.331   8.128  -2.926  0.00  0.00    +0.000 A 
ATOM     30  C   UNL     1      -5.640   7.115  -2.038  0.00  0.00    +0.005 A 
ENDBRANCH  24  25
ENDBRANCH   3  24
TORSDOF 6
