REMARK  Name = ZINC25168556
REMARK  6 active torsions:
REMARK  status: ('A' for Active; 'I' for Inactive)
REMARK    1  A    between atoms: C_4  and  N_7
REMARK    2  A    between atoms: C_8  and  C_10
REMARK    3  A    between atoms: C_10  and  N_11
REMARK    4  A    between atoms: C_14  and  N_17
REMARK    5  A    between atoms: N_17  and  S_18
REMARK    6  A    between atoms: S_18  and  C_21
REMARK                            x       y       z     vdW  Elec       q    Type
REMARK                         _______ _______ _______ _____ _____    ______ ____
ROOT
ATOM      1  N   UNL     1      -1.366  -0.517   0.067  0.00  0.00    -0.187 NA
ATOM      2  H   UNL     1      -2.082  -0.075   0.775  0.00  0.00    +0.148 HD
ENDROOT
BRANCH   1   6
ATOM      3  N   UNL     1       2.135   1.547   1.182  0.00  0.00    +0.385 N 
ATOM      4  C   UNL     1       1.426   2.045  -0.004  0.00  0.00    -0.077 C 
ATOM      5  C   UNL     1      -0.012   1.522   0.002  0.00  0.00    +0.002 C 
ATOM      6  C   UNL     1       0.007  -0.009   0.002  0.00  0.00    +0.073 C 
ATOM      7  C   UNL     1       0.793  -0.502   1.221  0.00  0.00    +0.002 C 
ATOM      8  C   UNL     1       2.208   0.080   1.179  0.00  0.00    -0.077 C 
ATOM      9  H   UNL     1       1.560   1.852   2.069  0.00  0.00    -0.081 HD
BRANCH   3  10
ATOM     10  C   UNL     1       3.475   2.140   1.282  0.00  0.00    +0.019 C 
BRANCH  10  12
ATOM     11  N   UNL     1       4.459   4.379   1.655  0.00  0.00    -0.287 N 
ATOM     12  C   UNL     1       3.351   3.622   1.528  0.00  0.00    +0.201 C 
ATOM     13  O   UNL     1       2.254   4.133   1.612  0.00  0.00    -0.278 OA
ATOM     14  H   UNL     1       5.451   3.905   1.655  0.00  0.00    +0.155 HD
BRANCH  11  18
ATOM     15  C   UNL     1       4.123   8.513   2.047  0.00  0.00    +0.000 A 
ATOM     16  C   UNL     1       3.170   7.687   2.614  0.00  0.00    +0.002 A 
ATOM     17  C   UNL     1       3.278   6.316   2.486  0.00  0.00    +0.023 A 
ATOM     18  C   UNL     1       4.346   5.767   1.787  0.00  0.00    +0.033 A 
ATOM     19  C   UNL     1       5.304   6.600   1.224  0.00  0.00    +0.023 A 
ATOM     20  C   UNL     1       5.188   7.970   1.352  0.00  0.00    +0.002 A 
ENDBRANCH  11  18
ENDBRANCH  10  12
ENDBRANCH   3  10
ENDBRANCH   1   6
BRANCH   1  21
ATOM     21  S   UNL     1      -1.774  -1.906  -0.737  0.00  0.00    +0.059 S 
ATOM     22  O   UNL     1      -3.147  -2.146  -0.461  0.00  0.00    -0.153 OA
ATOM     23  O   UNL     1      -1.275  -1.771  -2.060  0.00  0.00    -0.153 OA
BRANCH  21  24
ATOM     24  C   UNL     1      -0.872  -3.223   0.009  0.00  0.00    +0.107 A 
ATOM     25  C   UNL     1       0.381  -3.562  -0.474  0.00  0.00    +0.030 A 
ATOM     26  C   UNL     1       1.095  -4.589   0.108  0.00  0.00    +0.030 A 
ATOM     27  C   UNL     1       0.554  -5.296   1.176  0.00  0.00    +0.066 A 
ATOM     28  C   UNL     1      -0.711  -4.958   1.659  0.00  0.00    +0.068 A 
ATOM     29  C   UNL     1      -1.420  -3.917   1.068  0.00  0.00    +0.056 A 
ATOM     30  N   UNL     1      -1.270  -5.654   2.728  0.00  0.00    -0.316 N 
ATOM     31  H   UNL     1      -2.268  -5.379   3.101  0.00  0.00    +0.169 HD
ATOM     32  C   UNL     1      -0.591  -6.664   3.307  0.00  0.00    +0.314 A 
ATOM     33  O   UNL     1      -1.075  -7.274   4.239  0.00  0.00    -0.262 OA
ATOM     34  C   UNL     1       0.762  -7.025   2.791  0.00  0.00    +0.314 A 
ATOM     35  O   UNL     1       1.390  -7.932   3.298  0.00  0.00    -0.262 OA
ATOM     36  N   UNL     1       1.279  -6.333   1.755  0.00  0.00    -0.316 N 
ATOM     37  H   UNL     1       2.276  -6.591   1.367  0.00  0.00    +0.169 HD
ENDBRANCH  21  24
ENDBRANCH   1  21
TORSDOF 6
