REMARK  Name = ZINC03364349
REMARK  12 active torsions:
REMARK  status: ('A' for Active; 'I' for Inactive)
REMARK    1  A    between atoms: C_1  and  C_2
REMARK    2  A    between atoms: C_7  and  N_11
REMARK    3  A    between atoms: C_12  and  C_14
REMARK    4  A    between atoms: C_14  and  C_16
REMARK    5  A    between atoms: C_14  and  N_19
REMARK    6  A    between atoms: C_16  and  C_17
REMARK    7  A    between atoms: C_16  and  C_18
REMARK    8  A    between atoms: C_20  and  C_22
REMARK    9  A    between atoms: C_25  and  C_28
REMARK   10  A    between atoms: C_28  and  C_29
REMARK   11  A    between atoms: C_28  and  C_30
REMARK   12  A    between atoms: C_28  and  C_31
REMARK                            x       y       z     vdW  Elec       q    Type
REMARK                         _______ _______ _______ _____ _____    ______ ____
ROOT
ATOM      1  C   UNL     1      -6.146   2.406  -0.225  0.00  0.00    +0.162 C 
ENDROOT
BRANCH   1   3
ATOM      2  N   UNL     1      -3.696   2.141  -0.438  0.00  0.00    -0.284 N 
ATOM      3  C   UNL     1      -4.898   1.563  -0.240  0.00  0.00    +0.238 C 
ATOM      4  O   UNL     1      -4.974   0.364  -0.074  0.00  0.00    -0.273 OA
ATOM      5  H   UNL     1      -3.628   3.106  -0.511  0.00  0.00    +0.155 HD
BRANCH   2  12
ATOM      6  C   UNL     1       1.906  -3.198   0.116  0.00  0.00    +0.073 C 
ATOM      7  C   UNL     1       0.827  -2.153  -0.002  0.00  0.00    +0.076 A 
ATOM      8  N   UNL     1       0.813  -1.087  -0.750  0.00  0.00    -0.244 NA
ATOM      9  C   UNL     1      -0.224  -0.223  -0.763  0.00  0.00    +0.079 A 
ATOM     10  C   UNL     1      -0.384   0.964  -1.514  0.00  0.00    +0.031 A 
ATOM     11  C   UNL     1      -1.511   1.715  -1.397  0.00  0.00    +0.025 A 
ATOM     12  C   UNL     1      -2.546   1.348  -0.538  0.00  0.00    +0.035 A 
ATOM     13  C   UNL     1      -2.426   0.187   0.212  0.00  0.00    +0.040 A 
ATOM     14  C   UNL     1      -1.288  -0.573   0.100  0.00  0.00    +0.041 A 
ATOM     15  S   UNL     1      -0.697  -2.080   0.827  0.00  0.00    -0.072 S 
ENDBRANCH   2  12
ENDBRANCH   1   3
BRANCH   1  16
ATOM     16  N   UNL     1      -7.324   1.536  -0.252  0.00  0.00    -0.300 N 
ATOM     17  C   UNL     1      -8.493   1.997  -0.739  0.00  0.00    +0.245 C 
ATOM     18  O   UNL     1      -8.569   3.136  -1.157  0.00  0.00    -0.270 OA
ATOM     19  H   UNL     1      -7.263   0.627   0.082  0.00  0.00    +0.150 HD
BRANCH  17  20
ATOM     20  C   UNL     1      -9.681   1.119  -0.766  0.00  0.00    +0.037 A 
ATOM     21  C   UNL     1      -9.595  -0.192  -0.292  0.00  0.00    +0.013 A 
ATOM     22  C   UNL     1     -10.709  -1.005  -0.316  0.00  0.00    +0.005 A 
ATOM     23  C   UNL     1     -11.908  -0.528  -0.817  0.00  0.00    -0.042 A 
ATOM     24  C   UNL     1     -11.998   0.768  -1.292  0.00  0.00    +0.005 A 
ATOM     25  C   UNL     1     -10.893   1.594  -1.270  0.00  0.00    +0.013 A 
BRANCH  23  26
ATOM     26  C   UNL     1     -13.119  -1.424  -0.844  0.00  0.00    -0.013 C 
ATOM     27  C   UNL     1     -13.598  -1.590  -2.288  0.00  0.00    +0.015 C 
ATOM     28  C   UNL     1     -12.754  -2.793  -0.267  0.00  0.00    +0.015 C 
ATOM     29  C   UNL     1     -14.235  -0.798  -0.006  0.00  0.00    +0.015 C 
ENDBRANCH  23  26
ENDBRANCH  17  20
ENDBRANCH   1  16
BRANCH   1  30
ATOM     30  C   UNL     1      -6.171   3.259   1.045  0.00  0.00    +0.012 C 
ATOM     31  C   UNL     1      -4.927   4.149   1.086  0.00  0.00    +0.009 C 
ATOM     32  C   UNL     1      -7.425   4.135   1.047  0.00  0.00    +0.009 C 
ENDBRANCH   1  30
TORSDOF 6
