REMARK  Name = ZINC13051108
REMARK  10 active torsions:
REMARK  status: ('A' for Active; 'I' for Inactive)
REMARK    1  A    between atoms: C_1  and  C_2
REMARK    2  A    between atoms: C_2  and  C_3
REMARK    3  A    between atoms: C_10  and  C_12
REMARK    4  A    between atoms: C_12  and  S_13
REMARK    5  A    between atoms: S_13  and  C_14
REMARK    6  A    between atoms: C_18  and  C_30
REMARK    7  A    between atoms: N_24  and  C_25
REMARK    8  A    between atoms: C_25  and  C_26
REMARK    9  A    between atoms: C_26  and  C_28
REMARK   10  A    between atoms: C_26  and  O_29
REMARK                            x       y       z     vdW  Elec       q    Type
REMARK                         _______ _______ _______ _____ _____    ______ ____
ROOT
ATOM      1  C   UNL     1       3.733   7.053  -0.210  0.00  0.00    +0.173 A 
ATOM      2  N   UNL     1       3.695   5.743  -0.222  0.00  0.00    -0.223 NA
ATOM      3  C   UNL     1       2.521   5.069  -0.258  0.00  0.00    +0.080 A 
ATOM      4  C   UNL     1       2.483   3.672  -0.272  0.00  0.00    +0.043 A 
ATOM      5  C   UNL     1       1.255   3.023  -0.310  0.00  0.00    +0.065 A 
ATOM      6  C   UNL     1       0.063   3.759  -0.339  0.00  0.00    +0.016 A 
ATOM      7  C   UNL     1       0.088   5.124  -0.321  0.00  0.00    +0.016 A 
ATOM      8  C   UNL     1       1.310   5.796  -0.283  0.00  0.00    +0.065 A 
ATOM      9  C   UNL     1       1.383   7.266  -0.268  0.00  0.00    +0.262 A 
ATOM     10  O   UNL     1       0.375   7.947  -0.288  0.00  0.00    -0.267 OA
ATOM     11  N   UNL     1       2.611   7.831  -0.232  0.00  0.00    -0.285 N 
ENDROOT
BRANCH   5  12
ATOM     12  C   UNL     1       1.206   1.544  -0.325  0.00  0.00    +0.387 C 
ATOM     13  O   UNL     1       2.236   0.902  -0.305  0.00  0.00    -0.241 OA
ATOM     14  O   UNL     1       0.018   0.911  -0.362  0.00  0.00    -0.241 OA
ENDBRANCH   5  12
BRANCH   1  15
ATOM     15  S   UNL     1       5.306   7.846  -0.163  0.00  0.00    -0.078 S 
BRANCH  15  16
ATOM     16  C   UNL     1       6.389   6.397  -0.148  0.00  0.00    +0.173 C 
BRANCH  16  23
ATOM     17  C   UNL     1      10.224   6.349  -0.178  0.00  0.00    +0.076 C 
ATOM     18  C   UNL     1      10.896   5.594  -1.323  0.00  0.00    +0.022 C 
ATOM     19  C   UNL     1      10.698   4.089  -1.125  0.00  0.00    +0.003 C 
ATOM     20  C   UNL     1       9.203   3.763  -1.140  0.00  0.00    +0.019 C 
ATOM     21  C   UNL     1       8.512   4.498   0.012  0.00  0.00    +0.108 C 
ATOM     22  N   UNL     1       8.818   5.931  -0.090  0.00  0.00    -0.298 N 
ATOM     23  C   UNL     1       7.827   6.845  -0.107  0.00  0.00    +0.226 C 
ATOM     24  O   UNL     1       8.094   8.028  -0.090  0.00  0.00    -0.275 OA
BRANCH  17  26
ATOM     25  C   UNL     1      11.759   8.278  -0.580  0.00  0.00    +0.006 C 
ATOM     26  C   UNL     1      10.296   7.854  -0.447  0.00  0.00    +0.019 C 
ENDBRANCH  17  26
ENDBRANCH  16  23
ENDBRANCH  15  16
ENDBRANCH   1  15
BRANCH  11  27
ATOM     27  C   UNL     1       2.739   9.290  -0.215  0.00  0.00    +0.158 C 
BRANCH  27  28
ATOM     28  C   UNL     1       2.747   9.785   1.233  0.00  0.00    +0.131 C 
ATOM     29  C   UNL     1       2.881  11.309   1.250  0.00  0.00    +0.039 C 
BRANCH  28  30
ATOM     30  O   UNL     1       1.526   9.407   1.872  0.00  0.00    -0.390 OA
ATOM     31  H   UNL     1       1.462   9.688   2.795  0.00  0.00    +0.210 HD
ENDBRANCH  28  30
ENDBRANCH  27  28
ENDBRANCH  11  27
TORSDOF 8
