REMARK  Name = ZINC34695747
REMARK  13 active torsions:
REMARK  status: ('A' for Active; 'I' for Inactive)
REMARK    1  A    between atoms: C_1  and  C_2
REMARK    2  A    between atoms: C_2  and  C_41
REMARK    3  A    between atoms: C_7  and  C_11
REMARK    4  A    between atoms: C_11  and  N_12
REMARK    5  A    between atoms: N_12  and  C_13
REMARK    6  A    between atoms: N_12  and  C_22
REMARK    7  A    between atoms: C_13  and  C_14
REMARK    8  A    between atoms: C_14  and  C_15
REMARK    9  A    between atoms: C_15  and  C_16
REMARK   10  A    between atoms: C_22  and  C_23
REMARK   11  A    between atoms: C_23  and  N_24
REMARK   12  A    between atoms: C_30  and  C_32
REMARK   13  A    between atoms: C_36  and  N_38
REMARK                            x       y       z     vdW  Elec       q    Type
REMARK                         _______ _______ _______ _____ _____    ______ ____
ROOT
ATOM      1  N   UNL     1       1.652  -0.663   4.337  0.00  0.00    +0.383 N 
ATOM      2  H   UNL     1       0.747  -0.930   4.695  0.00  0.00    -0.081 HD
ENDROOT
BRANCH   1   3
ATOM      3  C   UNL     1       1.515   0.543   3.510  0.00  0.00    -0.047 C 
BRANCH   3   9
ATOM      4  C   UNL     1       3.510   3.397   1.762  0.00  0.00    +0.012 C 
ATOM      5  C   UNL     1       4.512   2.771   2.734  0.00  0.00    -0.025 C 
ATOM      6  C   UNL     1       5.326   1.609   2.129  0.00  0.00    -0.000 C 
ATOM      7  C   UNL     1       4.495   0.845   1.089  0.00  0.00    +0.031 C 
ATOM      8  C   UNL     1       3.155   0.479   1.677  0.00  0.00    -0.029 C 
ATOM      9  C   UNL     1       2.846   0.880   2.889  0.00  0.00    -0.086 C 
ATOM     10  C   UNL     1       3.900   1.700   3.656  0.00  0.00    +0.019 C 
ATOM     11  C   UNL     1       5.272   0.991   3.536  0.00  0.00    +0.012 C 
ATOM     12  C   UNL     1       5.362   3.809   3.469  0.00  0.00    +0.012 C 
ENDBRANCH   3   9
ENDBRANCH   1   3
BRANCH   1  13
ATOM     13  C   UNL     1       2.560  -0.388   5.459  0.00  0.00    -0.078 C 
BRANCH  13  14
ATOM     14  C   UNL     1       1.932   0.663   6.377  0.00  0.00    -0.014 C 
BRANCH  14  15
ATOM     15  C   UNL     1       2.877   0.950   7.545  0.00  0.00    +0.033 C 
BRANCH  15  16
ATOM     16  C   UNL     1       2.259   1.985   8.449  0.00  0.00    -0.047 A 
ATOM     17  C   UNL     1       2.494   3.329   8.224  0.00  0.00    +0.003 A 
ATOM     18  C   UNL     1       1.926   4.278   9.053  0.00  0.00    +0.000 A 
ATOM     19  C   UNL     1       1.124   3.884  10.107  0.00  0.00    +0.000 A 
ATOM     20  C   UNL     1       0.888   2.541  10.332  0.00  0.00    +0.000 A 
ATOM     21  C   UNL     1       1.452   1.592   9.500  0.00  0.00    +0.003 A 
ENDBRANCH  15  16
ENDBRANCH  14  15
ENDBRANCH  13  14
ENDBRANCH   1  13
BRANCH   1  22
ATOM     22  C   UNL     1       2.199  -1.756   3.522  0.00  0.00    -0.063 C 
BRANCH  22  23
ATOM     23  C   UNL     1       1.217  -2.095   2.399  0.00  0.00    +0.066 C 
BRANCH  23  24
ATOM     24  N   UNL     1       1.815  -3.103   1.514  0.00  0.00    -0.301 NA
ATOM     25  C   UNL     1       1.888  -4.411   2.179  0.00  0.00    +0.103 C 
ATOM     26  C   UNL     1       2.676  -5.385   1.298  0.00  0.00    +0.123 C 
ATOM     27  N   UNL     1       2.068  -5.402  -0.041  0.00  0.00    -0.295 N 
ATOM     28  C   UNL     1       1.835  -4.116  -0.716  0.00  0.00    +0.123 C 
ATOM     29  C   UNL     1       1.080  -3.192   0.244  0.00  0.00    +0.103 C 
ATOM     30  C   UNL     1       1.732  -6.565  -0.634  0.00  0.00    +0.247 C 
ATOM     31  O   UNL     1       1.836  -7.611  -0.023  0.00  0.00    -0.270 OA
BRANCH  30  32
ATOM     32  C   UNL     1       1.236  -6.568  -2.027  0.00  0.00    +0.039 A 
ATOM     33  C   UNL     1       1.762  -5.673  -2.960  0.00  0.00    +0.013 A 
ATOM     34  C   UNL     1       1.296  -5.682  -4.258  0.00  0.00    +0.003 A 
ATOM     35  C   UNL     1       0.309  -6.575  -4.636  0.00  0.00    +0.033 A 
ATOM     36  C   UNL     1      -0.217  -7.465  -3.716  0.00  0.00    +0.127 A 
ATOM     37  C   UNL     1       0.245  -7.471  -2.416  0.00  0.00    +0.045 A 
BRANCH  36  38
ATOM     38  N   UNL     1      -1.272  -8.416  -4.129  0.00  0.00    +0.056 N 
ATOM     39  O   UNL     1      -1.675  -8.416  -5.269  0.00  0.00    -0.126 OA
ATOM     40  O   UNL     1      -1.733  -9.194  -3.326  0.00  0.00    -0.126 OA
ENDBRANCH  36  38
ENDBRANCH  30  32
ENDBRANCH  23  24
ENDBRANCH  22  23
ENDBRANCH   1  22
TORSDOF 11
