REMARK  Name = ZINC39656397
REMARK  8 active torsions:
REMARK  status: ('A' for Active; 'I' for Inactive)
REMARK    1  A    between atoms: C_1  and  C_2
REMARK    2  A    between atoms: C_2  and  S_3
REMARK    3  A    between atoms: S_3  and  C_4
REMARK    4  A    between atoms: C_4  and  C_5
REMARK    5  A    between atoms: C_5  and  N_6
REMARK    6  A    between atoms: C_7  and  C_9
REMARK    7  A    between atoms: C_20  and  C_22
REMARK    8  A    between atoms: C_24  and  C_29
REMARK                            x       y       z     vdW  Elec       q    Type
REMARK                         _______ _______ _______ _____ _____    ______ ____
ROOT
ATOM      1  C   UNL     1       1.576  -6.472   3.627  0.00  0.00    +0.100 C 
ATOM      2  C   UNL     1       0.219  -7.207   3.540  0.00  0.00    +0.121 C 
ATOM      3  N   UNL     1       0.441  -8.488   4.251  0.00  0.00    -0.296 N 
ATOM      4  C   UNL     1       1.288  -8.123   5.412  0.00  0.00    +0.115 C 
ATOM      5  C   UNL     1       2.274  -7.075   4.857  0.00  0.00    -0.004 C 
ATOM      6  C   UNL     1       2.535  -5.993   5.900  0.00  0.00    -0.010 C 
ATOM      7  C   UNL     1       3.282  -6.606   7.089  0.00  0.00    -0.082 C 
ATOM      8  N   UNL     1       4.549  -7.184   6.627  0.00  0.00    +0.379 N 
ATOM      9  C   UNL     1       4.286  -8.287   5.694  0.00  0.00    -0.082 C 
ATOM     10  C   UNL     1       3.581  -7.746   4.447  0.00  0.00    -0.010 C 
ATOM     11  C   UNL     1      -0.022  -9.709   3.917  0.00  0.00    +0.247 C 
ATOM     12  O   UNL     1      -0.600  -9.872   2.861  0.00  0.00    -0.270 OA
ATOM     13  H   UNL     1       5.092  -6.473   6.160  0.00  0.00    -0.086 HD
ATOM     14  H   UNL     1       5.067  -7.533   7.420  0.00  0.00    -0.086 HD
ENDROOT
BRANCH  11  15
ATOM     15  C   UNL     1       0.174 -10.850   4.837  0.00  0.00    +0.040 A 
ATOM     16  C   UNL     1       0.111 -12.158   4.354  0.00  0.00    +0.025 A 
ATOM     17  C   UNL     1       0.294 -13.220   5.215  0.00  0.00    +0.058 A 
ATOM     18  C   UNL     1       0.542 -12.991   6.557  0.00  0.00    +0.050 A 
ATOM     19  C   UNL     1       0.606 -11.696   7.045  0.00  0.00    +0.125 A 
ATOM     20  C   UNL     1       0.429 -10.624   6.190  0.00  0.00    +0.051 A 
ATOM     21  F   UNL     1       0.847 -11.480   8.356  0.00  0.00    -0.205 F 
BRANCH  17  22
ATOM     22  C   UNL     1       0.225 -14.632   4.694  0.00  0.00    +0.418 C 
ATOM     23  F   UNL     1       1.500 -15.042   4.289  0.00  0.00    -0.166 F 
ATOM     24  F   UNL     1      -0.238 -15.480   5.705  0.00  0.00    -0.166 F 
ATOM     25  F   UNL     1      -0.650 -14.684   3.604  0.00  0.00    -0.166 F 
ENDBRANCH  17  22
ENDBRANCH  11  15
BRANCH   1  27
ATOM     26  N   UNL     1       2.260  -4.113   3.339  0.00  0.00    -0.314 N 
ATOM     27  C   UNL     1       1.360  -4.993   3.819  0.00  0.00    +0.218 C 
ATOM     28  O   UNL     1       0.375  -4.595   4.405  0.00  0.00    -0.275 OA
ATOM     29  H   UNL     1       3.047  -4.431   2.870  0.00  0.00    +0.149 HD
BRANCH  26  30
ATOM     30  C   UNL     1       2.050  -2.675   3.526  0.00  0.00    +0.115 C 
BRANCH  30  31
ATOM     31  C   UNL     1       3.210  -1.904   2.891  0.00  0.00    +0.088 C 
BRANCH  31  32
ATOM     32  S   UNL     1       2.950  -0.123   3.123  0.00  0.00    -0.159 S 
BRANCH  32  34
ATOM     33  C   UNL     1       4.297   2.160   2.449  0.00  0.00    +0.015 C 
ATOM     34  C   UNL     1       4.391   0.638   2.325  0.00  0.00    +0.066 C 
ENDBRANCH  32  34
ENDBRANCH  31  32
ENDBRANCH  30  31
ENDBRANCH  26  30
ENDBRANCH   1  27
TORSDOF 7
