REMARK  Name = ZINC14467866
REMARK  8 active torsions:
REMARK  status: ('A' for Active; 'I' for Inactive)
REMARK    1  A    between atoms: C_1  and  C_2
REMARK    2  A    between atoms: C_2  and  C_3
REMARK    3  A    between atoms: C_3  and  C_5
REMARK    4  A    between atoms: C_3  and  N_6
REMARK    5  A    between atoms: N_6  and  S_7
REMARK    6  A    between atoms: S_7  and  C_10
REMARK    7  A    between atoms: C_23  and  C_26
REMARK    8  A    between atoms: C_31  and  O_32
REMARK                            x       y       z     vdW  Elec       q    Type
REMARK                         _______ _______ _______ _____ _____    ______ ____
ROOT
ATOM      1  C   UNL     1       4.825   0.591   1.925  0.00  0.00    +0.106 A 
ATOM      2  C   UNL     1       5.096   0.576   0.568  0.00  0.00    +0.030 A 
ATOM      3  C   UNL     1       4.664   1.620  -0.226  0.00  0.00    +0.025 A 
ATOM      4  C   UNL     1       3.962   2.678   0.336  0.00  0.00    +0.031 A 
ATOM      5  C   UNL     1       3.691   2.698   1.696  0.00  0.00    -0.018 A 
ATOM      6  C   UNL     1       4.129   1.643   2.484  0.00  0.00    +0.034 A 
ATOM      7  C   UNL     1       2.946   3.819   2.347  0.00  0.00    +0.049 C 
ATOM      8  C   UNL     1       1.530   3.419   2.687  0.00  0.00    -0.023 C 
ATOM      9  C   UNL     1       0.717   4.432   2.513  0.00  0.00    -0.030 C 
ATOM     10  C   UNL     1       1.483   5.651   2.038  0.00  0.00    +0.033 C 
ATOM     11  C   UNL     1       2.781   5.046   1.428  0.00  0.00    +0.029 C 
ATOM     12  C   UNL     1       2.447   4.590   0.005  0.00  0.00    +0.109 C 
ATOM     13  N   UNL     1       3.528   3.726  -0.482  0.00  0.00    -0.336 N 
ATOM     14  H   UNL     1       3.933   3.878  -1.351  0.00  0.00    +0.147 HD
ENDROOT
BRANCH  12  15
ATOM     15  C   UNL     1       1.151   3.821   0.012  0.00  0.00    +0.017 A 
ATOM     16  C   UNL     1       1.160   2.454   0.214  0.00  0.00    +0.029 A 
ATOM     17  C   UNL     1      -0.029   1.747   0.222  0.00  0.00    +0.043 A 
ATOM     18  C   UNL     1      -1.229   2.406   0.021  0.00  0.00    +0.043 A 
ATOM     19  C   UNL     1      -1.243   3.774  -0.176  0.00  0.00    +0.084 A 
ATOM     20  C   UNL     1      -0.050   4.484  -0.184  0.00  0.00    +0.140 A 
ATOM     21 CL   UNL     1      -2.749   4.601  -0.421  0.00  0.00    -0.080 Cl
ATOM     22 CL   UNL     1      -0.015   0.030   0.477  0.00  0.00    -0.083 Cl
BRANCH  20  23
ATOM     23  O   UNL     1      -0.060   5.829  -0.383  0.00  0.00    -0.505 OA
ATOM     24  H   UNL     1       0.008   6.090  -1.311  0.00  0.00    +0.292 HD
ENDBRANCH  20  23
ENDBRANCH  12  15
BRANCH   1  25
ATOM     25  S   UNL     1       5.373  -0.739   2.942  0.00  0.00    +0.059 S 
ATOM     26  O   UNL     1       4.522  -0.756   4.080  0.00  0.00    -0.153 OA
ATOM     27  O   UNL     1       5.527  -1.866   2.090  0.00  0.00    -0.153 OA
BRANCH  25  28
ATOM     28  N   UNL     1       6.886  -0.347   3.488  0.00  0.00    -0.187 NA
ATOM     29  H   UNL     1       7.652  -0.878   3.218  0.00  0.00    +0.148 HD
BRANCH  28  30
ATOM     30  C   UNL     1       7.069   0.801   4.379  0.00  0.00    +0.073 C 
ATOM     31  C   UNL     1       7.066   0.324   5.833  0.00  0.00    +0.025 C 
BRANCH  30  33
ATOM     32  C   UNL     1       8.360   2.067   2.656  0.00  0.00    +0.005 C 
ATOM     33  C   UNL     1       8.404   1.481   4.068  0.00  0.00    +0.017 C 
ENDBRANCH  30  33
ENDBRANCH  28  30
ENDBRANCH  25  28
ENDBRANCH   1  25
TORSDOF 6
