REMARK  Name = ZINC27452672
REMARK  9 active torsions:
REMARK  status: ('A' for Active; 'I' for Inactive)
REMARK    1  A    between atoms: C_1  and  C_2
REMARK    2  A    between atoms: C_2  and  C_3
REMARK    3  A    between atoms: C_2  and  C_4
REMARK    4  A    between atoms: C_4  and  C_6
REMARK    5  A    between atoms: C_4  and  N_18
REMARK    6  A    between atoms: C_9  and  C_12
REMARK    7  A    between atoms: N_18  and  C_19
REMARK    8  A    between atoms: C_19  and  C_20
REMARK    9  A    between atoms: C_26  and  C_29
REMARK                            x       y       z     vdW  Elec       q    Type
REMARK                         _______ _______ _______ _____ _____    ______ ____
ROOT
ATOM      1  N   UNL     1       1.611   8.024   1.650  0.00  0.00    +0.389 N 
ATOM      2  H   UNL     1       2.225   7.742   0.782  0.00  0.00    -0.084 HD
ATOM      3  H   UNL     1       2.088   7.655   2.571  0.00  0.00    -0.084 HD
ENDROOT
BRANCH   1   4
ATOM      4  C   UNL     1       1.493   9.487   1.712  0.00  0.00    -0.038 C 
BRANCH   4   5
ATOM      5  C   UNL     1       2.686  10.058   2.435  0.00  0.00    -0.061 A 
ATOM      6  C   UNL     1       3.944   9.529   2.216  0.00  0.00    +0.002 A 
ATOM      7  C   UNL     1       5.039  10.055   2.875  0.00  0.00    +0.004 A 
ATOM      8  C   UNL     1       4.875  11.104   3.760  0.00  0.00    -0.044 A 
ATOM      9  C   UNL     1       3.616  11.630   3.982  0.00  0.00    +0.004 A 
ATOM     10  C   UNL     1       2.521  11.106   3.320  0.00  0.00    +0.002 A 
BRANCH   8  11
ATOM     11  C   UNL     1       6.068  11.676   4.481  0.00  0.00    +0.019 C 
ATOM     12  C   UNL     1       7.075  12.208   3.460  0.00  0.00    +0.008 C 
ATOM     13  C   UNL     1       8.287  12.788   4.192  0.00  0.00    +0.001 C 
ATOM     14  C   UNL     1       8.945  11.694   5.035  0.00  0.00    +0.000 C 
ATOM     15  C   UNL     1       7.938  11.162   6.057  0.00  0.00    +0.001 C 
ATOM     16  C   UNL     1       6.726  10.582   5.324  0.00  0.00    +0.008 C 
ENDBRANCH   8  11
ENDBRANCH   4   5
BRANCH   4  18
ATOM     17  C   UNL     1       1.312  11.578   0.357  0.00  0.00    +0.006 C 
ATOM     18  C   UNL     1       1.436  10.055   0.293  0.00  0.00    -0.027 C 
ATOM     19  C   UNL     1       2.715   9.678  -0.458  0.00  0.00    +0.006 C 
ENDBRANCH   4  18
ENDBRANCH   1   4
BRANCH   1  20
ATOM     20  C   UNL     1       0.291   7.394   1.518  0.00  0.00    +0.016 C 
BRANCH  20  21
ATOM     21  C   UNL     1       0.453   5.897   1.458  0.00  0.00    +0.199 C 
ATOM     22  O   UNL     1       1.559   5.403   1.519  0.00  0.00    -0.278 OA
ATOM     23  N   UNL     1      -0.632   5.106   1.337  0.00  0.00    -0.302 N 
ATOM     24  C   UNL     1      -1.978   5.689   1.262  0.00  0.00    +0.108 C 
ATOM     25  C   UNL     1      -2.679   5.152   0.010  0.00  0.00    +0.020 C 
ATOM     26  C   UNL     1      -2.657   3.622   0.034  0.00  0.00    +0.016 C 
ATOM     27  C   UNL     1      -1.208   3.131   0.025  0.00  0.00    +0.092 C 
ATOM     28  C   UNL     1      -0.490   3.645   1.277  0.00  0.00    +0.120 C 
BRANCH  27  29
ATOM     29  C   UNL     1      -1.187   1.624   0.017  0.00  0.00    +0.215 C 
ATOM     30  O   UNL     1      -2.229   1.003   0.018  0.00  0.00    -0.276 OA
ATOM     31  N   UNL     1      -0.011   0.966   0.007  0.00  0.00    -0.329 N 
ATOM     32  H   UNL     1       0.004  -0.134   0.001  0.00  0.00    +0.145 HD
ATOM     33  H   UNL     1       0.934   1.529   0.006  0.00  0.00    +0.145 HD
ENDBRANCH  27  29
ENDBRANCH  20  21
ENDBRANCH   1  20
TORSDOF 7
