REMARK  Name = ZINC36537483
REMARK  11 active torsions:
REMARK  status: ('A' for Active; 'I' for Inactive)
REMARK    1  A    between atoms: C_1  and  C_2
REMARK    2  A    between atoms: C_2  and  C_3
REMARK    3  A    between atoms: C_2  and  C_4
REMARK    4  A    between atoms: C_2  and  N_5
REMARK    5  A    between atoms: C_6  and  C_8
REMARK    6  A    between atoms: C_8  and  C_10
REMARK    7  A    between atoms: C_8  and  N_17
REMARK    8  A    between atoms: C_14  and  O_16
REMARK    9  A    between atoms: N_17  and  C_18
REMARK   10  A    between atoms: C_19  and  C_21
REMARK   11  A    between atoms: C_25  and  N_27
REMARK                            x       y       z     vdW  Elec       q    Type
REMARK                         _______ _______ _______ _____ _____    ______ ____
ROOT
ATOM      1  C   UNL     1       2.653  -0.641  -2.694  0.00  0.00    +0.192 C 
ENDROOT
BRANCH   1   2
ATOM      2  C   UNL     1       2.648  -2.137  -2.877  0.00  0.00    -0.015 A 
ATOM      3  C   UNL     1       1.963  -2.701  -3.937  0.00  0.00    +0.006 A 
ATOM      4  C   UNL     1       1.957  -4.073  -4.108  0.00  0.00    +0.004 A 
ATOM      5  C   UNL     1       2.635  -4.884  -3.219  0.00  0.00    +0.045 A 
ATOM      6  C   UNL     1       3.323  -4.321  -2.155  0.00  0.00    +0.117 A 
ATOM      7  C   UNL     1       3.333  -2.943  -1.989  0.00  0.00    +0.051 A 
BRANCH   6   8
ATOM      8  O   UNL     1       3.992  -5.117  -1.279  0.00  0.00    -0.507 OA
ATOM      9  H   UNL     1       4.911  -5.288  -1.525  0.00  0.00    +0.292 HD
ENDBRANCH   6   8
ENDBRANCH   1   2
BRANCH   1  11
ATOM     10  N   UNL     1       0.705  -0.644  -1.170  0.00  0.00    -0.309 N 
ATOM     11  C   UNL     1       1.988  -0.293  -1.387  0.00  0.00    +0.238 C 
ATOM     12  O   UNL     1       2.607   0.302  -0.531  0.00  0.00    -0.273 OA
ATOM     13  H   UNL     1       0.210  -1.120  -1.854  0.00  0.00    +0.149 HD
BRANCH  10  15
ATOM     14  C   UNL     1       0.063   1.213   0.287  0.00  0.00    +0.031 C 
ATOM     15  C   UNL     1       0.058  -0.305   0.101  0.00  0.00    +0.026 C 
ATOM     16  C   UNL     1       0.821  -0.963   1.252  0.00  0.00    +0.031 C 
ATOM     17  C   UNL     1      -1.385  -0.813   0.089  0.00  0.00    +0.031 C 
ENDBRANCH  10  15
ENDBRANCH   1  11
BRANCH   1  18
ATOM     18  N   UNL     1       4.035  -0.155  -2.683  0.00  0.00    -0.285 N 
ATOM     19  C   UNL     1       4.965  -0.613  -1.648  0.00  0.00    +0.133 C 
ATOM     20  C   UNL     1       4.451   0.714  -3.626  0.00  0.00    +0.247 C 
ATOM     21  O   UNL     1       3.702   1.037  -4.527  0.00  0.00    -0.270 OA
BRANCH  20  22
ATOM     22  C   UNL     1       5.817   1.274  -3.563  0.00  0.00    +0.039 A 
ATOM     23  C   UNL     1       6.885   0.475  -3.151  0.00  0.00    +0.013 A 
ATOM     24  C   UNL     1       8.158   1.004  -3.095  0.00  0.00    +0.003 A 
ATOM     25  C   UNL     1       8.377   2.324  -3.446  0.00  0.00    +0.033 A 
ATOM     26  C   UNL     1       7.324   3.122  -3.854  0.00  0.00    +0.127 A 
ATOM     27  C   UNL     1       6.047   2.604  -3.921  0.00  0.00    +0.045 A 
BRANCH  26  28
ATOM     28  N   UNL     1       7.568   4.534  -4.227  0.00  0.00    +0.056 N 
ATOM     29  O   UNL     1       8.687   4.988  -4.175  0.00  0.00    -0.126 OA
ATOM     30  O   UNL     1       6.648   5.232  -4.585  0.00  0.00    -0.126 OA
ENDBRANCH  26  28
ENDBRANCH  20  22
ENDBRANCH   1  18
TORSDOF 7
