REMARK  Name = ZINC46012266
REMARK  3 active torsions:
REMARK  status: ('A' for Active; 'I' for Inactive)
REMARK    1  A    between atoms: C_6  and  N_7
REMARK    2  A    between atoms: C_10  and  C_14
REMARK    3  A    between atoms: N_16  and  C_17
REMARK                            x       y       z     vdW  Elec       q    Type
REMARK                         _______ _______ _______ _____ _____    ______ ____
ROOT
ATOM      1  N   UNL     1      -1.200  -0.722   0.010  0.00  0.00    -0.271 N 
ATOM      2  C   UNL     1      -1.293  -2.182  -0.097  0.00  0.00    +0.115 C 
ATOM      3  C   UNL     1      -2.760  -2.475  -0.480  0.00  0.00    +0.041 C 
ATOM      4  C   UNL     1      -3.487  -1.230   0.081  0.00  0.00    +0.162 C 
ATOM      5  C   UNL     1      -2.417  -0.162   0.122  0.00  0.00    +0.232 C 
ATOM      6  O   UNL     1      -2.626   1.027   0.238  0.00  0.00    -0.274 OA
ENDROOT
BRANCH   1  12
ATOM      7  C   UNL     1      -0.017   1.384  -0.006  0.00  0.00    +0.025 A 
ATOM      8  C   UNL     1       1.170   2.090  -0.013  0.00  0.00    +0.022 A 
ATOM      9  C   UNL     1       2.378   1.414  -0.013  0.00  0.00    +0.041 A 
ATOM     10  C   UNL     1       2.400   0.031  -0.006  0.00  0.00    +0.022 A 
ATOM     11  C   UNL     1       1.215  -0.679   0.002  0.00  0.00    +0.025 A 
ATOM     12  C   UNL     1       0.002  -0.004   0.002  0.00  0.00    +0.036 A 
ATOM     13 CL   UNL     1       3.869   2.304  -0.024  0.00  0.00    -0.084 Cl
ENDBRANCH   1  12
BRANCH   4  14
ATOM     14  C   UNL     1      -4.614  -0.822  -0.832  0.00  0.00    +0.225 C 
ATOM     15  O   UNL     1      -4.835  -1.454  -1.843  0.00  0.00    -0.275 OA
ATOM     16  N   UNL     1      -5.377   0.246  -0.524  0.00  0.00    -0.312 N 
ATOM     17  H   UNL     1      -5.201   0.751   0.284  0.00  0.00    +0.149 HD
BRANCH  16  18
ATOM     18  C   UNL     1      -6.473   0.643  -1.412  0.00  0.00    +0.073 C 
ATOM     19  C   UNL     1      -5.898   1.484  -2.570  0.00  0.00    +0.022 C 
ATOM     20  C   UNL     1      -6.878   1.457  -3.712  0.00  0.00    +0.002 C 
ATOM     21  C   UNL     1      -7.838   2.661  -3.694  0.00  0.00    +0.000 C 
ATOM     22  C   UNL     1      -8.344   3.000  -2.279  0.00  0.00    +0.000 C 
ATOM     23  C   UNL     1      -8.693   1.772  -1.482  0.00  0.00    +0.002 C 
ATOM     24  C   UNL     1      -7.467   1.371  -0.637  0.00  0.00    +0.022 C 
ENDBRANCH  16  18
ENDBRANCH   4  14
TORSDOF 3
