REMARK  Name = ZINC08255645
REMARK  9 active torsions:
REMARK  status: ('A' for Active; 'I' for Inactive)
REMARK    1  A    between atoms: C_1  and  C_2
REMARK    2  A    between atoms: C_5  and  N_9
REMARK    3  A    between atoms: C_7  and  C_8
REMARK    4  A    between atoms: C_10  and  S_14
REMARK    5  A    between atoms: S_14  and  C_15
REMARK    6  A    between atoms: C_15  and  C_17
REMARK    7  A    between atoms: C_15  and  C_18
REMARK    8  A    between atoms: N_20  and  C_21
REMARK    9  A    between atoms: N_20  and  C_22
REMARK                            x       y       z     vdW  Elec       q    Type
REMARK                         _______ _______ _______ _____ _____    ______ ____
ROOT
ATOM      1  S   UNL     1       0.577  -5.155  -2.909  0.00  0.00    -0.072 S 
ENDROOT
BRANCH   1   3
ATOM      2  N   UNL     1       0.498  -7.949  -2.974  0.00  0.00    -0.187 N 
ATOM      3  C   UNL     1       0.906  -6.799  -2.368  0.00  0.00    +0.215 A 
ATOM      4  N   UNL     1       1.598  -7.151  -1.306  0.00  0.00    -0.101 NA
ATOM      5  N   UNL     1       1.644  -8.430  -1.201  0.00  0.00    -0.022 NA
ATOM      6  N   UNL     1       1.006  -8.986  -2.173  0.00  0.00    -0.038 NA
BRANCH   2  11
ATOM      7  C   UNL     1      -2.585  -8.443  -7.714  0.00  0.00    +0.044 C 
ATOM      8  C   UNL     1      -1.767  -8.312  -6.456  0.00  0.00    -0.047 A 
ATOM      9  C   UNL     1      -2.006  -7.267  -5.583  0.00  0.00    +0.006 A 
ATOM     10  C   UNL     1      -1.258  -7.144  -4.428  0.00  0.00    +0.028 A 
ATOM     11  C   UNL     1      -0.264  -8.071  -4.145  0.00  0.00    +0.070 A 
ATOM     12  C   UNL     1      -0.022  -9.116  -5.026  0.00  0.00    +0.031 A 
ATOM     13  C   UNL     1      -0.777  -9.237  -6.177  0.00  0.00    -0.046 A 
ATOM     14  C   UNL     1      -0.519 -10.374  -7.131  0.00  0.00    +0.044 C 
ENDBRANCH   2  11
ENDBRANCH   1   3
BRANCH   1  15
ATOM     15  C   UNL     1       1.430  -4.222  -1.613  0.00  0.00    +0.137 C 
ATOM     16  C   UNL     1       2.933  -4.495  -1.693  0.00  0.00    +0.029 C 
BRANCH  15  17
ATOM     17  C   UNL     1       1.177  -2.748  -1.805  0.00  0.00    +0.229 C 
ATOM     18  O   UNL     1       0.815  -2.331  -2.885  0.00  0.00    -0.274 OA
ATOM     19  N   UNL     1       1.353  -1.895  -0.778  0.00  0.00    -0.299 N 
ATOM     20  C   UNL     1       1.790  -2.398   0.527  0.00  0.00    +0.132 C 
BRANCH  19  21
ATOM     21  C   UNL     1       1.107  -0.463  -0.965  0.00  0.00    +0.098 C 
ATOM     22  C   UNL     1       0.002  -0.004   0.002  0.00  0.00    +0.046 C 
ATOM     23  C   UNL     1      -0.019   1.551   0.011  0.00  0.00    +0.168 C 
ATOM     24  S   UNL     1       1.788   1.913  -0.005  0.00  0.00    -0.029 S 
ATOM     25  O   UNL     1       2.044   2.949  -0.943  0.00  0.00    -0.174 OA
ATOM     26  O   UNL     1       2.243   2.053   1.334  0.00  0.00    -0.174 OA
ATOM     27  C   UNL     1       2.411   0.322  -0.686  0.00  0.00    +0.188 C 
ENDBRANCH  19  21
ENDBRANCH  15  17
ENDBRANCH   1  15
TORSDOF 5
