REMARK  Name = ZINC37438382
REMARK  6 active torsions:
REMARK  status: ('A' for Active; 'I' for Inactive)
REMARK    1  A    between atoms: C_1  and  C_2
REMARK    2  A    between atoms: C_7  and  N_8
REMARK    3  A    between atoms: C_11  and  C_14
REMARK    4  A    between atoms: C_20  and  C_23
REMARK    5  A    between atoms: N_25  and  C_26
REMARK    6  A    between atoms: C_26  and  C_27
REMARK                            x       y       z     vdW  Elec       q    Type
REMARK                         _______ _______ _______ _____ _____    ______ ____
ROOT
ATOM      1  C   UNL     1      -0.354  -0.542   7.251  0.00  0.00    +0.266 C 
ATOM      2  O   UNL     1      -0.225  -1.287   8.204  0.00  0.00    -0.268 OA
ATOM      3  N   UNL     1      -0.496   0.784   7.447  0.00  0.00    -0.296 N 
ATOM      4  C   UNL     1      -0.429   1.718   6.315  0.00  0.00    +0.108 C 
ATOM      5  C   UNL     1       0.618   2.793   6.623  0.00  0.00    +0.020 C 
ATOM      6  C   UNL     1       0.287   3.452   7.964  0.00  0.00    +0.016 C 
ATOM      7  C   UNL     1       0.331   2.401   9.076  0.00  0.00    +0.092 C 
ATOM      8  C   UNL     1      -0.725   1.322   8.794  0.00  0.00    +0.120 C 
ENDROOT
BRANCH   1  12
ATOM      9  N   UNL     1      -0.953  -0.134   2.427  0.00  0.00    -0.293 N 
ATOM     10  C   UNL     1      -0.666  -0.786   3.615  0.00  0.00    +0.163 A 
ATOM     11  N   UNL     1      -0.660  -0.311   4.844  0.00  0.00    -0.220 NA
ATOM     12  C   UNL     1      -0.357  -1.089   5.885  0.00  0.00    +0.135 A 
ATOM     13  C   UNL     1      -0.046  -2.408   5.662  0.00  0.00    +0.081 A 
ATOM     14  S   UNL     1      -0.215  -2.494   3.884  0.00  0.00    -0.060 S 
ATOM     15  H   UNL     1      -1.300   0.772   2.442  0.00  0.00    +0.154 HD
BRANCH   9  22
ATOM     16  C   UNL     1      -2.594   0.596   0.220  0.00  0.00    +0.045 C 
ATOM     17  C   UNL     1      -1.520  -0.456   0.102  0.00  0.00    -0.029 A 
ATOM     18  C   UNL     1      -1.306  -1.093  -1.104  0.00  0.00    +0.006 A 
ATOM     19  C   UNL     1      -0.322  -2.058  -1.214  0.00  0.00    +0.020 A 
ATOM     20  C   UNL     1       0.452  -2.389  -0.115  0.00  0.00    +0.043 A 
ATOM     21  C   UNL     1       0.242  -1.755   1.095  0.00  0.00    +0.043 A 
ATOM     22  C   UNL     1      -0.742  -0.781   1.206  0.00  0.00    +0.037 A 
ATOM     23 CL   UNL     1       1.687  -3.601  -0.256  0.00  0.00    -0.083 Cl
ENDBRANCH   9  22
ENDBRANCH   1  12
BRANCH   7  24
ATOM     24  C   UNL     1       0.038   3.057  10.400  0.00  0.00    +0.218 C 
ATOM     25  O   UNL     1      -0.185   4.248  10.451  0.00  0.00    -0.275 OA
ATOM     26  N   UNL     1       0.023   2.321  11.529  0.00  0.00    -0.313 N 
ATOM     27  H   UNL     1       0.201   1.368  11.488  0.00  0.00    +0.149 HD
BRANCH  26  28
ATOM     28  C   UNL     1      -0.262   2.959  12.816  0.00  0.00    +0.135 C 
BRANCH  28  29
ATOM     29  C   UNL     1      -0.218   1.907  13.927  0.00  0.00    +0.135 C 
ATOM     30  C   UNL     1      -0.552   2.556  15.294  0.00  0.00    +0.035 C 
ATOM     31  C   UNL     1      -1.079   1.326  16.083  0.00  0.00    +0.031 C 
ATOM     32  C   UNL     1      -1.783   0.507  14.980  0.00  0.00    +0.160 C 
ATOM     33  O   UNL     1      -1.239   0.919  13.719  0.00  0.00    -0.375 OA
ENDBRANCH  28  29
ENDBRANCH  26  28
ENDBRANCH   7  24
TORSDOF 5
