REMARK  Name = ZINC53630133
REMARK  8 active torsions:
REMARK  status: ('A' for Active; 'I' for Inactive)
REMARK    1  A    between atoms: C_1  and  C_2
REMARK    2  A    between atoms: C_3  and  C_30
REMARK    3  A    between atoms: C_14  and  C_19
REMARK    4  A    between atoms: C_16  and  C_18
REMARK    5  A    between atoms: C_19  and  C_20
REMARK    6  A    between atoms: N_22  and  C_23
REMARK    7  A    between atoms: C_23  and  C_24
REMARK    8  A    between atoms: C_24  and  C_25
REMARK                            x       y       z     vdW  Elec       q    Type
REMARK                         _______ _______ _______ _____ _____    ______ ____
ROOT
ATOM      1  C   UNL     1      -0.018   1.503   0.010  0.00  0.00    +0.048 C 
ATOM      2  C   UNL     1       0.002  -0.004   0.002  0.00  0.00    -0.002 A 
ATOM      3  C   UNL     1       0.009  -0.802  -1.074  0.00  0.00    +0.106 A 
ATOM      4  O   UNL     1       0.028  -2.092  -0.694  0.00  0.00    -0.460 OA
ATOM      5  C   UNL     1       0.037  -2.197   0.651  0.00  0.00    +0.139 A 
ATOM      6  C   UNL     1       0.025  -0.892   1.171  0.00  0.00    +0.024 A 
ATOM      7  C   UNL     1       0.032  -0.690   2.549  0.00  0.00    +0.019 A 
ATOM      8  C   UNL     1       0.058  -1.762   3.403  0.00  0.00    -0.001 A 
ATOM      9  C   UNL     1       0.080  -3.055   2.897  0.00  0.00    +0.139 A 
ATOM     10  C   UNL     1       0.059  -3.272   1.526  0.00  0.00    +0.093 A 
ATOM     11  O   UNL     1       0.126  -4.144   3.715  0.00  0.00    -0.425 OA
ATOM     12  C   UNL     1      -0.071  -3.942   5.032  0.00  0.00    +0.316 C 
ATOM     13  O   UNL     1      -0.736  -4.702   5.696  0.00  0.00    -0.250 OA
ATOM     14  C   UNL     1       0.578  -2.715   5.642  0.00  0.00    +0.114 C 
ATOM     15  C   UNL     1       0.054  -1.490   4.887  0.00  0.00    +0.034 C 
ATOM     16  C   UNL     1       0.952  -0.287   5.185  0.00  0.00    +0.013 C 
ATOM     17  C   UNL     1      -0.004  -0.325  -2.503  0.00  0.00    +0.086 C 
ENDROOT
BRANCH  14  18
ATOM     18  C   UNL     1       2.098  -2.806   5.497  0.00  0.00    +0.111 C 
BRANCH  18  19
ATOM     19  C   UNL     1       2.612  -3.968   6.307  0.00  0.00    +0.214 C 
ATOM     20  O   UNL     1       1.838  -4.656   6.938  0.00  0.00    -0.276 OA
ATOM     21  N   UNL     1       3.931  -4.243   6.329  0.00  0.00    -0.315 N 
ATOM     22  H   UNL     1       4.550  -3.693   5.824  0.00  0.00    +0.149 HD
BRANCH  21  23
ATOM     23  C   UNL     1       4.430  -5.373   7.117  0.00  0.00    +0.110 C 
BRANCH  23  24
ATOM     24  C   UNL     1       5.951  -5.464   6.971  0.00  0.00    +0.073 C 
BRANCH  24  25
ATOM     25  C   UNL     1       6.464  -6.626   7.781  0.00  0.00    +0.035 A 
ATOM     26  N   UNL     1       6.710  -7.894   7.325  0.00  0.00    -0.350 N 
ATOM     27  C   UNL     1       7.158  -8.616   8.375  0.00  0.00    +0.171 A 
ATOM     28  N   UNL     1       7.192  -7.846   9.428  0.00  0.00    -0.352 N 
ATOM     29  C   UNL     1       6.776  -6.617   9.091  0.00  0.00    +0.105 A 
ATOM     30  H   UNL     1       6.585  -8.213   6.418  0.00  0.00    +0.166 HD
ATOM     31  H   UNL     1       7.476  -8.120  10.314  0.00  0.00    +0.166 HD
ENDBRANCH  24  25
ENDBRANCH  23  24
ENDBRANCH  21  23
ENDBRANCH  18  19
ENDBRANCH  14  18
TORSDOF 5
