REMARK  Name = ZINC12803166
REMARK  14 active torsions:
REMARK  status: ('A' for Active; 'I' for Inactive)
REMARK    1  A    between atoms: C_1  and  C_2
REMARK    2  A    between atoms: C_6  and  N_8
REMARK    3  A    between atoms: N_8  and  S_9
REMARK    4  A    between atoms: S_9  and  C_12
REMARK    5  A    between atoms: C_16  and  C_18
REMARK    6  A    between atoms: N_20  and  C_21
REMARK    7  A    between atoms: C_21  and  C_22
REMARK    8  A    between atoms: C_22  and  N_60
REMARK    9  A    between atoms: C_23  and  C_24
REMARK   10  A    between atoms: C_23  and  C_25
REMARK   11  A    between atoms: C_23  and  N_60
REMARK   12  A    between atoms: C_26  and  C_27
REMARK   13  A    between atoms: C_26  and  C_28
REMARK   14  A    between atoms: C_26  and  N_60
REMARK                            x       y       z     vdW  Elec       q    Type
REMARK                         _______ _______ _______ _____ _____    ______ ____
ROOT
ATOM      1  C   UNL     1       3.326  -1.620  -4.806  0.00  0.00    +0.109 A 
ATOM      2  C   UNL     1       3.506  -0.358  -5.346  0.00  0.00    +0.029 A 
ATOM      3  C   UNL     1       2.743   0.056  -6.423  0.00  0.00    +0.003 A 
ATOM      4  C   UNL     1       1.788  -0.784  -6.959  0.00  0.00    +0.013 A 
ATOM      5  C   UNL     1       1.598  -2.056  -6.416  0.00  0.00    +0.039 A 
ATOM      6  C   UNL     1       2.376  -2.469  -5.333  0.00  0.00    +0.041 A 
ENDROOT
BRANCH   5   7
ATOM      7  C   UNL     1       0.577  -2.961  -6.985  0.00  0.00    +0.244 C 
ATOM      8  O   UNL     1       0.413  -4.068  -6.510  0.00  0.00    -0.270 OA
ATOM      9  N   UNL     1      -0.172  -2.559  -8.031  0.00  0.00    -0.313 N 
ATOM     10  H   UNL     1      -0.041  -1.676  -8.410  0.00  0.00    +0.149 HD
BRANCH   9  11
ATOM     11  C   UNL     1      -1.184  -3.456  -8.595  0.00  0.00    +0.086 C 
BRANCH  11  12
ATOM     12  C   UNL     1      -1.887  -2.762  -9.763  0.00  0.00    -0.059 C 
BRANCH  12  13
ATOM     13  N   UNL     1      -2.790  -3.732 -10.417  0.00  0.00    +0.384 N 
ATOM     14  H   UNL     1      -2.310  -4.637 -10.491  0.00  0.00    -0.081 HD
BRANCH  13  15
ATOM     15  C   UNL     1      -4.016  -3.904  -9.609  0.00  0.00    -0.074 C 
ATOM     16  C   UNL     1      -3.804  -5.073  -8.646  0.00  0.00    -0.014 C 
ATOM     17  C   UNL     1      -4.310  -2.632  -8.811  0.00  0.00    -0.014 C 
ENDBRANCH  13  15
BRANCH  13  18
ATOM     18  C   UNL     1      -3.140  -3.261 -11.773  0.00  0.00    -0.074 C 
ATOM     19  C   UNL     1      -3.844  -4.395 -12.522  0.00  0.00    -0.014 C 
ATOM     20  C   UNL     1      -4.069  -2.048 -11.697  0.00  0.00    -0.014 C 
ENDBRANCH  13  18
ENDBRANCH  12  13
ENDBRANCH  11  12
ENDBRANCH   9  11
ENDBRANCH   5   7
BRANCH   1  21
ATOM     21  S   UNL     1       4.309  -2.139  -3.439  0.00  0.00    +0.072 S 
ATOM     22  O   UNL     1       3.569  -3.151  -2.768  0.00  0.00    -0.150 OA
ATOM     23  O   UNL     1       4.750  -0.958  -2.784  0.00  0.00    -0.150 OA
BRANCH  21  24
ATOM     24  N   UNL     1       5.660  -2.871  -4.056  0.00  0.00    -0.215 N 
ATOM     25  H   UNL     1       5.840  -3.803  -3.857  0.00  0.00    +0.174 HD
BRANCH  24  31
ATOM     26  C   UNL     1       7.915   1.365  -5.115  0.00  0.00    +0.044 C 
ATOM     27  C   UNL     1       7.652  -0.091  -5.401  0.00  0.00    -0.049 A 
ATOM     28  C   UNL     1       8.282  -0.711  -6.464  0.00  0.00    +0.004 A 
ATOM     29  C   UNL     1       8.044  -2.046  -6.730  0.00  0.00    +0.017 A 
ATOM     30  C   UNL     1       7.174  -2.766  -5.934  0.00  0.00    +0.040 A 
ATOM     31  C   UNL     1       6.540  -2.146  -4.864  0.00  0.00    +0.062 A 
ATOM     32  C   UNL     1       6.782  -0.804  -4.600  0.00  0.00    +0.029 A 
ATOM     33 BR   UNL     1       6.849  -4.593  -6.298  0.00  0.00    -0.048 Br
ENDBRANCH  24  31
ENDBRANCH  21  24
ENDBRANCH   1  21
TORSDOF 9
