REMARK  Name = ZINC08686736
REMARK  11 active torsions:
REMARK  status: ('A' for Active; 'I' for Inactive)
REMARK    1  A    between atoms: C_1  and  C_2
REMARK    2  A    between atoms: C_10  and  C_12
REMARK    3  A    between atoms: C_12  and  N_13
REMARK    4  A    between atoms: N_13  and  C_14
REMARK    5  A    between atoms: N_13  and  C_24
REMARK    6  A    between atoms: C_14  and  C_15
REMARK    7  A    between atoms: C_24  and  N_25
REMARK    8  A    between atoms: N_25  and  C_26
REMARK    9  A    between atoms: C_31  and  C_32
REMARK   10  A    between atoms: C_32  and  O_34
REMARK   11  A    between atoms: O_34  and  C_35
REMARK                            x       y       z     vdW  Elec       q    Type
REMARK                         _______ _______ _______ _____ _____    ______ ____
ROOT
ATOM      1  N   UNL     1       1.605  -2.881   5.642  0.00  0.00    -0.304 N 
ENDROOT
BRANCH   1   2
ATOM      2  C   UNL     1       2.362  -3.892   5.170  0.00  0.00    +0.138 C 
ATOM      3  S   UNL     1       1.859  -4.764   3.786  0.00  0.00    -0.018 S 
BRANCH   2   4
ATOM      4  N   UNL     1       3.515  -4.215   5.789  0.00  0.00    -0.296 N 
ATOM      5  H   UNL     1       3.842  -3.670   6.522  0.00  0.00    +0.154 HD
BRANCH   4   6
ATOM      6  C   UNL     1       4.237  -5.331   5.375  0.00  0.00    +0.047 A 
ATOM      7  C   UNL     1       3.588  -6.538   5.149  0.00  0.00    +0.024 A 
ATOM      8  C   UNL     1       4.306  -7.643   4.739  0.00  0.00    +0.002 A 
ATOM      9  C   UNL     1       5.676  -7.559   4.550  0.00  0.00    +0.001 A 
ATOM     10  C   UNL     1       6.338  -6.370   4.769  0.00  0.00    +0.017 A 
ATOM     11  C   UNL     1       5.624  -5.241   5.179  0.00  0.00    +0.080 A 
BRANCH  11  12
ATOM     12  C   UNL     1       6.324  -3.965   5.409  0.00  0.00    +0.341 C 
ATOM     13  O   UNL     1       5.695  -2.976   5.730  0.00  0.00    -0.245 OA
BRANCH  12  14
ATOM     14  O   UNL     1       7.662  -3.894   5.264  0.00  0.00    -0.464 OA
ATOM     15  C   UNL     1       8.275  -2.626   5.503  0.00  0.00    +0.280 C 
ENDBRANCH  12  14
ENDBRANCH  11  12
ENDBRANCH   4   6
ENDBRANCH   2   4
ENDBRANCH   1   2
BRANCH   1  16
ATOM     16  C   UNL     1       0.352  -2.529   4.970  0.00  0.00    +0.147 C 
BRANCH  16  26
ATOM     17  C   UNL     1       1.406   2.934   1.471  0.00  0.00    +0.046 C 
ATOM     18  C   UNL     1       1.369   1.483   1.064  0.00  0.00    -0.026 A 
ATOM     19  C   UNL     1       1.585   1.127  -0.250  0.00  0.00    +0.005 A 
ATOM     20  C   UNL     1       1.553  -0.205  -0.637  0.00  0.00    +0.001 A 
ATOM     21  C   UNL     1       1.306  -1.190   0.278  0.00  0.00    +0.010 A 
ATOM     22  C   UNL     1       1.083  -0.852   1.616  0.00  0.00    -0.001 A 
ATOM     23  C   UNL     1       1.121   0.498   2.014  0.00  0.00    +0.052 A 
ATOM     24  N   UNL     1       0.906   0.826   3.336  0.00  0.00    -0.322 N 
ATOM     25  C   UNL     1       0.666  -0.127   4.254  0.00  0.00    +0.254 A 
ATOM     26  C   UNL     1       0.624  -1.495   3.909  0.00  0.00    +0.035 A 
ATOM     27  C   UNL     1       0.815  -1.881   2.623  0.00  0.00    +0.020 A 
ATOM     28  O   UNL     1       0.481   0.199   5.414  0.00  0.00    -0.268 OA
ATOM     29  H   UNL     1       0.928   1.756   3.608  0.00  0.00    +0.169 HD
ENDBRANCH  16  26
ENDBRANCH   1  16
BRANCH   1  30
ATOM     30  C   UNL     1       2.036  -2.134   6.827  0.00  0.00    +0.142 C 
BRANCH  30  31
ATOM     31  C   UNL     1       1.482  -2.792   8.064  0.00  0.00    -0.026 A 
ATOM     32  C   UNL     1       0.245  -2.412   8.552  0.00  0.00    +0.009 A 
ATOM     33  C   UNL     1      -0.268  -3.013   9.687  0.00  0.00    +0.050 A 
ATOM     34  C   UNL     1       0.457  -3.998  10.338  0.00  0.00    +0.166 A 
ATOM     35  C   UNL     1       1.703  -4.380   9.846  0.00  0.00    +0.167 A 
ATOM     36  C   UNL     1       2.208  -3.778   8.706  0.00  0.00    +0.054 A 
ATOM     37  O   UNL     1       2.210  -5.356  10.655  0.00  0.00    -0.453 OA
ATOM     38  C   UNL     1       1.449  -5.278  11.875  0.00  0.00    +0.466 C 
ATOM     39  O   UNL     1       0.184  -4.734  11.454  0.00  0.00    -0.453 OA
ENDBRANCH  30  31
ENDBRANCH   1  30
TORSDOF 9
