REMARK  Name = ZINC39623504
REMARK  9 active torsions:
REMARK  status: ('A' for Active; 'I' for Inactive)
REMARK    1  A    between atoms: C_1  and  C_2
REMARK    2  A    between atoms: C_2  and  C_3
REMARK    3  A    between atoms: C_3  and  C_4
REMARK    4  A    between atoms: C_4  and  C_5
REMARK    5  A    between atoms: C_5  and  N_6
REMARK    6  A    between atoms: C_7  and  C_9
REMARK    7  A    between atoms: C_20  and  C_22
REMARK    8  A    between atoms: C_25  and  C_29
REMARK    9  A    between atoms: C_27  and  C_28
REMARK                            x       y       z     vdW  Elec       q    Type
REMARK                         _______ _______ _______ _____ _____    ______ ____
ROOT
ATOM      1  C   UNL     1       1.541  -6.629  -3.775  0.00  0.00    +0.100 C 
ATOM      2  C   UNL     1       2.514  -6.908  -2.607  0.00  0.00    +0.121 C 
ATOM      3  N   UNL     1       3.403  -7.982  -3.108  0.00  0.00    -0.296 N 
ATOM      4  C   UNL     1       3.647  -7.626  -4.527  0.00  0.00    +0.115 C 
ATOM      5  C   UNL     1       2.289  -7.101  -5.033  0.00  0.00    -0.004 C 
ATOM      6  C   UNL     1       1.513  -8.221  -5.719  0.00  0.00    -0.010 C 
ATOM      7  C   UNL     1       2.247  -8.635  -6.998  0.00  0.00    -0.082 C 
ATOM      8  N   UNL     1       2.368  -7.477  -7.891  0.00  0.00    +0.379 N 
ATOM      9  C   UNL     1       3.194  -6.441  -7.260  0.00  0.00    -0.082 C 
ATOM     10  C   UNL     1       2.500  -5.934  -5.992  0.00  0.00    -0.010 C 
ATOM     11  C   UNL     1       3.881  -9.043  -2.429  0.00  0.00    +0.247 C 
ATOM     12  O   UNL     1       4.683  -9.790  -2.954  0.00  0.00    -0.270 OA
ATOM     13  H   UNL     1       2.797  -7.766  -8.758  0.00  0.00    -0.086 HD
ATOM     14  H   UNL     1       1.450  -7.104  -8.082  0.00  0.00    -0.086 HD
ENDROOT
BRANCH  11  15
ATOM     15  C   UNL     1       3.430  -9.298  -1.044  0.00  0.00    +0.040 A 
ATOM     16  C   UNL     1       3.176  -8.230  -0.181  0.00  0.00    +0.013 A 
ATOM     17  C   UNL     1       2.755  -8.475   1.109  0.00  0.00    +0.004 A 
ATOM     18  C   UNL     1       2.586  -9.775   1.550  0.00  0.00    -0.050 A 
ATOM     19  C   UNL     1       2.836 -10.838   0.701  0.00  0.00    +0.007 A 
ATOM     20  C   UNL     1       3.252 -10.607  -0.595  0.00  0.00    -0.038 A 
ATOM     21  C   UNL     1       3.518 -11.766  -1.520  0.00  0.00    +0.044 C 
ATOM     22  C   UNL     1       2.127 -10.035   2.962  0.00  0.00    +0.044 C 
ENDBRANCH  11  15
BRANCH   1  24
ATOM     23  N   UNL     1       0.064  -4.738  -4.376  0.00  0.00    -0.315 N 
ATOM     24  C   UNL     1       1.240  -5.155  -3.866  0.00  0.00    +0.218 C 
ATOM     25  O   UNL     1       2.055  -4.344  -3.480  0.00  0.00    -0.275 OA
ATOM     26  H   UNL     1      -0.588  -5.386  -4.684  0.00  0.00    +0.149 HD
BRANCH  23  27
ATOM     27  C   UNL     1      -0.229  -3.305  -4.465  0.00  0.00    +0.104 C 
BRANCH  27  28
ATOM     28  C   UNL     1      -1.617  -3.105  -5.076  0.00  0.00    +0.019 C 
BRANCH  28  29
ATOM     29  C   UNL     1      -1.923  -1.609  -5.168  0.00  0.00    +0.001 C 
BRANCH  29  31
ATOM     30  C   UNL     1      -3.617   0.087  -5.872  0.00  0.00    +0.004 C 
ATOM     31  C   UNL     1      -3.311  -1.409  -5.779  0.00  0.00    -0.003 C 
ENDBRANCH  29  31
ENDBRANCH  28  29
ENDBRANCH  27  28
ENDBRANCH  23  27
ENDBRANCH   1  24
TORSDOF 6
