REMARK  Name = ZINC09495646
REMARK  7 active torsions:
REMARK  status: ('A' for Active; 'I' for Inactive)
REMARK    1  A    between atoms: C_1  and  C_2
REMARK    2  A    between atoms: C_3  and  N_9
REMARK    3  A    between atoms: C_10  and  C_12
REMARK    4  A    between atoms: C_12  and  S_13
REMARK    5  A    between atoms: S_13  and  C_14
REMARK    6  A    between atoms: N_24  and  C_25
REMARK    7  A    between atoms: C_30  and  C_31
REMARK                            x       y       z     vdW  Elec       q    Type
REMARK                         _______ _______ _______ _____ _____    ______ ____
ROOT
ATOM      1  C   UNL     1       0.158   0.935   2.735  0.00  0.00    +0.179 A 
ATOM      2  N   UNL     1       1.194   0.216   2.364  0.00  0.00    -0.204 NA
ATOM      3  C   UNL     1       2.003  -0.352   3.268  0.00  0.00    +0.164 A 
ATOM      4  C   UNL     1       1.742  -0.177   4.637  0.00  0.00    +0.103 A 
ATOM      5  C   UNL     1       2.742  -0.876   5.343  0.00  0.00    +0.149 A 
ATOM      6  N   UNL     1       3.545  -1.431   4.479  0.00  0.00    -0.180 NA
ATOM      7  N   UNL     1       3.118  -1.127   3.180  0.00  0.00    -0.260 N 
ATOM      8  H   UNL     1       3.557  -1.428   2.334  0.00  0.00    +0.191 HD
ATOM      9  C   UNL     1       0.622   0.601   5.023  0.00  0.00    +0.270 A 
ATOM     10  O   UNL     1       0.359   0.778   6.199  0.00  0.00    -0.266 OA
ATOM     11  N   UNL     1      -0.145   1.145   4.051  0.00  0.00    -0.255 N 
ENDROOT
BRANCH  11  12
ATOM     12  C   UNL     1      -1.258   1.924   4.396  0.00  0.00    +0.056 A 
ATOM     13  C   UNL     1      -2.500   1.326   4.565  0.00  0.00    +0.027 A 
ATOM     14  C   UNL     1      -3.595   2.096   4.905  0.00  0.00    +0.003 A 
ATOM     15  C   UNL     1      -3.457   3.461   5.076  0.00  0.00    +0.020 A 
ATOM     16  C   UNL     1      -2.221   4.060   4.908  0.00  0.00    +0.046 A 
ATOM     17  C   UNL     1      -1.120   3.294   4.573  0.00  0.00    -0.008 A 
ATOM     18  C   UNL     1       0.228   3.945   4.396  0.00  0.00    +0.047 C 
ATOM     19 CL   UNL     1      -2.051   5.774   5.124  0.00  0.00    -0.083 Cl
ENDBRANCH  11  12
BRANCH   1  20
ATOM     20  S   UNL     1      -0.869   1.655   1.497  0.00  0.00    -0.078 S 
BRANCH  20  21
ATOM     21  C   UNL     1      -0.021   1.073   0.008  0.00  0.00    +0.173 C 
BRANCH  21  23
ATOM     22  N   UNL     1      -0.288   1.272  -2.443  0.00  0.00    -0.285 N 
ATOM     23  C   UNL     1      -0.743   1.582  -1.213  0.00  0.00    +0.227 C 
ATOM     24  O   UNL     1      -1.734   2.271  -1.088  0.00  0.00    -0.275 OA
ATOM     25  H   UNL     1       0.547   0.790  -2.544  0.00  0.00    +0.155 HD
BRANCH  22  28
ATOM     26  C   UNL     1       1.108   1.601  -4.901  0.00  0.00    +0.047 C 
ATOM     27  C   UNL     1      -0.380   1.818  -4.794  0.00  0.00    -0.011 A 
ATOM     28  C   UNL     1      -1.022   1.646  -3.575  0.00  0.00    +0.038 A 
ATOM     29  C   UNL     1      -2.391   1.852  -3.479  0.00  0.00    +0.023 A 
ATOM     30  C   UNL     1      -3.113   2.222  -4.598  0.00  0.00    +0.003 A 
ATOM     31  C   UNL     1      -2.473   2.387  -5.812  0.00  0.00    +0.020 A 
ATOM     32  C   UNL     1      -1.107   2.182  -5.911  0.00  0.00    +0.046 A 
ATOM     33 CL   UNL     1      -0.308   2.390  -7.438  0.00  0.00    -0.083 Cl
ENDBRANCH  22  28
ENDBRANCH  21  23
ENDBRANCH  20  21
ENDBRANCH   1  20
TORSDOF 5
