REMARK  Name = ZINC46875468
REMARK  8 active torsions:
REMARK  status: ('A' for Active; 'I' for Inactive)
REMARK    1  A    between atoms: C_1  and  C_2
REMARK    2  A    between atoms: C_2  and  C_3
REMARK    3  A    between atoms: C_3  and  C_5
REMARK    4  A    between atoms: C_3  and  N_6
REMARK    5  A    between atoms: C_7  and  C_9
REMARK    6  A    between atoms: C_9  and  N_10
REMARK    7  A    between atoms: N_18  and  C_19
REMARK    8  A    between atoms: C_19  and  C_20
REMARK                            x       y       z     vdW  Elec       q    Type
REMARK                         _______ _______ _______ _____ _____    ______ ____
ROOT
ATOM      1  N   UNL     1       0.773   0.449   6.005  0.00  0.00    -0.291 NA
ATOM      2  C   UNL     1       1.740   1.542   5.837  0.00  0.00    +0.104 C 
ATOM      3  C   UNL     1       2.785   1.472   6.955  0.00  0.00    +0.124 C 
ATOM      4  N   UNL     1       2.084   1.455   8.248  0.00  0.00    -0.283 N 
ATOM      5  C   UNL     1       1.005   0.474   8.442  0.00  0.00    +0.124 C 
ATOM      6  C   UNL     1       0.030   0.584   7.265  0.00  0.00    +0.104 C 
ATOM      7  C   UNL     1       2.423   2.314   9.230  0.00  0.00    +0.302 C 
ATOM      8  O   UNL     1       3.376   3.056   9.087  0.00  0.00    -0.253 OA
ATOM      9  N   UNL     1       1.704   2.352  10.370  0.00  0.00    -0.296 N 
ATOM     10  H   UNL     1       0.991   1.712  10.515  0.00  0.00    +0.150 HD
ENDROOT
BRANCH   1  11
ATOM     11  C   UNL     1      -0.144   0.377   4.859  0.00  0.00    +0.180 C 
BRANCH  11  13
ATOM     12  N   UNL     1      -0.011  -0.132   2.442  0.00  0.00    -0.312 N 
ATOM     13  C   UNL     1       0.628  -0.005   3.622  0.00  0.00    +0.227 C 
ATOM     14  O   UNL     1       1.823  -0.197   3.688  0.00  0.00    -0.274 OA
ATOM     15  H   UNL     1      -0.967   0.022   2.389  0.00  0.00    +0.149 HD
BRANCH  12  16
ATOM     16  C   UNL     1       0.739  -0.503   1.239  0.00  0.00    +0.070 C 
ATOM     17  C   UNL     1       0.867  -2.026   1.167  0.00  0.00    +0.028 C 
BRANCH  16  19
ATOM     18  C   UNL     1      -0.019   1.536   0.010  0.00  0.00    +0.005 C 
ATOM     19  C   UNL     1      -0.000   0.006   0.000  0.00  0.00    +0.018 C 
ENDBRANCH  16  19
ENDBRANCH  12  16
ENDBRANCH  11  13
ENDBRANCH   1  11
BRANCH   9  20
ATOM     20  C   UNL     1       2.002   3.361  11.389  0.00  0.00    +0.150 C 
BRANCH  20  21
ATOM     21  C   UNL     1       1.049   3.186  12.573  0.00  0.00    +0.195 C 
ATOM     22  C   UNL     1       1.295   4.277  13.642  0.00  0.00    +0.085 C 
ATOM     23  C   UNL     1      -0.111   4.554  14.138  0.00  0.00    -0.002 A 
ATOM     24  C   UNL     1      -0.586   5.202  15.256  0.00  0.00    +0.007 A 
ATOM     25  C   UNL     1      -1.949   5.305  15.469  0.00  0.00    +0.000 A 
ATOM     26  C   UNL     1      -2.830   4.755  14.555  0.00  0.00    +0.004 A 
ATOM     27  C   UNL     1      -2.356   4.108  13.433  0.00  0.00    +0.046 A 
ATOM     28  C   UNL     1      -0.985   4.004  13.210  0.00  0.00    +0.124 A 
ATOM     29  O   UNL     1      -0.311   3.429  12.173  0.00  0.00    -0.487 OA
ENDBRANCH  20  21
ENDBRANCH   9  20
TORSDOF 6
