REMARK  Name = ZINC06135725
REMARK  14 active torsions:
REMARK  status: ('A' for Active; 'I' for Inactive)
REMARK    1  A    between atoms: C_1  and  N_63
REMARK    2  A    between atoms: C_2  and  N_63
REMARK    3  A    between atoms: C_3  and  C_4
REMARK    4  A    between atoms: C_3  and  N_63
REMARK    5  A    between atoms: C_4  and  C_5
REMARK    6  A    between atoms: C_5  and  N_6
REMARK    7  A    between atoms: N_6  and  C_7
REMARK    8  A    between atoms: N_6  and  C_23
REMARK    9  A    between atoms: C_7  and  C_8
REMARK   10  A    between atoms: C_23  and  N_25
REMARK   11  A    between atoms: N_25  and  C_26
REMARK   12  A    between atoms: C_31  and  C_32
REMARK   13  A    between atoms: C_32  and  O_34
REMARK   14  A    between atoms: O_34  and  C_35
REMARK                            x       y       z     vdW  Elec       q    Type
REMARK                         _______ _______ _______ _____ _____    ______ ____
ROOT
ATOM      1  N   UNL     1      -0.294   1.477  -0.279  0.00  0.00    -0.308 N 
ENDROOT
BRANCH   1   2
ATOM      2  C   UNL     1      -0.243   0.145  -0.476  0.00  0.00    +0.137 C 
ATOM      3  S   UNL     1       1.109  -0.552  -1.263  0.00  0.00    -0.018 S 
BRANCH   2   4
ATOM      4  N   UNL     1      -1.255  -0.639  -0.054  0.00  0.00    -0.296 N 
ATOM      5  H   UNL     1      -2.049  -0.239   0.332  0.00  0.00    +0.154 HD
BRANCH   4   6
ATOM      6  C   UNL     1      -1.159  -2.022  -0.172  0.00  0.00    +0.047 A 
ATOM      7  C   UNL     1       0.042  -2.665   0.096  0.00  0.00    +0.024 A 
ATOM      8  C   UNL     1       0.133  -4.037  -0.018  0.00  0.00    +0.002 A 
ATOM      9  C   UNL     1      -0.967  -4.783  -0.409  0.00  0.00    +0.001 A 
ATOM     10  C   UNL     1      -2.166  -4.163  -0.684  0.00  0.00    +0.017 A 
ATOM     11  C   UNL     1      -2.276  -2.775  -0.569  0.00  0.00    +0.080 A 
BRANCH  11  12
ATOM     12  C   UNL     1      -3.555  -2.105  -0.862  0.00  0.00    +0.341 C 
ATOM     13  O   UNL     1      -3.620  -0.892  -0.862  0.00  0.00    -0.245 OA
BRANCH  12  14
ATOM     14  O   UNL     1      -4.653  -2.838  -1.131  0.00  0.00    -0.464 OA
ATOM     15  C   UNL     1      -5.879  -2.111  -1.411  0.00  0.00    +0.280 C 
ENDBRANCH  12  14
ENDBRANCH  11  12
ENDBRANCH   4   6
ENDBRANCH   2   4
ENDBRANCH   1   2
BRANCH   1  16
ATOM     16  C   UNL     1      -1.499   2.087   0.291  0.00  0.00    +0.105 C 
BRANCH  16  17
ATOM     17  C   UNL     1      -1.380   2.123   1.815  0.00  0.00    +0.000 C 
BRANCH  17  18
ATOM     18  C   UNL     1      -2.638   2.760   2.410  0.00  0.00    -0.078 C 
BRANCH  18  21
ATOM     19  C   UNL     1      -1.443   3.696   4.297  0.00  0.00    -0.097 C 
ATOM     20  C   UNL     1      -3.800   3.178   4.492  0.00  0.00    -0.097 C 
ATOM     21  N   UNL     1      -2.517   2.769   3.883  0.00  0.00    +0.376 N 
ATOM     22  H   UNL     1      -2.282   1.822   4.204  0.00  0.00    -0.083 HD
ENDBRANCH  18  21
ENDBRANCH  17  18
ENDBRANCH  16  17
ENDBRANCH   1  16
BRANCH   1  23
ATOM     23  C   UNL     1       0.851   2.316  -0.639  0.00  0.00    +0.147 C 
BRANCH  23  24
ATOM     24  C   UNL     1       1.804   2.392   0.527  0.00  0.00    +0.035 A 
ATOM     25  C   UNL     1       2.866   1.548   0.588  0.00  0.00    +0.020 A 
ATOM     26  C   UNL     1       3.773   1.648   1.731  0.00  0.00    +0.003 A 
ATOM     27  C   UNL     1       4.885   0.804   1.845  0.00  0.00    +0.059 A 
ATOM     28  C   UNL     1       5.722   0.922   2.933  0.00  0.00    +0.167 A 
ATOM     29  C   UNL     1       5.464   1.880   3.922  0.00  0.00    +0.168 A 
ATOM     30  C   UNL     1       4.367   2.716   3.817  0.00  0.00    +0.075 A 
ATOM     31  C   UNL     1       3.514   2.611   2.725  0.00  0.00    +0.053 A 
ATOM     32  N   UNL     1       2.417   3.438   2.603  0.00  0.00    -0.322 N 
ATOM     33  H   UNL     1       2.232   4.119   3.312  0.00  0.00    +0.169 HD
ATOM     34  C   UNL     1       1.593   3.343   1.545  0.00  0.00    +0.254 A 
ATOM     35  O   UNL     1       0.636   4.094   1.468  0.00  0.00    -0.268 OA
ATOM     36  O   UNL     1       6.433   1.787   4.877  0.00  0.00    -0.453 OA
ATOM     37  C   UNL     1       7.510   1.053   4.265  0.00  0.00    +0.466 C 
ATOM     38  O   UNL     1       6.853   0.237   3.278  0.00  0.00    -0.453 OA
ENDBRANCH  23  24
ENDBRANCH   1  23
TORSDOF 11
