REMARK  Name = ZINC02883367
REMARK  4 active torsions:
REMARK  status: ('A' for Active; 'I' for Inactive)
REMARK    1  A    between atoms: C_6  and  S_11
REMARK    2  A    between atoms: S_11  and  N_14
REMARK    3  A    between atoms: N_17  and  S_20
REMARK    4  A    between atoms: S_20  and  N_23
REMARK                            x       y       z     vdW  Elec       q    Type
REMARK                         _______ _______ _______ _____ _____    ______ ____
ROOT
ATOM      1  N   UNL     1       5.677  -3.066   1.513  0.00  0.00    -0.174 NA
ATOM      2  C   UNL     1       6.481  -2.064   2.227  0.00  0.00    +0.126 C 
ATOM      3  C   UNL     1       5.740  -1.664   3.509  0.00  0.00    +0.127 C 
ATOM      4  N   UNL     1       5.338  -2.886   4.220  0.00  0.00    -0.164 NA
ATOM      5  C   UNL     1       4.534  -3.888   3.506  0.00  0.00    +0.127 C 
ATOM      6  C   UNL     1       5.270  -4.285   2.226  0.00  0.00    +0.126 C 
ENDROOT
BRANCH   1   7
ATOM      7  S   UNL     1       5.231  -2.823  -0.063  0.00  0.00    +0.061 S 
ATOM      8  O   UNL     1       4.984  -4.107  -0.618  0.00  0.00    -0.153 OA
ATOM      9  O   UNL     1       6.181  -1.923  -0.619  0.00  0.00    -0.153 OA
BRANCH   7  15
ATOM     10  C   UNL     1      -0.016   1.357   0.009  0.00  0.00    +0.001 A 
ATOM     11  C   UNL     1       1.169   2.091   0.002  0.00  0.00    +0.001 A 
ATOM     12  C   UNL     1       2.378   1.468  -0.013  0.00  0.00    +0.008 A 
ATOM     13  C   UNL     1       2.438   0.063  -0.021  0.00  0.00    -0.016 A 
ATOM     14  C   UNL     1       3.668  -0.615  -0.036  0.00  0.00    +0.037 A 
ATOM     15  C   UNL     1       3.687  -1.976  -0.043  0.00  0.00    +0.106 A 
ATOM     16  C   UNL     1       2.502  -2.710  -0.036  0.00  0.00    +0.029 A 
ATOM     17  C   UNL     1       1.292  -2.087  -0.021  0.00  0.00    +0.010 A 
ATOM     18  C   UNL     1       1.233  -0.683  -0.013  0.00  0.00    -0.018 A 
ATOM     19  C   UNL     1       0.002  -0.004   0.002  0.00  0.00    +0.008 A 
ENDBRANCH   7  15
ENDBRANCH   1   7
BRANCH   4  20
ATOM     20  S   UNL     1       5.783  -3.129   5.796  0.00  0.00    +0.100 S 
ATOM     21  O   UNL     1       5.759  -4.533   6.013  0.00  0.00    -0.141 OA
ATOM     22  O   UNL     1       6.947  -2.344   6.015  0.00  0.00    -0.141 OA
BRANCH  20  23
ATOM     23  N   UNL     1       4.590  -2.483   6.747  0.00  0.00    -0.162 NA
ATOM     24  C   UNL     1       4.644  -1.077   7.178  0.00  0.00    +0.138 C 
ATOM     25  C   UNL     1       3.296  -0.421   6.856  0.00  0.00    +0.177 C 
ATOM     26  O   UNL     1       2.243  -1.215   7.407  0.00  0.00    -0.377 OA
ATOM     27  C   UNL     1       2.157  -2.534   6.863  0.00  0.00    +0.177 C 
ATOM     28  C   UNL     1       3.443  -3.296   7.180  0.00  0.00    +0.138 C 
ENDBRANCH  20  23
ENDBRANCH   4  20
TORSDOF 4
