REMARK  Name = ZINC64518503
REMARK  8 active torsions:
REMARK  status: ('A' for Active; 'I' for Inactive)
REMARK    1  A    between atoms: C_1  and  O_2
REMARK    2  A    between atoms: O_2  and  C_3
REMARK    3  A    between atoms: C_8  and  C_13
REMARK    4  A    between atoms: C_18  and  C_21
REMARK    5  A    between atoms: C_21  and  C_22
REMARK    6  A    between atoms: N_24  and  C_25
REMARK    7  A    between atoms: C_25  and  C_26
REMARK    8  A    between atoms: C_26  and  C_27
REMARK                            x       y       z     vdW  Elec       q    Type
REMARK                         _______ _______ _______ _____ _____    ______ ____
ROOT
ATOM      1  C   UNL     1      -4.999  -5.323   0.031  0.00  0.00    +0.263 C 
ATOM      2  O   UNL     1      -6.208  -5.284   0.165  0.00  0.00    -0.268 OA
ATOM      3  N   UNL     1      -4.371  -6.511  -0.076  0.00  0.00    -0.296 N 
ATOM      4  C   UNL     1      -2.903  -6.583  -0.083  0.00  0.00    +0.108 C 
ATOM      5  C   UNL     1      -2.454  -7.569   1.000  0.00  0.00    +0.023 C 
ATOM      6  C   UNL     1      -3.151  -8.914   0.781  0.00  0.00    +0.001 C 
ATOM      7  C   UNL     1      -4.666  -8.730   0.894  0.00  0.00    +0.023 C 
ATOM      8  C   UNL     1      -5.140  -7.758  -0.184  0.00  0.00    +0.108 C 
ENDROOT
BRANCH   1  14
ATOM      9  C   UNL     1      -1.305  -0.585  -0.519  0.00  0.00    +0.122 A 
ATOM     10  C   UNL     1      -2.312   0.078   0.183  0.00  0.00    +0.046 A 
ATOM     11  C   UNL     1      -3.438  -0.585   0.572  0.00  0.00    +0.013 A 
ATOM     12  C   UNL     1      -3.590  -1.944   0.265  0.00  0.00    +0.001 A 
ATOM     13  C   UNL     1      -4.613  -2.888   0.522  0.00  0.00    +0.040 A 
ATOM     14  C   UNL     1      -4.224  -4.075  -0.013  0.00  0.00    +0.103 A 
ATOM     15  N   UNL     1      -2.983  -3.922  -0.604  0.00  0.00    -0.350 N 
ATOM     16  H   UNL     1      -2.483  -4.619  -1.057  0.00  0.00    +0.166 HD
ATOM     17  C   UNL     1      -2.576  -2.619  -0.444  0.00  0.00    +0.050 A 
ATOM     18  C   UNL     1      -1.436  -1.924  -0.836  0.00  0.00    +0.071 A 
BRANCH   9  20
ATOM     19  C   UNL     1      -0.116   1.472  -0.539  0.00  0.00    +0.277 C 
ATOM     20  O   UNL     1      -0.190   0.091  -0.898  0.00  0.00    -0.495 OA
ENDBRANCH   9  20
ENDBRANCH   1  14
BRANCH   6  21
ATOM     21  C   UNL     1      -2.678  -9.912   1.840  0.00  0.00    +0.099 C 
BRANCH  21  22
ATOM     22  C   UNL     1      -3.269 -11.268   1.552  0.00  0.00    +0.213 C 
ATOM     23  O   UNL     1      -3.996 -11.421   0.594  0.00  0.00    -0.276 OA
ATOM     24  N   UNL     1      -2.989 -12.310   2.359  0.00  0.00    -0.315 N 
ATOM     25  H   UNL     1      -2.407 -12.188   3.126  0.00  0.00    +0.149 HD
BRANCH  24  26
ATOM     26  C   UNL     1      -3.563 -13.629   2.079  0.00  0.00    +0.108 C 
BRANCH  26  27
ATOM     27  C   UNL     1      -3.090 -14.626   3.138  0.00  0.00    +0.052 C 
BRANCH  27  28
ATOM     28  C   UNL     1      -3.681 -15.982   2.850  0.00  0.00    -0.040 C 
ATOM     29  C   UNL     1      -3.099 -16.994   2.165  0.00  0.00    +0.000 A 
ATOM     30  C   UNL     1      -1.793 -17.128   1.509  0.00  0.00    +0.030 A 
ATOM     31  C   UNL     1      -1.488 -18.291   0.887  0.00  0.00    +0.042 A 
ATOM     32  C   UNL     1      -2.386 -19.368   0.855  0.00  0.00    +0.022 A 
ATOM     33  C   UNL     1      -3.603 -19.319   1.436  0.00  0.00    +0.027 A 
ATOM     34  C   UNL     1      -4.029 -18.145   2.117  0.00  0.00    +0.043 A 
ATOM     35  N   UNL     1      -5.141 -17.857   2.748  0.00  0.00    -0.380 N 
ATOM     36  C   UNL     1      -5.041 -16.491   3.273  0.00  0.00    +0.144 C 
ATOM     37 CL   UNL     1       0.056 -18.454   0.110  0.00  0.00    -0.084 Cl
ATOM     38  H   UNL     1      -5.902 -18.449   2.853  0.00  0.00    +0.160 HD
ENDBRANCH  27  28
ENDBRANCH  26  27
ENDBRANCH  24  26
ENDBRANCH  21  22
ENDBRANCH   6  21
TORSDOF 7
