REMARK  Name = ZINC17098565
REMARK  10 active torsions:
REMARK  status: ('A' for Active; 'I' for Inactive)
REMARK    1  A    between atoms: C_1  and  C_2
REMARK    2  A    between atoms: C_2  and  C_3
REMARK    3  A    between atoms: C_2  and  C_4
REMARK    4  A    between atoms: C_2  and  C_5
REMARK    5  A    between atoms: C_12  and  N_18
REMARK    6  A    between atoms: C_13  and  C_14
REMARK    7  A    between atoms: C_14  and  O_16
REMARK    8  A    between atoms: O_16  and  C_17
REMARK    9  A    between atoms: C_19  and  C_21
REMARK   10  A    between atoms: C_30  and  C_32
REMARK                            x       y       z     vdW  Elec       q    Type
REMARK                         _______ _______ _______ _____ _____    ______ ____
ROOT
ATOM      1  C   UNL     1       3.034   2.919   3.590  0.00  0.00    -0.000 C 
ATOM      2  C   UNL     1       1.505   2.915   3.680  0.00  0.00    +0.009 C 
ATOM      3  C   UNL     1       0.925   1.972   2.624  0.00  0.00    +0.037 C 
ATOM      4  C   UNL     1       1.506   2.343   1.265  0.00  0.00    -0.021 A 
ATOM      5  C   UNL     1       2.634   3.079   1.168  0.00  0.00    -0.004 A 
ATOM      6  S   UNL     1       2.918   3.245  -0.571  0.00  0.00    -0.077 S 
ATOM      7  C   UNL     1       1.563   2.343  -1.164  0.00  0.00    +0.086 A 
ATOM      8  C   UNL     1       0.922   1.935  -0.002  0.00  0.00    +0.091 A 
ATOM      9  C   UNL     1       3.452   3.631   2.295  0.00  0.00    +0.046 C 
ENDROOT
BRANCH   1  11
ATOM     10  C   UNL     1       3.090   5.098   4.811  0.00  0.00    +0.011 C 
ATOM     11  C   UNL     1       3.616   3.662   4.794  0.00  0.00    -0.035 C 
ATOM     12  C   UNL     1       3.199   2.950   6.083  0.00  0.00    +0.011 C 
ATOM     13  C   UNL     1       5.143   3.679   4.693  0.00  0.00    +0.011 C 
ENDBRANCH   1  11
BRANCH   7  14
ATOM     14  N   UNL     1       1.205   2.090  -2.479  0.00  0.00    -0.279 N 
ATOM     15  C   UNL     1       1.958   2.574  -3.487  0.00  0.00    +0.222 C 
ATOM     16  O   UNL     1       2.895   3.306  -3.247  0.00  0.00    -0.275 OA
ATOM     17  H   UNL     1       0.414   1.565  -2.674  0.00  0.00    +0.155 HD
BRANCH  15  18
ATOM     18  C   UNL     1       1.636   2.205  -4.912  0.00  0.00    +0.092 C 
ATOM     19  C   UNL     1       2.725   1.248  -5.486  0.00  0.00    +0.002 C 
ATOM     20  C   UNL     1       4.078   1.933  -5.122  0.00  0.00    +0.004 C 
ATOM     21  C   UNL     1       4.150   3.184  -6.046  0.00  0.00    +0.004 C 
ATOM     22  C   UNL     1       2.818   3.136  -6.856  0.00  0.00    +0.004 C 
ATOM     23  C   UNL     1       2.632   1.586  -7.016  0.00  0.00    +0.008 C 
ATOM     24  C   UNL     1       1.698   3.456  -5.820  0.00  0.00    +0.117 C 
BRANCH  24  25
ATOM     25  C   UNL     1       2.062   4.674  -5.011  0.00  0.00    +0.360 C 
ATOM     26  O   UNL     1       2.955   5.399  -5.380  0.00  0.00    -0.246 OA
ATOM     27  O   UNL     1       1.393   4.954  -3.881  0.00  0.00    -0.246 OA
ENDBRANCH  24  25
ENDBRANCH  15  18
ENDBRANCH   7  14
BRANCH   8  28
ATOM     28  C   UNL     1      -0.300   1.129  -0.051  0.00  0.00    +0.342 C 
ATOM     29  O   UNL     1      -0.228  -0.085  -0.060  0.00  0.00    -0.245 OA
BRANCH  28  30
ATOM     30  O   UNL     1      -1.505   1.733  -0.092  0.00  0.00    -0.464 OA
ATOM     31  C   UNL     1      -2.673   0.872  -0.146  0.00  0.00    +0.280 C 
ENDBRANCH  28  30
ENDBRANCH   8  28
TORSDOF 6
