REMARK  Name = ZINC40371590
REMARK  8 active torsions:
REMARK  status: ('A' for Active; 'I' for Inactive)
REMARK    1  A    between atoms: C_1  and  C_2
REMARK    2  A    between atoms: C_2  and  C_3
REMARK    3  A    between atoms: C_2  and  C_4
REMARK    4  A    between atoms: C_2  and  C_5
REMARK    5  A    between atoms: C_5  and  C_6
REMARK    6  A    between atoms: N_8  and  C_9
REMARK    7  A    between atoms: C_9  and  C_17
REMARK    8  A    between atoms: N_18  and  O_19
REMARK                            x       y       z     vdW  Elec       q    Type
REMARK                         _______ _______ _______ _____ _____    ______ ____
ROOT
ATOM      1  C   UNL     1       4.363   0.131  -2.351  0.00  0.00    +0.093 C 
ATOM      2  C   UNL     1       5.189  -0.172  -1.127  0.00  0.00    +0.033 C 
ATOM      3  C   UNL     1       5.608  -1.603  -0.849  0.00  0.00    +0.002 C 
ATOM      4  C   UNL     1       4.434  -2.585  -0.872  0.00  0.00    +0.000 C 
ATOM      5  C   UNL     1       4.589  -3.509  -2.094  0.00  0.00    +0.000 C 
ATOM      6  C   UNL     1       4.226  -2.756  -3.374  0.00  0.00    +0.000 C 
ATOM      7  C   UNL     1       5.361  -1.799  -3.731  0.00  0.00    +0.002 C 
ATOM      8  C   UNL     1       4.937  -0.348  -3.669  0.00  0.00    +0.033 C 
ENDROOT
BRANCH   1   9
ATOM      9  C   UNL     1       4.309   1.665  -2.456  0.00  0.00    +0.155 C 
ATOM     10  N   UNL     1       4.732   2.255  -3.525  0.00  0.00    -0.075 NA
ATOM     11  N   UNL     1       3.810   2.409  -1.410  0.00  0.00    -0.342 N 
ATOM     12  H   UNL     1       3.425   1.965  -0.639  0.00  0.00    +0.144 HD
ATOM     13  H   UNL     1       3.844   3.378  -1.445  0.00  0.00    +0.144 HD
BRANCH  10  14
ATOM     14  O   UNL     1       4.682   3.667  -3.621  0.00  0.00    -0.408 OA
ATOM     15  H   UNL     1       5.020   4.016  -4.457  0.00  0.00    +0.328 HD
ENDBRANCH  10  14
ENDBRANCH   1   9
BRANCH   1  18
ATOM     16  C   UNL     1       2.058   0.029  -3.135  0.00  0.00    +0.214 C 
ATOM     17  O   UNL     1       2.376   0.725  -4.077  0.00  0.00    -0.276 OA
ATOM     18  N   UNL     1       2.966  -0.280  -2.189  0.00  0.00    -0.303 N 
ATOM     19  H   UNL     1       2.694  -0.774  -1.399  0.00  0.00    +0.150 HD
BRANCH  16  20
ATOM     20  C   UNL     1       0.647  -0.488  -3.025  0.00  0.00    +0.102 C 
BRANCH  20  22
ATOM     21  C   UNL     1       0.458  -0.506  -5.516  0.00  0.00    +0.011 C 
ATOM     22  C   UNL     1      -0.173   0.005  -4.219  0.00  0.00    -0.029 C 
ATOM     23  C   UNL     1      -0.190   1.535  -4.228  0.00  0.00    +0.011 C 
ATOM     24  C   UNL     1      -1.605  -0.521  -4.106  0.00  0.00    +0.011 C 
ENDBRANCH  20  22
ENDBRANCH  16  20
ENDBRANCH   1  18
TORSDOF 5
