REMARK  Name = ZINC48837154
REMARK  3 active torsions:
REMARK  status: ('A' for Active; 'I' for Inactive)
REMARK    1  A    between atoms: C_5  and  C_8
REMARK    2  A    between atoms: C_5  and  N_11
REMARK    3  A    between atoms: C_18  and  N_21
REMARK                            x       y       z     vdW  Elec       q    Type
REMARK                         _______ _______ _______ _____ _____    ______ ____
ROOT
ATOM      1  N   UNL     1       2.464  -0.546  -0.388  0.00  0.00    -0.283 N 
ATOM      2  C   UNL     1       2.115  -1.620  -1.124  0.00  0.00    +0.303 C 
ATOM      3  O   UNL     1       1.484  -2.526  -0.615  0.00  0.00    -0.253 OA
ATOM      4  N   UNL     1       2.467  -1.691  -2.423  0.00  0.00    -0.287 N 
ATOM      5  C   UNL     1       1.993  -2.795  -3.268  0.00  0.00    +0.109 C 
ATOM      6  C   UNL     1       3.201  -3.461  -3.934  0.00  0.00    +0.017 C 
ATOM      7  C   UNL     1       4.015  -2.401  -4.681  0.00  0.00    -0.013 C 
ATOM      8  C   UNL     1       4.526  -1.354  -3.689  0.00  0.00    -0.057 C 
ATOM      9  C   UNL     1       3.328  -0.661  -3.022  0.00  0.00    +0.093 C 
ATOM     10  H   UNL     1       2.900   0.210  -0.811  0.00  0.00    +0.151 HD
ENDROOT
BRANCH   1  15
ATOM     11  C   UNL     1      -0.038   1.431   0.020  0.00  0.00    +0.000 C 
ATOM     12  C   UNL     1       1.374   2.051   0.003  0.00  0.00    +0.000 C 
ATOM     13  C   UNL     1       1.931   2.010   1.400  0.00  0.00    +0.003 C 
ATOM     14  C   UNL     1       2.794   0.759   1.653  0.00  0.00    +0.037 C 
ATOM     15  C   UNL     1       2.184  -0.520   1.050  0.00  0.00    +0.137 C 
ATOM     16  C   UNL     1       0.696  -0.603   1.257  0.00  0.00    +0.037 C 
ATOM     17  C   UNL     1      -0.006  -0.024   0.012  0.00  0.00    +0.003 C 
BRANCH  15  18
ATOM     18  C   UNL     1       2.833  -1.720   1.691  0.00  0.00    +0.379 C 
ATOM     19  O   UNL     1       2.751  -1.885   2.896  0.00  0.00    -0.244 OA
ATOM     20  O   UNL     1       3.440  -2.524   1.005  0.00  0.00    -0.244 OA
ENDBRANCH  15  18
ENDBRANCH   1  15
BRANCH   8  21
ATOM     21  N   UNL     1       5.333  -0.355  -4.403  0.00  0.00    +0.381 N 
ATOM     22  H   UNL     1       4.766   0.096  -5.105  0.00  0.00    -0.090 HD
ATOM     23  H   UNL     1       5.670   0.335  -3.748  0.00  0.00    -0.090 HD
ATOM     24  H   UNL     1       6.117  -0.811  -4.845  0.00  0.00    -0.090 HD
ENDBRANCH   8  21
TORSDOF 3
