REMARK  Name = ZINC60039101
REMARK  11 active torsions:
REMARK  status: ('A' for Active; 'I' for Inactive)
REMARK    1  A    between atoms: C_1  and  C_2
REMARK    2  A    between atoms: C_2  and  C_27
REMARK    3  A    between atoms: N_5  and  N_9
REMARK    4  A    between atoms: C_10  and  C_12
REMARK    5  A    between atoms: C_12  and  N_13
REMARK    6  A    between atoms: N_13  and  C_14
REMARK    7  A    between atoms: N_13  and  C_20
REMARK    8  A    between atoms: C_14  and  C_15
REMARK    9  A    between atoms: C_20  and  C_21
REMARK   10  A    between atoms: C_27  and  C_28
REMARK   11  A    between atoms: C_28  and  C_29
REMARK                            x       y       z     vdW  Elec       q    Type
REMARK                         _______ _______ _______ _____ _____    ______ ____
ROOT
ATOM      1  N   UNL     1       2.783  -1.148  -1.071  0.00  0.00    -0.225 N 
ATOM      2  C   UNL     1       4.085  -0.825  -1.193  0.00  0.00    +0.213 C 
ATOM      3  O   UNL     1       4.559   0.055  -0.505  0.00  0.00    -0.276 OA
ATOM      4  H   UNL     1       2.404  -1.851  -1.621  0.00  0.00    +0.173 HD
ENDROOT
BRANCH   1   9
ATOM      5  C   UNL     1       0.692   2.406   1.051  0.00  0.00    +0.041 C 
ATOM      6  C   UNL     1       0.440   0.914   0.822  0.00  0.00    +0.112 C 
ATOM      7  C   UNL     1       1.062   0.463  -0.484  0.00  0.00    +0.263 C 
ATOM      8  O   UNL     1       0.795   0.858  -1.598  0.00  0.00    -0.271 OA
ATOM      9  N   UNL     1       1.976  -0.470  -0.148  0.00  0.00    -0.137 N 
ATOM     10  C   UNL     1       2.017  -0.668   1.174  0.00  0.00    +0.326 C 
ATOM     11  O   UNL     1       2.761  -1.460   1.716  0.00  0.00    -0.251 OA
ATOM     12  N   UNL     1       1.140   0.109   1.837  0.00  0.00    -0.284 N 
ATOM     13  H   UNL     1       0.998   0.133   2.796  0.00  0.00    +0.151 HD
BRANCH   6  14
ATOM     14  C   UNL     1      -1.061   0.615   0.839  0.00  0.00    +0.040 C 
BRANCH  14  15
ATOM     15  C   UNL     1      -1.649   1.031   2.189  0.00  0.00    +0.038 C 
BRANCH  15  16
ATOM     16  C   UNL     1      -3.127   0.736   2.205  0.00  0.00    -0.047 A 
ATOM     17  C   UNL     1      -4.027   1.692   1.774  0.00  0.00    +0.003 A 
ATOM     18  C   UNL     1      -5.383   1.421   1.789  0.00  0.00    +0.000 A 
ATOM     19  C   UNL     1      -5.838   0.195   2.235  0.00  0.00    +0.000 A 
ATOM     20  C   UNL     1      -4.937  -0.761   2.666  0.00  0.00    +0.000 A 
ATOM     21  C   UNL     1      -3.581  -0.492   2.647  0.00  0.00    +0.003 A 
ENDBRANCH  15  16
ENDBRANCH  14  15
ENDBRANCH   6  14
ENDBRANCH   1   9
BRANCH   2  22
ATOM     22  C   UNL     1       4.954  -1.554  -2.185  0.00  0.00    +0.021 C 
BRANCH  22  23
ATOM     23  N   UNL     1       6.321  -1.020  -2.126  0.00  0.00    +0.392 N 
ATOM     24  H   UNL     1       6.298  -0.021  -2.270  0.00  0.00    -0.080 HD
BRANCH  23  25
ATOM     25  C   UNL     1       6.904  -1.312  -0.810  0.00  0.00    -0.002 C 
BRANCH  25  26
ATOM     26  C   UNL     1       8.251  -0.645  -0.699  0.00  0.00    +0.089 A 
ATOM     27  C   UNL     1       8.468   0.630  -0.328  0.00  0.00    +0.042 A 
ATOM     28  C   UNL     1       9.867   0.833  -0.360  0.00  0.00    +0.041 A 
ATOM     29  C   UNL     1      10.421  -0.330  -0.748  0.00  0.00    +0.195 A 
ATOM     30  O   UNL     1       9.437  -1.223  -0.946  0.00  0.00    -0.470 OA
ENDBRANCH  25  26
ENDBRANCH  23  25
BRANCH  23  31
ATOM     31  C   UNL     1       7.137  -1.647  -3.174  0.00  0.00    -0.046 C 
BRANCH  31  32
ATOM     32  C   UNL     1       6.612  -1.227  -4.549  0.00  0.00    +0.102 C 
ATOM     33  C   UNL     1       7.502  -1.832  -5.656  0.00  0.00    +0.032 C 
ATOM     34  C   UNL     1       7.577  -0.674  -6.688  0.00  0.00    +0.030 C 
ATOM     35  C   UNL     1       7.557   0.558  -5.750  0.00  0.00    +0.160 C 
ATOM     36  O   UNL     1       6.670   0.199  -4.676  0.00  0.00    -0.378 OA
ENDBRANCH  31  32
ENDBRANCH  23  31
ENDBRANCH  22  23
ENDBRANCH   2  22
TORSDOF 10
