REMARK  Name = ZINC44313666
REMARK  10 active torsions:
REMARK  status: ('A' for Active; 'I' for Inactive)
REMARK    1  A    between atoms: C_1  and  C_2
REMARK    2  A    between atoms: C_2  and  C_3
REMARK    3  A    between atoms: C_2  and  C_4
REMARK    4  A    between atoms: C_7  and  O_10
REMARK    5  A    between atoms: O_10  and  C_11
REMARK    6  A    between atoms: C_11  and  C_13
REMARK    7  A    between atoms: C_13  and  C_14
REMARK    8  A    between atoms: C_20  and  C_22
REMARK    9  A    between atoms: C_22  and  C_23
REMARK   10  A    between atoms: C_22  and  C_24
REMARK                            x       y       z     vdW  Elec       q    Type
REMARK                         _______ _______ _______ _____ _____    ______ ____
ROOT
ATOM      1  C   UNL     1      -7.145  -3.088  -1.115  0.00  0.00    +0.177 C 
ENDROOT
BRANCH   1   2
ATOM      2  C   UNL     1      -7.363  -3.833  -2.407  0.00  0.00    +0.061 A 
ATOM      3  C   UNL     1      -7.881  -5.086  -2.422  0.00  0.00    +0.072 A 
ATOM      4  S   UNL     1      -7.896  -5.418  -4.176  0.00  0.00    -0.060 S 
ATOM      5  C   UNL     1      -7.252  -3.953  -4.696  0.00  0.00    +0.165 A 
ATOM      6  N   UNL     1      -7.064  -3.294  -3.574  0.00  0.00    -0.229 NA
ATOM      7  N   UNL     1      -6.989  -3.538  -5.996  0.00  0.00    -0.264 N 
ATOM      8  C   UNL     1      -7.256  -4.357  -7.032  0.00  0.00    +0.221 C 
ATOM      9  O   UNL     1      -7.726  -5.457  -6.830  0.00  0.00    -0.275 OA
ATOM     10  H   UNL     1      -6.613  -2.659  -6.158  0.00  0.00    +0.157 HD
BRANCH   8  11
ATOM     11  C   UNL     1      -6.970  -3.908  -8.442  0.00  0.00    +0.069 C 
ATOM     12  C   UNL     1      -5.478  -3.602  -8.587  0.00  0.00    +0.017 C 
ATOM     13  C   UNL     1      -7.362  -5.017  -9.421  0.00  0.00    +0.017 C 
ENDBRANCH   8  11
ENDBRANCH   1   2
BRANCH   1  14
ATOM     14  C   UNL     1      -5.708  -2.642  -1.029  0.00  0.00    +0.318 C 
ATOM     15  O   UNL     1      -4.940  -2.903  -1.924  0.00  0.00    -0.250 OA
BRANCH  14  16
ATOM     16  O   UNL     1      -5.282  -1.955   0.043  0.00  0.00    -0.426 OA
BRANCH  16  20
ATOM     17  C   UNL     1      -1.428  -0.483  -0.007  0.00  0.00    -0.045 A 
ATOM     18  C   UNL     1      -2.383   0.056  -0.849  0.00  0.00    +0.007 A 
ATOM     19  C   UNL     1      -3.674  -0.435  -0.834  0.00  0.00    +0.046 A 
ATOM     20  C   UNL     1      -4.012  -1.470   0.026  0.00  0.00    +0.132 A 
ATOM     21  C   UNL     1      -3.051  -2.009   0.870  0.00  0.00    +0.046 A 
ATOM     22  C   UNL     1      -1.760  -1.518   0.847  0.00  0.00    +0.007 A 
BRANCH  17  24
ATOM     23  C   UNL     1       0.573  -0.116  -1.424  0.00  0.00    +0.012 C 
ATOM     24  C   UNL     1      -0.020   0.055  -0.025  0.00  0.00    +0.013 C 
ATOM     25  C   UNL     1      -0.037   1.540   0.344  0.00  0.00    +0.012 C 
ENDBRANCH  17  24
ENDBRANCH  16  20
ENDBRANCH  14  16
ENDBRANCH   1  14
TORSDOF 6
