REMARK  Name = ZINC39696197
REMARK  9 active torsions:
REMARK  status: ('A' for Active; 'I' for Inactive)
REMARK    1  A    between atoms: C_1  and  C_2
REMARK    2  A    between atoms: C_2  and  C_3
REMARK    3  A    between atoms: C_6  and  C_9
REMARK    4  A    between atoms: C_9  and  C_11
REMARK    5  A    between atoms: C_9  and  N_12
REMARK    6  A    between atoms: C_13  and  C_15
REMARK    7  A    between atoms: C_26  and  C_28
REMARK    8  A    between atoms: C_32  and  O_33
REMARK    9  A    between atoms: O_33  and  C_34
REMARK                            x       y       z     vdW  Elec       q    Type
REMARK                         _______ _______ _______ _____ _____    ______ ____
ROOT
ATOM      1  C   UNL     1       5.901  -0.328  -6.224  0.00  0.00    +0.100 C 
ATOM      2  C   UNL     1       6.974  -1.028  -5.360  0.00  0.00    +0.121 C 
ATOM      3  N   UNL     1       7.652  -1.962  -6.289  0.00  0.00    -0.296 N 
ATOM      4  C   UNL     1       7.753  -1.208  -7.561  0.00  0.00    +0.115 C 
ATOM      5  C   UNL     1       6.418  -0.445  -7.667  0.00  0.00    -0.004 C 
ATOM      6  C   UNL     1       6.647   0.941  -8.261  0.00  0.00    -0.010 C 
ATOM      7  C   UNL     1       7.104   0.800  -9.715  0.00  0.00    -0.082 C 
ATOM      8  N   UNL     1       6.082   0.079 -10.484  0.00  0.00    +0.379 N 
ATOM      9  C   UNL     1       5.935  -1.286  -9.964  0.00  0.00    -0.082 C 
ATOM     10  C   UNL     1       5.428  -1.233  -8.521  0.00  0.00    -0.010 C 
ATOM     11  C   UNL     1       8.079  -3.215  -6.034  0.00  0.00    +0.251 C 
ATOM     12  O   UNL     1       7.836  -3.734  -4.962  0.00  0.00    -0.270 OA
ATOM     13  H   UNL     1       5.201   0.564 -10.407  0.00  0.00    -0.086 HD
ATOM     14  H   UNL     1       6.358   0.040 -11.454  0.00  0.00    -0.086 HD
ENDROOT
BRANCH  11  15
ATOM     15  C   UNL     1       8.841  -3.953  -7.053  0.00  0.00    +0.087 A 
ATOM     16  C   UNL     1       9.720  -3.314  -7.901  0.00  0.00    +0.063 A 
ATOM     17  S   UNL     1      10.335  -4.543  -8.863  0.00  0.00    -0.081 S 
ATOM     18  C   UNL     1       9.460  -5.937  -8.186  0.00  0.00    +0.120 A 
ATOM     19  C   UNL     1       8.708  -5.383  -7.209  0.00  0.00    +0.158 A 
ATOM     20 CL   UNL     1       9.555  -7.604  -8.661  0.00  0.00    -0.072 Cl
BRANCH  19  21
ATOM     21  O   UNL     1       7.875  -6.124  -6.426  0.00  0.00    -0.492 OA
ATOM     22  C   UNL     1       6.535  -6.298  -6.888  0.00  0.00    +0.277 C 
ENDBRANCH  19  21
ENDBRANCH  11  15
BRANCH   1  24
ATOM     23  N   UNL     1       3.427  -0.332  -6.201  0.00  0.00    -0.308 N 
ATOM     24  C   UNL     1       4.574  -1.030  -6.083  0.00  0.00    +0.219 C 
ATOM     25  O   UNL     1       4.539  -2.222  -5.863  0.00  0.00    -0.275 OA
ATOM     26  H   UNL     1       3.455   0.621  -6.377  0.00  0.00    +0.149 HD
BRANCH  23  27
ATOM     27  C   UNL     1       2.138  -1.014  -6.064  0.00  0.00    +0.100 C 
ATOM     28  C   UNL     1       1.761  -1.101  -4.583  0.00  0.00    +0.033 C 
BRANCH  27  32
ATOM     29  C   UNL     1      -0.865   1.176  -8.169  0.00  0.00    -0.048 A 
ATOM     30  C   UNL     1      -0.858  -0.205  -8.214  0.00  0.00    +0.004 A 
ATOM     31  C   UNL     1       0.114  -0.914  -7.532  0.00  0.00    +0.006 A 
ATOM     32  C   UNL     1       1.079  -0.242  -6.807  0.00  0.00    -0.027 A 
ATOM     33  C   UNL     1       1.073   1.140  -6.763  0.00  0.00    +0.006 A 
ATOM     34  C   UNL     1       0.104   1.849  -7.448  0.00  0.00    +0.004 A 
BRANCH  29  36
ATOM     35  C   UNL     1      -1.438   2.246 -10.332  0.00  0.00    +0.009 C 
ATOM     36  C   UNL     1      -1.924   1.949  -8.912  0.00  0.00    +0.032 C 
ENDBRANCH  29  36
ENDBRANCH  27  32
ENDBRANCH  23  27
ENDBRANCH   1  24
TORSDOF 6
