REMARK  Name = ZINC39710301
REMARK  9 active torsions:
REMARK  status: ('A' for Active; 'I' for Inactive)
REMARK    1  A    between atoms: C_1  and  C_2
REMARK    2  A    between atoms: C_9  and  C_14
REMARK    3  A    between atoms: C_14  and  C_16
REMARK    4  A    between atoms: C_14  and  N_27
REMARK    5  A    between atoms: N_21  and  C_22
REMARK    6  A    between atoms: N_27  and  C_28
REMARK    7  A    between atoms: N_27  and  C_35
REMARK    8  A    between atoms: C_28  and  C_29
REMARK    9  A    between atoms: C_35  and  C_36
REMARK                            x       y       z     vdW  Elec       q    Type
REMARK                         _______ _______ _______ _____ _____    ______ ____
ROOT
ATOM      1  C   UNL     1       1.663  -4.820   3.264  0.00  0.00    -0.009 C 
ENDROOT
BRANCH   1  10
ATOM      2  C   UNL     1      -5.141  -3.516   4.997  0.00  0.00    +0.044 C 
ATOM      3  C   UNL     1      -3.771  -3.106   4.522  0.00  0.00    -0.050 A 
ATOM      4  C   UNL     1      -3.372  -1.775   4.653  0.00  0.00    +0.005 A 
ATOM      5  C   UNL     1      -2.153  -1.332   4.248  0.00  0.00    +0.024 A 
ATOM      6  C   UNL     1      -1.227  -2.219   3.670  0.00  0.00    +0.040 A 
ATOM      7  N   UNL     1      -0.034  -1.773   3.277  0.00  0.00    -0.285 N 
ATOM      8  C   UNL     1       0.883  -2.552   2.726  0.00  0.00    +0.223 C 
ATOM      9  O   UNL     1       1.955  -2.087   2.387  0.00  0.00    -0.275 OA
ATOM     10  C   UNL     1       0.593  -4.021   2.519  0.00  0.00    +0.088 C 
ATOM     11  C   UNL     1      -0.763  -4.533   2.964  0.00  0.00    -0.006 C 
ATOM     12  C   UNL     1      -1.621  -3.631   3.519  0.00  0.00    -0.007 A 
ATOM     13  C   UNL     1      -2.947  -4.041   3.981  0.00  0.00    +0.012 A 
ATOM     14  H   UNL     1       0.172  -0.833   3.401  0.00  0.00    +0.155 HD
ENDBRANCH   1  10
BRANCH   1  15
ATOM     15  C   UNL     1       1.574  -4.520   4.761  0.00  0.00    +0.205 C 
ATOM     16  N   UNL     1       0.219  -4.791   5.259  0.00  0.00    -0.152 NA
ATOM     17  N   UNL     1      -0.261  -3.744   5.700  0.00  0.00    -0.070 NA
ATOM     18  N   UNL     1       0.611  -2.661   5.592  0.00  0.00    -0.179 N 
ATOM     19  N   UNL     1       1.783  -3.079   5.012  0.00  0.00    -0.185 NA
ATOM     20  H   UNL     1       0.419  -1.755   5.881  0.00  0.00    +0.191 HD
BRANCH  19  21
ATOM     21  C   UNL     1       2.924  -2.860   5.910  0.00  0.00    +0.080 C 
ATOM     22  C   UNL     1       2.643  -3.498   7.287  0.00  0.00    +0.021 C 
ATOM     23  C   UNL     1       3.272  -2.509   8.299  0.00  0.00    +0.002 C 
ATOM     24  C   UNL     1       2.953  -1.129   7.673  0.00  0.00    +0.002 C 
ATOM     25  C   UNL     1       3.121  -1.354   6.156  0.00  0.00    +0.021 C 
ENDBRANCH  19  21
ENDBRANCH   1  15
BRANCH   1  26
ATOM     26  N   UNL     1       1.448  -6.256   3.038  0.00  0.00    +0.390 N 
ATOM     27  H   UNL     1       0.516  -6.507   3.332  0.00  0.00    -0.080 HD
BRANCH  26  28
ATOM     28  C   UNL     1       2.430  -7.026   3.814  0.00  0.00    -0.042 C 
BRANCH  28  29
ATOM     29  C   UNL     1       1.998  -8.468   3.881  0.00  0.00    -0.064 A 
ATOM     30  C   UNL     1       1.080  -8.872   4.832  0.00  0.00    +0.002 A 
ATOM     31  C   UNL     1       0.684 -10.194   4.894  0.00  0.00    +0.000 A 
ATOM     32  C   UNL     1       1.205 -11.114   4.002  0.00  0.00    +0.000 A 
ATOM     33  C   UNL     1       2.122 -10.710   3.050  0.00  0.00    +0.000 A 
ATOM     34  C   UNL     1       2.515  -9.386   2.986  0.00  0.00    +0.002 A 
ENDBRANCH  28  29
ENDBRANCH  26  28
BRANCH  26  35
ATOM     35  C   UNL     1       1.609  -6.557   1.609  0.00  0.00    -0.040 C 
BRANCH  35  36
ATOM     36  C   UNL     1       2.935  -6.026   1.130  0.00  0.00    -0.046 A 
ATOM     37  C   UNL     1       3.055  -4.708   0.715  0.00  0.00    +0.005 A 
ATOM     38  C   UNL     1       4.294  -4.263   0.281  0.00  0.00    +0.020 A 
ATOM     39  C   UNL     1       5.362  -5.141   0.279  0.00  0.00    +0.111 A 
ATOM     40  N   UNL     1       5.211  -6.388   0.680  0.00  0.00    -0.263 NA
ATOM     41  C   UNL     1       4.048  -6.844   1.105  0.00  0.00    +0.112 A 
ENDBRANCH  35  36
ENDBRANCH  26  35
ENDBRANCH   1  26
TORSDOF 8
