REMARK  Name = ZINC55073564
REMARK  5 active torsions:
REMARK  status: ('A' for Active; 'I' for Inactive)
REMARK    1  A    between atoms: C_4  and  C_7
REMARK    2  A    between atoms: C_8  and  C_9
REMARK    3  A    between atoms: C_9  and  N_10
REMARK    4  A    between atoms: C_16  and  C_18
REMARK    5  A    between atoms: C_18  and  C_19
REMARK                            x       y       z     vdW  Elec       q    Type
REMARK                         _______ _______ _______ _____ _____    ______ ____
ROOT
ATOM      1  N   UNL     1       5.126  -3.643   1.034  0.00  0.00    -0.286 NA
ATOM      2  C   UNL     1       5.282  -2.925   2.310  0.00  0.00    +0.104 C 
ATOM      3  C   UNL     1       4.952  -3.882   3.456  0.00  0.00    +0.119 C 
ATOM      4  N   UNL     1       5.695  -5.129   3.296  0.00  0.00    -0.313 N 
ATOM      5  C   UNL     1       6.242  -5.505   2.135  0.00  0.00    +0.231 C 
ATOM      6  O   UNL     1       6.816  -6.572   2.081  0.00  0.00    -0.274 OA
ATOM      7  C   UNL     1       6.176  -4.660   0.894  0.00  0.00    +0.152 C 
ATOM      8  H   UNL     1       5.796  -5.711   4.065  0.00  0.00    +0.149 HD
ENDROOT
BRANCH   1   9
ATOM      9  C   UNL     1       5.141  -2.710  -0.100  0.00  0.00    +0.112 C 
BRANCH   9  11
ATOM     10  C   UNL     1       3.870  -0.610  -0.131  0.00  0.00    +0.005 C 
ATOM     11  C   UNL     1       3.848  -1.935  -0.131  0.00  0.00    -0.011 C 
BRANCH  10  15
ATOM     12  C   UNL     1       0.228   1.573  -0.218  0.00  0.00    +0.000 A 
ATOM     13  C   UNL     1       1.435   2.248  -0.189  0.00  0.00    +0.001 A 
ATOM     14  C   UNL     1       2.621   1.545  -0.161  0.00  0.00    +0.008 A 
ATOM     15  C   UNL     1       2.602   0.150  -0.161  0.00  0.00    -0.025 A 
ATOM     16  C   UNL     1       1.381  -0.525  -0.190  0.00  0.00    +0.008 A 
ATOM     17  C   UNL     1       0.202   0.190  -0.218  0.00  0.00    +0.001 A 
ENDBRANCH  10  15
ENDBRANCH   9  11
ENDBRANCH   1   9
BRANCH   7  18
ATOM     18  C   UNL     1       5.864  -5.550  -0.311  0.00  0.00    +0.126 C 
BRANCH  18  19
ATOM     19  C   UNL     1       4.510  -6.186  -0.128  0.00  0.00    +0.240 C 
ATOM     20  O   UNL     1       3.818  -5.877   0.820  0.00  0.00    -0.273 OA
ATOM     21  N   UNL     1       4.068  -7.098  -1.016  0.00  0.00    -0.181 N 
ATOM     22  C   UNL     1       2.748  -7.725  -0.858  0.00  0.00    +0.140 C 
ATOM     23  C   UNL     1       2.917  -9.245  -0.968  0.00  0.00    +0.024 C 
ATOM     24  C   UNL     1       3.668  -9.571  -2.262  0.00  0.00    +0.032 C 
ATOM     25  C   UNL     1       5.040  -8.893  -2.239  0.00  0.00    +0.190 C 
ATOM     26  O   UNL     1       4.865  -7.472  -2.132  0.00  0.00    -0.277 OA
ENDBRANCH  18  19
ENDBRANCH   7  18
TORSDOF 5
