REMARK  Name = ZINC36531397
REMARK  8 active torsions:
REMARK  status: ('A' for Active; 'I' for Inactive)
REMARK    1  A    between atoms: C_1  and  N_2
REMARK    2  A    between atoms: N_2  and  C_3
REMARK    3  A    between atoms: C_3  and  C_5
REMARK    4  A    between atoms: C_3  and  C_10
REMARK    5  A    between atoms: N_12  and  C_13
REMARK    6  A    between atoms: C_19  and  C_21
REMARK    7  A    between atoms: C_25  and  O_28
REMARK    8  A    between atoms: C_26  and  O_27
REMARK                            x       y       z     vdW  Elec       q    Type
REMARK                         _______ _______ _______ _____ _____    ______ ____
ROOT
ATOM      1  C   UNL     1       0.557  -0.878   1.173  0.00  0.00    +0.228 C 
ENDROOT
BRANCH   1   2
ATOM      2  C   UNL     1      -0.232  -0.210   2.269  0.00  0.00    +0.134 A 
ATOM      3  C   UNL     1      -0.972  -0.838   3.201  0.00  0.00    +0.047 A 
ATOM      4  C   UNL     1      -1.535   0.166   4.022  0.00  0.00    +0.041 A 
ATOM      5  C   UNL     1      -1.105   1.347   3.543  0.00  0.00    +0.195 A 
ATOM      6  O   UNL     1      -0.312   1.113   2.485  0.00  0.00    -0.465 OA
ENDBRANCH   1   2
BRANCH   1   8
ATOM      7  C   UNL     1       0.877   1.291  -0.104  0.00  0.00    +0.133 C 
ATOM      8  N   UNL     1       0.429  -0.103  -0.063  0.00  0.00    -0.282 N 
ATOM      9  C   UNL     1      -0.102  -0.673  -1.163  0.00  0.00    +0.251 C 
ATOM     10  O   UNL     1      -0.562  -1.797  -1.105  0.00  0.00    -0.270 OA
BRANCH   9  11
ATOM     11  C   UNL     1      -0.124   0.067  -2.439  0.00  0.00    +0.082 A 
ATOM     12  C   UNL     1       0.998   0.793  -2.850  0.00  0.00    +0.017 A 
ATOM     13  C   UNL     1       0.974   1.482  -4.043  0.00  0.00    +0.005 A 
ATOM     14  C   UNL     1      -0.159   1.462  -4.840  0.00  0.00    +0.049 A 
ATOM     15  C   UNL     1      -1.278   0.748  -4.447  0.00  0.00    +0.159 A 
ATOM     16  C   UNL     1      -1.267   0.042  -3.248  0.00  0.00    +0.171 A 
BRANCH  16  17
ATOM     17  O   UNL     1      -2.360  -0.664  -2.861  0.00  0.00    -0.503 OA
ATOM     18  H   UNL     1      -2.989  -0.156  -2.330  0.00  0.00    +0.292 HD
ENDBRANCH  16  17
BRANCH  15  19
ATOM     19  O   UNL     1      -2.387   0.733  -5.234  0.00  0.00    -0.503 OA
ATOM     20  H   UNL     1      -2.399   0.015  -5.882  0.00  0.00    +0.292 HD
ENDBRANCH  15  19
ENDBRANCH   9  11
ENDBRANCH   1   8
BRANCH   1  21
ATOM     21  C   UNL     1       2.009  -0.951   1.573  0.00  0.00    +0.241 C 
ATOM     22  O   UNL     1       2.853  -0.408   0.891  0.00  0.00    -0.273 OA
ATOM     23  N   UNL     1       2.369  -1.618   2.687  0.00  0.00    -0.311 N 
ATOM     24  H   UNL     1       1.694  -2.052   3.232  0.00  0.00    +0.149 HD
BRANCH  23  25
ATOM     25  C   UNL     1       3.780  -1.689   3.075  0.00  0.00    +0.073 C 
ATOM     26  C   UNL     1       4.454  -2.848   2.339  0.00  0.00    +0.022 C 
ATOM     27  C   UNL     1       5.927  -2.922   2.744  0.00  0.00    +0.002 C 
ATOM     28  C   UNL     1       6.030  -3.147   4.254  0.00  0.00    +0.000 C 
ATOM     29  C   UNL     1       5.356  -1.987   4.990  0.00  0.00    +0.002 C 
ATOM     30  C   UNL     1       3.883  -1.914   4.585  0.00  0.00    +0.022 C 
ENDBRANCH  23  25
ENDBRANCH   1  21
TORSDOF 7
