REMARK  Name = ZINC00845596
REMARK  8 active torsions:
REMARK  status: ('A' for Active; 'I' for Inactive)
REMARK    1  A    between atoms: C_1  and  C_2
REMARK    2  A    between atoms: C_2  and  O_3
REMARK    3  A    between atoms: O_3  and  C_4
REMARK    4  A    between atoms: C_7  and  N_10
REMARK    5  A    between atoms: C_11  and  C_13
REMARK    6  A    between atoms: C_14  and  C_30
REMARK    7  A    between atoms: C_19  and  C_21
REMARK    8  A    between atoms: C_25  and  N_27
REMARK                            x       y       z     vdW  Elec       q    Type
REMARK                         _______ _______ _______ _____ _____    ______ ____
ROOT
ATOM      1  C   UNL     1       2.325   1.107   1.164  0.00  0.00    +0.056 C 
ATOM      2  C   UNL     1       3.195   0.078   1.083  0.00  0.00    +0.017 C 
ATOM      3  N   UNL     1       2.936  -1.003   0.289  0.00  0.00    -0.300 N 
ATOM      4  C   UNL     1       1.829  -1.130  -0.454  0.00  0.00    +0.135 C 
ATOM      5  S   UNL     1       1.628  -2.539  -1.405  0.00  0.00    -0.019 S 
ATOM      6  N   UNL     1       0.868  -0.185  -0.477  0.00  0.00    -0.315 N 
ATOM      7  C   UNL     1       1.052   1.022   0.346  0.00  0.00    +0.139 C 
ATOM      8  C   UNL     1       4.472   0.123   1.880  0.00  0.00    +0.061 C 
ATOM      9  H   UNL     1       3.590  -1.718   0.262  0.00  0.00    +0.154 HD
ATOM     10  H   UNL     1       0.074  -0.298  -1.023  0.00  0.00    +0.149 HD
ENDROOT
BRANCH   7  11
ATOM     11  C   UNL     1      -0.116   1.122   1.292  0.00  0.00    -0.020 A 
ATOM     12  C   UNL     1      -0.519   0.013   2.013  0.00  0.00    +0.006 A 
ATOM     13  C   UNL     1      -1.594   0.103   2.876  0.00  0.00    +0.003 A 
ATOM     14  C   UNL     1      -2.261   1.305   3.027  0.00  0.00    +0.033 A 
ATOM     15  C   UNL     1      -1.858   2.413   2.307  0.00  0.00    +0.127 A 
ATOM     16  C   UNL     1      -0.786   2.322   1.439  0.00  0.00    +0.038 A 
BRANCH  15  17
ATOM     17  N   UNL     1      -2.575   3.699   2.465  0.00  0.00    +0.056 N 
ATOM     18  O   UNL     1      -2.220   4.676   1.830  0.00  0.00    -0.126 OA
ATOM     19  O   UNL     1      -3.519   3.780   3.229  0.00  0.00    -0.126 OA
ENDBRANCH  15  17
ENDBRANCH   7  11
BRANCH   1  21
ATOM     20  N   UNL     1       2.282   2.191   3.298  0.00  0.00    -0.282 N 
ATOM     21  C   UNL     1       2.592   2.228   1.987  0.00  0.00    +0.248 C 
ATOM     22  O   UNL     1       3.102   3.226   1.510  0.00  0.00    -0.270 OA
ATOM     23  H   UNL     1       1.971   1.365   3.700  0.00  0.00    +0.155 HD
BRANCH  20  27
ATOM     24  C   UNL     1       2.661   5.627   5.629  0.00  0.00    +0.121 A 
ATOM     25  C   UNL     1       1.598   4.761   5.839  0.00  0.00    +0.047 A 
ATOM     26  C   UNL     1       1.472   3.622   5.068  0.00  0.00    +0.027 A 
ATOM     27  C   UNL     1       2.409   3.345   4.081  0.00  0.00    +0.034 A 
ATOM     28  C   UNL     1       3.476   4.210   3.875  0.00  0.00    +0.027 A 
ATOM     29  C   UNL     1       3.597   5.351   4.643  0.00  0.00    +0.047 A 
BRANCH  24  30
ATOM     30  O   UNL     1       2.784   6.748   6.389  0.00  0.00    -0.492 OA
BRANCH  30  32
ATOM     31  C   UNL     1       3.874   8.796   7.066  0.00  0.00    +0.048 C 
ATOM     32  C   UNL     1       3.903   7.596   6.118  0.00  0.00    +0.225 C 
ENDBRANCH  30  32
ENDBRANCH  24  30
ENDBRANCH  20  27
ENDBRANCH   1  21
TORSDOF 6
