REMARK  Name = ZINC39637436
REMARK  5 active torsions:
REMARK  status: ('A' for Active; 'I' for Inactive)
REMARK    1  A    between atoms: C_1  and  C_2
REMARK    2  A    between atoms: C_7  and  N_12
REMARK    3  A    between atoms: C_9  and  C_11
REMARK    4  A    between atoms: C_13  and  C_15
REMARK    5  A    between atoms: C_26  and  C_28
REMARK                            x       y       z     vdW  Elec       q    Type
REMARK                         _______ _______ _______ _____ _____    ______ ____
ROOT
ATOM      1  C   UNL     1       1.936  -4.254   4.128  0.00  0.00    +0.100 C 
ATOM      2  C   UNL     1       3.430  -4.481   3.807  0.00  0.00    +0.121 C 
ATOM      3  N   UNL     1       3.796  -5.698   4.571  0.00  0.00    -0.297 N 
ATOM      4  C   UNL     1       2.616  -6.585   4.437  0.00  0.00    +0.115 C 
ATOM      5  C   UNL     1       1.405  -5.637   4.541  0.00  0.00    -0.004 C 
ATOM      6  C   UNL     1       0.301  -6.085   3.587  0.00  0.00    -0.010 C 
ATOM      7  C   UNL     1      -0.251  -7.436   4.051  0.00  0.00    -0.082 C 
ATOM      8  N   UNL     1      -0.777  -7.309   5.416  0.00  0.00    +0.379 N 
ATOM      9  C   UNL     1       0.310  -6.968   6.342  0.00  0.00    -0.082 C 
ATOM     10  C   UNL     1       0.885  -5.598   5.975  0.00  0.00    -0.010 C 
ATOM     11  C   UNL     1       4.942  -5.941   5.237  0.00  0.00    +0.260 C 
ATOM     12  O   UNL     1       5.093  -6.995   5.818  0.00  0.00    -0.271 OA
ATOM     13  H   UNL     1      -1.477  -6.582   5.439  0.00  0.00    -0.086 HD
ATOM     14  H   UNL     1      -1.195  -8.183   5.697  0.00  0.00    -0.086 HD
ENDROOT
BRANCH  11  15
ATOM     15  C   UNL     1       6.036  -4.905   5.258  0.00  0.00    +0.296 C 
ATOM     16  C   UNL     1       6.595  -4.713   3.842  0.00  0.00    +0.283 C 
ATOM     17  O   UNL     1       7.639  -3.735   3.901  0.00  0.00    -0.484 OA
ATOM     18  C   UNL     1       8.552  -3.875   4.901  0.00  0.00    +0.162 A 
ATOM     19  C   UNL     1       9.765  -3.208   4.813  0.00  0.00    +0.049 A 
ATOM     20  C   UNL     1      10.701  -3.338   5.821  0.00  0.00    +0.004 A 
ATOM     21  C   UNL     1      10.431  -4.132   6.920  0.00  0.00    +0.004 A 
ATOM     22  C   UNL     1       9.225  -4.800   7.013  0.00  0.00    +0.049 A 
ATOM     23  C   UNL     1       8.282  -4.676   6.004  0.00  0.00    +0.163 A 
ATOM     24  O   UNL     1       7.101  -5.346   6.106  0.00  0.00    -0.473 OA
ENDBRANCH  11  15
BRANCH   1  26
ATOM     25  N   UNL     1       0.128  -2.959   3.045  0.00  0.00    -0.312 N 
ATOM     26  C   UNL     1       1.207  -3.754   2.907  0.00  0.00    +0.218 C 
ATOM     27  O   UNL     1       1.591  -4.068   1.801  0.00  0.00    -0.275 OA
ATOM     28  H   UNL     1      -0.180  -2.708   3.930  0.00  0.00    +0.149 HD
BRANCH  25  34
ATOM     29  C   UNL     1      -4.223  -1.330   1.353  0.00  0.00    +0.008 C 
ATOM     30  C   UNL     1      -2.772  -1.648   0.986  0.00  0.00    -0.009 C 
ATOM     31  C   UNL     1      -2.088  -0.383   0.465  0.00  0.00    +0.003 C 
ATOM     32  C   UNL     1      -0.637  -0.701   0.099  0.00  0.00    +0.002 C 
ATOM     33  C   UNL     1       0.103  -1.208   1.338  0.00  0.00    +0.022 C 
ATOM     34  C   UNL     1      -0.581  -2.474   1.858  0.00  0.00    +0.076 C 
ATOM     35  C   UNL     1      -2.032  -2.155   2.225  0.00  0.00    +0.009 C 
ATOM     36  C   UNL     1      -2.716  -3.421   2.745  0.00  0.00    +0.009 C 
ENDBRANCH  25  34
ENDBRANCH   1  26
TORSDOF 3
