REMARK  Name = ZINC44919181
REMARK  7 active torsions:
REMARK  status: ('A' for Active; 'I' for Inactive)
REMARK    1  A    between atoms: C_1  and  C_2
REMARK    2  A    between atoms: C_5  and  N_16
REMARK    3  A    between atoms: C_7  and  S_8
REMARK    4  A    between atoms: S_8  and  N_11
REMARK    5  A    between atoms: C_17  and  C_19
REMARK    6  A    between atoms: N_24  and  C_26
REMARK    7  A    between atoms: C_26  and  C_27
REMARK                            x       y       z     vdW  Elec       q    Type
REMARK                         _______ _______ _______ _____ _____    ______ ____
ROOT
ATOM      1  N   UNL     1       0.748  -4.718   0.646  0.00  0.00    -0.285 N 
ATOM      2  C   UNL     1       0.880  -5.591  -0.372  0.00  0.00    +0.219 C 
ATOM      3  O   UNL     1       0.923  -5.188  -1.515  0.00  0.00    -0.275 OA
ATOM      4  H   UNL     1       0.800  -5.031   1.563  0.00  0.00    +0.155 HD
ENDROOT
BRANCH   1   9
ATOM      5  C   UNL     1      -0.110   0.786  -0.429  0.00  0.00    +0.046 C 
ATOM      6  C   UNL     1       0.118  -0.676  -0.143  0.00  0.00    -0.024 A 
ATOM      7  C   UNL     1      -0.367  -1.633  -1.016  0.00  0.00    +0.007 A 
ATOM      8  C   UNL     1      -0.160  -2.974  -0.757  0.00  0.00    +0.023 A 
ATOM      9  C   UNL     1       0.537  -3.360   0.381  0.00  0.00    +0.035 A 
ATOM     10  C   UNL     1       1.023  -2.397   1.254  0.00  0.00    +0.052 A 
ATOM     11  C   UNL     1       0.817  -1.057   0.987  0.00  0.00    +0.110 A 
BRANCH  11  12
ATOM     12  S   UNL     1       1.440   0.166   2.091  0.00  0.00    +0.061 S 
ATOM     13  O   UNL     1       0.359   1.044   2.376  0.00  0.00    -0.153 OA
ATOM     14  O   UNL     1       2.147  -0.528   3.110  0.00  0.00    -0.153 OA
BRANCH  12  15
ATOM     15  N   UNL     1       2.562   1.054   1.257  0.00  0.00    -0.177 NA
ATOM     16  C   UNL     1       3.966   0.676   1.043  0.00  0.00    +0.109 C 
ATOM     17  C   UNL     1       4.630   1.813   0.238  0.00  0.00    +0.018 C 
ATOM     18  C   UNL     1       3.709   3.028   0.530  0.00  0.00    +0.018 C 
ATOM     19  C   UNL     1       2.316   2.350   0.599  0.00  0.00    +0.109 C 
ENDBRANCH  12  15
ENDBRANCH  11  12
ENDBRANCH   1   9
BRANCH   2  20
ATOM     20  C   UNL     1       0.974  -7.069  -0.090  0.00  0.00    +0.059 C 
ATOM     21  C   UNL     1      -0.294  -7.534   0.631  0.00  0.00    +0.009 C 
ATOM     22  C   UNL     1      -0.223  -9.049   0.843  0.00  0.00    -0.018 C 
ATOM     23  C   UNL     1      -0.039  -9.739  -0.511  0.00  0.00    -0.078 C 
ATOM     24  N   UNL     1       1.203  -9.272  -1.137  0.00  0.00    +0.383 N 
ATOM     25  C   UNL     1       1.115  -7.832  -1.409  0.00  0.00    -0.066 C 
ATOM     26  H   UNL     1       1.979  -9.449  -0.517  0.00  0.00    -0.081 HD
BRANCH  24  27
ATOM     27  C   UNL     1       1.415  -9.994  -2.399  0.00  0.00    -0.043 C 
BRANCH  27  28
ATOM     28  C   UNL     1       1.639 -11.456  -2.109  0.00  0.00    -0.064 A 
ATOM     29  C   UNL     1       2.919 -11.928  -1.886  0.00  0.00    +0.003 A 
ATOM     30  C   UNL     1       3.124 -13.269  -1.620  0.00  0.00    +0.015 A 
ATOM     31  C   UNL     1       2.049 -14.138  -1.577  0.00  0.00    +0.018 A 
ATOM     32  C   UNL     1       0.768 -13.665  -1.800  0.00  0.00    +0.015 A 
ATOM     33  C   UNL     1       0.563 -12.324  -2.061  0.00  0.00    +0.003 A 
ATOM     34 BR   UNL     1       2.330 -15.973  -1.213  0.00  0.00    -0.050 Br
ENDBRANCH  27  28
ENDBRANCH  24  27
ENDBRANCH   2  20
TORSDOF 6
