REMARK  Name = ZINC14720019
REMARK  15 active torsions:
REMARK  status: ('A' for Active; 'I' for Inactive)
REMARK    1  A    between atoms: C_1  and  C_2
REMARK    2  A    between atoms: C_2  and  C_3
REMARK    3  A    between atoms: C_3  and  C_4
REMARK    4  A    between atoms: C_4  and  N_5
REMARK    5  A    between atoms: N_5  and  C_6
REMARK    6  A    between atoms: C_7  and  N_19
REMARK    7  A    between atoms: N_8  and  C_15
REMARK    8  A    between atoms: C_15  and  C_16
REMARK    9  A    between atoms: C_16  and  C_17
REMARK   10  A    between atoms: C_16  and  C_18
REMARK   11  A    between atoms: C_20  and  C_22
REMARK   12  A    between atoms: C_23  and  C_34
REMARK   13  A    between atoms: C_26  and  O_31
REMARK   14  A    between atoms: O_31  and  C_32
REMARK   15  A    between atoms: C_32  and  C_33
REMARK                            x       y       z     vdW  Elec       q    Type
REMARK                         _______ _______ _______ _____ _____    ______ ____
ROOT
ATOM      1  N   UNL     1      -2.602  -2.354  -0.126  0.00  0.00    -0.258 N 
ATOM      2  C   UNL     1      -3.101  -2.517   1.116  0.00  0.00    +0.287 C 
ATOM      3  O   UNL     1      -4.220  -2.972   1.267  0.00  0.00    -0.266 OA
ENDROOT
BRANCH   2   4
ATOM      4  C   UNL     1      -2.295  -2.146   2.287  0.00  0.00    +0.194 A 
ATOM      5  C   UNL     1      -2.645  -2.369   3.580  0.00  0.00    +0.008 A 
ATOM      6  C   UNL     1      -1.551  -1.840   4.394  0.00  0.00    +0.027 A 
ATOM      7  C   UNL     1      -1.310  -1.765   5.768  0.00  0.00    +0.057 A 
ATOM      8  C   UNL     1      -0.142  -1.185   6.223  0.00  0.00    +0.121 A 
ATOM      9  C   UNL     1       0.788  -0.680   5.318  0.00  0.00    +0.049 A 
ATOM     10  C   UNL     1       0.559  -0.750   3.962  0.00  0.00    +0.050 A 
ATOM     11  C   UNL     1      -0.610  -1.329   3.482  0.00  0.00    +0.136 A 
ATOM     12  O   UNL     1      -1.091  -1.538   2.240  0.00  0.00    -0.450 OA
ATOM     13  C   UNL     1      -3.906  -3.029   4.076  0.00  0.00    +0.048 C 
BRANCH   8  14
ATOM     14  O   UNL     1       0.100  -1.107   7.559  0.00  0.00    -0.492 OA
BRANCH  14  15
ATOM     15  C   UNL     1       1.327  -0.496   7.961  0.00  0.00    +0.225 C 
ATOM     16  C   UNL     1       1.422  -0.499   9.488  0.00  0.00    +0.048 C 
ENDBRANCH  14  15
ENDBRANCH   8  14
ENDBRANCH   2   4
BRANCH   1  17
ATOM     17  C   UNL     1      -3.414  -2.606  -1.251  0.00  0.00    +0.140 A 
ATOM     18  C   UNL     1      -3.098  -3.620  -2.131  0.00  0.00    +0.127 A 
ATOM     19  N   UNL     1      -3.909  -3.842  -3.220  0.00  0.00    -0.280 N 
ATOM     20  C   UNL     1      -4.998  -3.078  -3.424  0.00  0.00    +0.331 A 
ATOM     21  O   UNL     1      -5.702  -3.290  -4.392  0.00  0.00    -0.246 OA
ATOM     22  N   UNL     1      -5.322  -2.086  -2.576  0.00  0.00    -0.273 N 
ATOM     23  H   UNL     1      -6.113  -1.550  -2.745  0.00  0.00    +0.173 HD
ATOM     24  C   UNL     1      -4.564  -1.831  -1.492  0.00  0.00    +0.277 A 
ATOM     25  O   UNL     1      -4.870  -0.931  -0.727  0.00  0.00    -0.266 OA
BRANCH  18  26
ATOM     26  N   UNL     1      -1.985  -4.400  -1.924  0.00  0.00    -0.343 N 
ATOM     27  H   UNL     1      -1.435  -4.260  -1.137  0.00  0.00    +0.144 HD
ATOM     28  H   UNL     1      -1.750  -5.089  -2.564  0.00  0.00    +0.144 HD
ENDBRANCH  18  26
BRANCH  19  29
ATOM     29  C   UNL     1      -3.585  -4.915  -4.163  0.00  0.00    +0.131 C 
BRANCH  29  30
ATOM     30  C   UNL     1      -4.264  -6.210  -3.714  0.00  0.00    +0.003 C 
ATOM     31  C   UNL     1      -4.029  -7.299  -4.763  0.00  0.00    +0.009 C 
ATOM     32  C   UNL     1      -3.674  -6.657  -2.375  0.00  0.00    +0.009 C 
ENDBRANCH  29  30
ENDBRANCH  19  29
ENDBRANCH   1  17
BRANCH   1  33
ATOM     33  C   UNL     1      -1.216  -1.914  -0.306  0.00  0.00    +0.114 C 
BRANCH  33  34
ATOM     34  C   UNL     1      -1.156  -0.386  -0.264  0.00  0.00    +0.019 C 
BRANCH  34  36
ATOM     35  C   UNL     1       0.351   1.601  -0.410  0.00  0.00    +0.004 C 
ATOM     36  C   UNL     1       0.291   0.073  -0.452  0.00  0.00    -0.002 C 
ENDBRANCH  34  36
ENDBRANCH  33  34
ENDBRANCH   1  33
TORSDOF 10
