REMARK  Name = ZINC20152450
REMARK  9 active torsions:
REMARK  status: ('A' for Active; 'I' for Inactive)
REMARK    1  A    between atoms: C_1  and  C_2
REMARK    2  A    between atoms: C_4  and  N_15
REMARK    3  A    between atoms: C_7  and  C_8
REMARK    4  A    between atoms: C_11  and  C_13
REMARK    5  A    between atoms: C_13  and  O_14
REMARK    6  A    between atoms: N_15  and  C_16
REMARK    7  A    between atoms: C_16  and  N_18
REMARK    8  A    between atoms: C_19  and  C_21
REMARK    9  A    between atoms: C_24  and  C_26
REMARK                            x       y       z     vdW  Elec       q    Type
REMARK                         _______ _______ _______ _____ _____    ______ ____
ROOT
ATOM      1  C   UNL     1       0.148  -4.110  -2.432  0.00  0.00    +0.141 C 
ATOM      2  S   UNL     1       0.167  -4.981  -0.959  0.00  0.00    -0.018 S 
ENDROOT
BRANCH   1   3
ATOM      3  N   UNL     1       0.252  -4.766  -3.605  0.00  0.00    -0.261 N 
ATOM      4  C   UNL     1       0.372  -6.108  -3.618  0.00  0.00    +0.285 C 
ATOM      5  O   UNL     1       0.386  -6.728  -2.570  0.00  0.00    -0.266 OA
ATOM      6  H   UNL     1       0.241  -4.272  -4.440  0.00  0.00    +0.157 HD
BRANCH   4   7
ATOM      7  C   UNL     1       0.486  -6.821  -4.891  0.00  0.00    +0.190 A 
ATOM      8  C   UNL     1       0.608  -8.185  -5.047  0.00  0.00    +0.055 A 
ATOM      9  C   UNL     1       0.686  -8.428  -6.422  0.00  0.00    +0.050 A 
ATOM     10  C   UNL     1       0.610  -7.217  -7.049  0.00  0.00    +0.136 A 
ATOM     11  O   UNL     1       0.484  -6.257  -6.118  0.00  0.00    -0.450 OA
BRANCH  10  12
ATOM     12  C   UNL     1       0.652  -7.000  -8.509  0.00  0.00    +0.017 A 
ATOM     13  C   UNL     1       0.775  -8.088  -9.377  0.00  0.00    +0.013 A 
ATOM     14  C   UNL     1       0.814  -7.878 -10.739  0.00  0.00    +0.021 A 
ATOM     15  C   UNL     1       0.733  -6.592 -11.248  0.00  0.00    +0.041 A 
ATOM     16  C   UNL     1       0.612  -5.509 -10.392  0.00  0.00    +0.021 A 
ATOM     17  C   UNL     1       0.565  -5.706  -9.028  0.00  0.00    +0.013 A 
ATOM     18 CL   UNL     1       0.784  -6.337 -12.964  0.00  0.00    -0.084 Cl
ENDBRANCH  10  12
ENDBRANCH   4   7
ENDBRANCH   1   3
BRANCH   1  19
ATOM     19  N   UNL     1       0.028  -2.767  -2.419  0.00  0.00    -0.297 N 
ATOM     20  H   UNL     1      -0.045  -2.279  -3.254  0.00  0.00    +0.154 HD
BRANCH  19  24
ATOM     21  C   UNL     1       1.590   0.996   0.326  0.00  0.00    +0.044 C 
ATOM     22  C   UNL     1       0.758  -0.249   0.154  0.00  0.00    -0.038 A 
ATOM     23  C   UNL     1       0.775  -0.930  -1.044  0.00  0.00    +0.027 A 
ATOM     24  C   UNL     1       0.008  -2.079  -1.203  0.00  0.00    +0.033 A 
ATOM     25  C   UNL     1      -0.778  -2.544  -0.155  0.00  0.00    +0.024 A 
ATOM     26  C   UNL     1      -0.800  -1.868   1.045  0.00  0.00    +0.013 A 
ATOM     27  C   UNL     1      -0.027  -0.717   1.210  0.00  0.00    +0.020 A 
BRANCH  27  28
ATOM     28  C   UNL     1      -0.043   0.008   2.498  0.00  0.00    +0.136 A 
ATOM     29  C   UNL     1      -1.153   0.389   3.185  0.00  0.00    +0.050 A 
ATOM     30  C   UNL     1      -0.704   1.046   4.349  0.00  0.00    +0.047 A 
ATOM     31  C   UNL     1       0.643   1.033   4.315  0.00  0.00    +0.131 A 
ATOM     32  O   UNL     1       1.039   0.401   3.198  0.00  0.00    -0.457 OA
BRANCH  31  33
ATOM     33  C   UNL     1       1.553   1.625   5.359  0.00  0.00    +0.230 C 
BRANCH  33  34
ATOM     34  O   UNL     1       1.847   0.638   6.350  0.00  0.00    -0.387 OA
ATOM     35  H   UNL     1       2.430   0.950   7.055  0.00  0.00    +0.210 HD
ENDBRANCH  33  34
ENDBRANCH  31  33
ENDBRANCH  27  28
ENDBRANCH  19  24
ENDBRANCH   1  19
TORSDOF 8
