REMARK  Name = ZINC13502677
REMARK  9 active torsions:
REMARK  status: ('A' for Active; 'I' for Inactive)
REMARK    1  A    between atoms: C_1  and  C_2
REMARK    2  A    between atoms: C_5  and  S_8
REMARK    3  A    between atoms: S_8  and  N_11
REMARK    4  A    between atoms: N_11  and  C_12
REMARK    5  A    between atoms: C_12  and  C_13
REMARK    6  A    between atoms: C_13  and  N_14
REMARK    7  A    between atoms: C_17  and  C_31
REMARK    8  A    between atoms: C_18  and  C_30
REMARK    9  A    between atoms: C_22  and  C_24
REMARK                            x       y       z     vdW  Elec       q    Type
REMARK                         _______ _______ _______ _____ _____    ______ ____
ROOT
ATOM      1  N   UNL     1       3.881  -3.542  -4.358  0.00  0.00    -0.327 N 
ATOM      2  C   UNL     1       3.986  -4.157  -5.592  0.00  0.00    +0.131 A 
ATOM      3  C   UNL     1       4.810  -3.598  -6.607  0.00  0.00    +0.051 A 
ATOM      4  C   UNL     1       5.629  -2.398  -6.583  0.00  0.00    -0.028 A 
ATOM      5  C   UNL     1       6.331  -2.063  -7.676  0.00  0.00    -0.008 A 
ATOM      6  S   UNL     1       5.937  -3.356  -8.838  0.00  0.00    -0.074 S 
ATOM      7  C   UNL     1       4.840  -4.313  -7.825  0.00  0.00    +0.114 A 
ATOM      8  N   UNL     1       4.144  -5.421  -7.989  0.00  0.00    -0.224 NA
ATOM      9  C   UNL     1       3.397  -5.890  -7.008  0.00  0.00    +0.135 A 
ATOM     10  N   UNL     1       3.326  -5.277  -5.841  0.00  0.00    -0.217 NA
ATOM     11  C   UNL     1       7.237  -0.875  -7.874  0.00  0.00    +0.052 C 
ATOM     12  C   UNL     1       5.689  -1.541  -5.346  0.00  0.00    +0.045 C 
ATOM     13  H   UNL     1       4.434  -2.772  -4.151  0.00  0.00    +0.148 HD
ENDROOT
BRANCH   9  14
ATOM     14  C   UNL     1       2.612  -7.159  -7.223  0.00  0.00    +0.057 C 
ATOM     15  C   UNL     1       3.573  -8.304  -7.551  0.00  0.00    +0.011 C 
ATOM     16  C   UNL     1       2.776  -9.591  -7.769  0.00  0.00    +0.001 C 
ATOM     17  C   UNL     1       1.799  -9.397  -8.931  0.00  0.00    +0.000 C 
ATOM     18  C   UNL     1       0.839  -8.252  -8.603  0.00  0.00    +0.001 C 
ATOM     19  C   UNL     1       1.636  -6.964  -8.385  0.00  0.00    +0.011 C 
ENDBRANCH   9  14
BRANCH   1  20
ATOM     20  C   UNL     1       2.933  -4.051  -3.364  0.00  0.00    +0.120 C 
BRANCH  20  21
ATOM     21  C   UNL     1       3.014  -3.198  -2.097  0.00  0.00    +0.124 C 
BRANCH  21  22
ATOM     22  N   UNL     1       2.067  -3.708  -1.102  0.00  0.00    -0.188 NA
ATOM     23  H   UNL     1       1.368  -4.325  -1.370  0.00  0.00    +0.148 HD
BRANCH  22  24
ATOM     24  S   UNL     1       2.189  -3.231   0.479  0.00  0.00    +0.058 S 
ATOM     25  O   UNL     1       3.551  -3.395   0.849  0.00  0.00    -0.153 OA
ATOM     26  O   UNL     1       1.128  -3.866   1.178  0.00  0.00    -0.153 OA
BRANCH  24  31
ATOM     27  C   UNL     1       1.061   2.694   0.649  0.00  0.00    +0.044 C 
ATOM     28  C   UNL     1       1.342   1.214   0.607  0.00  0.00    -0.050 A 
ATOM     29  C   UNL     1       0.307   0.309   0.745  0.00  0.00    +0.005 A 
ATOM     30  C   UNL     1       0.565  -1.048   0.705  0.00  0.00    +0.029 A 
ATOM     31  C   UNL     1       1.859  -1.500   0.528  0.00  0.00    +0.105 A 
ATOM     32  C   UNL     1       2.895  -0.595   0.389  0.00  0.00    +0.029 A 
ATOM     33  C   UNL     1       2.636   0.762   0.428  0.00  0.00    +0.005 A 
ENDBRANCH  24  31
ENDBRANCH  22  24
ENDBRANCH  21  22
ENDBRANCH  20  21
ENDBRANCH   1  20
TORSDOF 6
