REMARK  Name = ZINC20573400
REMARK  10 active torsions:
REMARK  status: ('A' for Active; 'I' for Inactive)
REMARK    1  A    between atoms: C_1  and  C_2
REMARK    2  A    between atoms: C_2  and  C_4
REMARK    3  A    between atoms: C_2  and  N_21
REMARK    4  A    between atoms: C_22  and  C_24
REMARK    5  A    between atoms: C_26  and  O_34
REMARK    6  A    between atoms: C_27  and  O_32
REMARK    7  A    between atoms: C_28  and  O_30
REMARK    8  A    between atoms: O_30  and  C_31
REMARK    9  A    between atoms: O_32  and  C_33
REMARK   10  A    between atoms: O_34  and  C_35
REMARK                            x       y       z     vdW  Elec       q    Type
REMARK                         _______ _______ _______ _____ _____    ______ ____
ROOT
ATOM      1  C   UNL     1       0.597  -0.491  -1.294  0.00  0.00    +0.236 C 
ATOM      2  O   UNL     1       1.726  -0.933  -1.315  0.00  0.00    -0.274 OA
ATOM      3  N   UNL     1      -0.125  -0.435  -2.430  0.00  0.00    -0.300 N 
ATOM      4  C   UNL     1      -1.449   0.204  -2.445  0.00  0.00    +0.110 C 
ATOM      5  C   UNL     1      -2.466  -0.785  -3.022  0.00  0.00    +0.047 C 
ATOM      6  C   UNL     1      -1.984  -1.269  -4.390  0.00  0.00    +0.064 C 
ATOM      7  C   UNL     1      -0.642  -1.986  -4.242  0.00  0.00    +0.047 C 
ATOM      8  C   UNL     1       0.398  -1.005  -3.679  0.00  0.00    +0.110 C 
ATOM      9  C   UNL     1      -3.000  -2.206  -4.985  0.00  0.00    +0.057 A 
ATOM     10  C   UNL     1      -3.860  -1.854  -5.968  0.00  0.00    +0.039 A 
ATOM     11  N   UNL     1      -4.613  -2.916  -6.258  0.00  0.00    -0.349 N 
ATOM     12  C   UNL     1      -4.257  -3.915  -5.492  0.00  0.00    +0.171 A 
ATOM     13  N   UNL     1      -3.251  -3.507  -4.683  0.00  0.00    -0.348 N 
ATOM     14  H   UNL     1      -2.796  -4.043  -4.014  0.00  0.00    +0.166 HD
ATOM     15  C   UNL     1      -3.895  -0.473  -6.575  0.00  0.00    +0.070 C 
ATOM     16  C   UNL     1      -3.131   0.473  -5.638  0.00  0.00    +0.088 C 
ATOM     17  N   UNL     1      -1.830  -0.116  -5.292  0.00  0.00    -0.305 NA
ATOM     18  H   UNL     1      -1.214   0.577  -4.892  0.00  0.00    +0.123 HD
ATOM     19  H   UNL     1      -5.313  -2.943  -6.929  0.00  0.00    +0.166 HD
ENDROOT
BRANCH   1  21
ATOM     20  C   UNL     1       0.163   1.513   0.100  0.00  0.00    +0.038 C 
ATOM     21  C   UNL     1       0.002  -0.005   0.002  0.00  0.00    +0.156 C 
BRANCH  21  22
ATOM     22  N   UNL     1       0.692  -0.644   1.126  0.00  0.00    -0.300 N 
ATOM     23  C   UNL     1       0.064  -0.783   2.311  0.00  0.00    +0.245 C 
ATOM     24  O   UNL     1      -1.075  -0.380   2.447  0.00  0.00    -0.270 OA
ATOM     25  H   UNL     1       1.600  -0.966   1.018  0.00  0.00    +0.150 HD
BRANCH  23  26
ATOM     26  C   UNL     1       0.760  -1.426   3.443  0.00  0.00    +0.044 A 
ATOM     27  C   UNL     1       2.070  -1.885   3.290  0.00  0.00    +0.062 A 
ATOM     28  C   UNL     1       2.719  -2.486   4.352  0.00  0.00    +0.166 A 
ATOM     29  C   UNL     1       2.068  -2.635   5.573  0.00  0.00    +0.204 A 
ATOM     30  C   UNL     1       0.762  -2.179   5.729  0.00  0.00    +0.166 A 
ATOM     31  C   UNL     1       0.110  -1.571   4.671  0.00  0.00    +0.062 A 
BRANCH  30  32
ATOM     32  O   UNL     1       0.128  -2.326   6.923  0.00  0.00    -0.491 OA
ATOM     33  C   UNL     1      -1.211  -1.835   7.012  0.00  0.00    +0.277 C 
ENDBRANCH  30  32
BRANCH  29  34
ATOM     34  O   UNL     1       2.708  -3.227   6.616  0.00  0.00    -0.488 OA
ATOM     35  C   UNL     1       3.455  -2.375   7.487  0.00  0.00    +0.277 C 
ENDBRANCH  29  34
BRANCH  28  36
ATOM     36  O   UNL     1       3.995  -2.933   4.203  0.00  0.00    -0.491 OA
ATOM     37  C   UNL     1       4.602  -2.748   2.923  0.00  0.00    +0.277 C 
ENDBRANCH  28  36
ENDBRANCH  23  26
ENDBRANCH  21  22
ENDBRANCH   1  21
TORSDOF 6
