REMARK  Name = ZINC12767913
REMARK  6 active torsions:
REMARK  status: ('A' for Active; 'I' for Inactive)
REMARK    1  A    between atoms: C_1  and  N_2
REMARK    2  A    between atoms: N_2  and  C_3
REMARK    3  A    between atoms: C_3  and  C_4
REMARK    4  A    between atoms: N_6  and  C_7
REMARK    5  A    between atoms: C_15  and  C_17
REMARK    6  A    between atoms: C_17  and  C_18
REMARK                            x       y       z     vdW  Elec       q    Type
REMARK                         _______ _______ _______ _____ _____    ______ ____
ROOT
ATOM      1  C   UNL     1      -2.137   6.198   1.671  0.00  0.00    +0.132 C 
ATOM      2  N   UNL     1      -2.323   5.580   0.356  0.00  0.00    -0.296 N 
ATOM      3  C   UNL     1      -2.267   6.336  -0.758  0.00  0.00    +0.218 C 
ATOM      4  O   UNL     1      -2.421   5.824  -1.847  0.00  0.00    -0.276 OA
ENDROOT
BRANCH   2   5
ATOM      5  C   UNL     1      -2.570   4.139   0.252  0.00  0.00    +0.203 C 
BRANCH   5   6
ATOM      6  C   UNL     1      -1.256   3.412   0.128  0.00  0.00    +0.235 C 
ATOM      7  O   UNL     1      -0.216   4.035   0.127  0.00  0.00    -0.274 OA
ATOM      8  N   UNL     1      -1.238   2.068   0.019  0.00  0.00    -0.284 N 
ATOM      9  H   UNL     1      -2.070   1.576  -0.057  0.00  0.00    +0.155 HD
BRANCH   8  10
ATOM     10  C   UNL     1      -0.017   1.384   0.015  0.00  0.00    +0.035 A 
ATOM     11  C   UNL     1       0.127   0.222  -0.732  0.00  0.00    +0.025 A 
ATOM     12  C   UNL     1       1.330  -0.455  -0.730  0.00  0.00    +0.023 A 
ATOM     13  C   UNL     1       2.393   0.022   0.016  0.00  0.00    +0.059 A 
ATOM     14  C   UNL     1       2.253   1.180   0.762  0.00  0.00    +0.061 A 
ATOM     15  C   UNL     1       1.050   1.861   0.763  0.00  0.00    +0.044 A 
ATOM     16 CL   UNL     1       3.589   1.776   1.698  0.00  0.00    -0.082 Cl
ATOM     17 CL   UNL     1       3.905  -0.831   0.015  0.00  0.00    -0.082 Cl
ENDBRANCH   8  10
ENDBRANCH   5   6
ENDBRANCH   2   5
BRANCH   3  18
ATOM     18  C   UNL     1      -2.013   7.817  -0.652  0.00  0.00    +0.127 C 
BRANCH  18  19
ATOM     19  C   UNL     1      -1.998   8.434  -2.052  0.00  0.00    +0.169 C 
ATOM     20  C   UNL     1      -1.674   9.913  -1.979  0.00  0.00    +0.241 C 
ATOM     21  O   UNL     1      -0.657  10.420  -1.555  0.00  0.00    -0.273 OA
ATOM     22  N   UNL     1      -2.750  10.547  -2.485  0.00  0.00    -0.239 N 
ATOM     23  C   UNL     1      -3.699   9.683  -2.864  0.00  0.00    +0.307 C 
ATOM     24  O   UNL     1      -4.762  10.017  -3.349  0.00  0.00    -0.252 OA
ATOM     25  N   UNL     1      -3.344   8.400  -2.648  0.00  0.00    -0.287 N 
ATOM     26  H   UNL     1      -2.827  11.511  -2.565  0.00  0.00    +0.159 HD
ATOM     27  H   UNL     1      -3.871   7.610  -2.845  0.00  0.00    +0.151 HD
ENDBRANCH  18  19
ENDBRANCH   3  18
TORSDOF 5
