REMARK  Name = ZINC01088124
REMARK  8 active torsions:
REMARK  status: ('A' for Active; 'I' for Inactive)
REMARK    1  A    between atoms: C_1  and  C_2
REMARK    2  A    between atoms: C_3  and  C_31
REMARK    3  A    between atoms: C_6  and  N_7
REMARK    4  A    between atoms: N_7  and  S_8
REMARK    5  A    between atoms: S_8  and  C_11
REMARK    6  A    between atoms: C_14  and  N_17
REMARK    7  A    between atoms: C_18  and  C_20
REMARK    8  A    between atoms: C_23  and  C_25
REMARK                            x       y       z     vdW  Elec       q    Type
REMARK                         _______ _______ _______ _____ _____    ______ ____
ROOT
ATOM      1  C   UNL     1       3.608   3.232   1.518  0.00  0.00    +0.109 A 
ATOM      2  C   UNL     1       2.530   4.096   1.578  0.00  0.00    +0.030 A 
ATOM      3  C   UNL     1       2.181   4.685   2.778  0.00  0.00    +0.025 A 
ATOM      4  C   UNL     1       2.921   4.417   3.922  0.00  0.00    +0.034 A 
ATOM      5  C   UNL     1       4.006   3.553   3.857  0.00  0.00    +0.025 A 
ATOM      6  C   UNL     1       4.346   2.963   2.656  0.00  0.00    +0.030 A 
ENDROOT
BRANCH   4   7
ATOM      7  N   UNL     1       2.573   5.016   5.138  0.00  0.00    -0.285 N 
ATOM      8  C   UNL     1       3.532   5.339   6.028  0.00  0.00    +0.221 C 
ATOM      9  O   UNL     1       4.701   5.199   5.737  0.00  0.00    -0.275 OA
ATOM     10  H   UNL     1       1.642   5.199   5.340  0.00  0.00    +0.155 HD
BRANCH   8  11
ATOM     11  C   UNL     1       3.152   5.875   7.384  0.00  0.00    +0.083 C 
ATOM     12  C   UNL     1       3.479   7.339   7.683  0.00  0.00    +0.022 C 
ATOM     13  C   UNL     1       4.286   6.223   8.350  0.00  0.00    +0.032 C 
BRANCH  13  14
ATOM     14  C   UNL     1       4.051   5.976   9.818  0.00  0.00    -0.044 A 
ATOM     15  C   UNL     1       3.018   6.620  10.471  0.00  0.00    +0.004 A 
ATOM     16  C   UNL     1       2.800   6.390  11.816  0.00  0.00    +0.000 A 
ATOM     17  C   UNL     1       3.621   5.522  12.511  0.00  0.00    +0.000 A 
ATOM     18  C   UNL     1       4.657   4.881  11.859  0.00  0.00    +0.000 A 
ATOM     19  C   UNL     1       4.873   5.108  10.512  0.00  0.00    +0.004 A 
ENDBRANCH  13  14
ENDBRANCH   8  11
ENDBRANCH   4   7
BRANCH   1  20
ATOM     20  S   UNL     1       4.046   2.478  -0.013  0.00  0.00    +0.075 S 
ATOM     21  O   UNL     1       5.424   2.143   0.079  0.00  0.00    -0.150 OA
ATOM     22  O   UNL     1       3.532   3.316  -1.040  0.00  0.00    -0.150 OA
BRANCH  20  23
ATOM     23  N   UNL     1       3.216   1.048  -0.110  0.00  0.00    -0.183 N 
ATOM     24  H   UNL     1       3.699   0.207  -0.113  0.00  0.00    +0.177 HD
BRANCH  23  30
ATOM     25  C   UNL     1       1.403  -1.492  -0.300  0.00  0.00    +0.051 C 
ATOM     26  C   UNL     1       1.014  -0.036  -0.271  0.00  0.00    +0.035 A 
ATOM     27  C   UNL     1      -0.279   0.519  -0.324  0.00  0.00    +0.085 A 
ATOM     28  N   UNL     1      -0.131   1.813  -0.270  0.00  0.00    -0.081 NA
ATOM     29  O   UNL     1       1.033   2.130  -0.194  0.00  0.00    -0.338 OA
ATOM     30  C   UNL     1       1.836   1.054  -0.186  0.00  0.00    +0.240 A 
ATOM     31  C   UNL     1      -1.580  -0.236  -0.423  0.00  0.00    +0.069 C 
ENDBRANCH  23  30
ENDBRANCH  20  23
ENDBRANCH   1  20
TORSDOF 6
