REMARK  Name = ZINC16741556
REMARK  12 active torsions:
REMARK  status: ('A' for Active; 'I' for Inactive)
REMARK    1  A    between atoms: C_1  and  C_2
REMARK    2  A    between atoms: C_2  and  N_3
REMARK    3  A    between atoms: N_3  and  C_4
REMARK    4  A    between atoms: N_3  and  C_6
REMARK    5  A    between atoms: C_4  and  C_5
REMARK    6  A    between atoms: C_6  and  C_7
REMARK    7  A    between atoms: C_7  and  N_8
REMARK    8  A    between atoms: C_9  and  C_28
REMARK    9  A    between atoms: C_11  and  C_16
REMARK   10  A    between atoms: C_16  and  C_18
REMARK   11  A    between atoms: C_32  and  O_34
REMARK   12  A    between atoms: O_34  and  C_35
REMARK                            x       y       z     vdW  Elec       q    Type
REMARK                         _______ _______ _______ _____ _____    ______ ____
ROOT
ATOM      1  N   UNL     1       7.519   2.191  -0.799  0.00  0.00    -0.285 N 
ATOM      2  C   UNL     1       6.226   1.597  -1.158  0.00  0.00    +0.145 C 
ATOM      3  C   UNL     1       6.466   0.111  -1.288  0.00  0.00    +0.076 C 
ATOM      4  C   UNL     1       7.776  -0.097  -1.020  0.00  0.00    +0.249 C 
ATOM      5  C   UNL     1       8.423   1.198  -0.722  0.00  0.00    +0.288 C 
ATOM      6  O   UNL     1       9.597   1.344  -0.444  0.00  0.00    -0.266 OA
ATOM      7  O   UNL     1       8.396  -1.300  -1.025  0.00  0.00    -0.282 OA
ENDROOT
BRANCH   2   8
ATOM      8  C   UNL     1       5.213   1.865  -0.074  0.00  0.00    -0.019 A 
ATOM      9  C   UNL     1       5.546   1.648   1.250  0.00  0.00    +0.006 A 
ATOM     10  C   UNL     1       4.622   1.898   2.248  0.00  0.00    +0.004 A 
ATOM     11  C   UNL     1       3.359   2.354   1.922  0.00  0.00    +0.046 A 
ATOM     12  C   UNL     1       3.021   2.567   0.594  0.00  0.00    +0.129 A 
ATOM     13  C   UNL     1       3.952   2.321  -0.405  0.00  0.00    +0.052 A 
BRANCH  12  14
ATOM     14  O   UNL     1       1.779   3.016   0.271  0.00  0.00    -0.456 OA
BRANCH  14  15
ATOM     15  C   UNL     1       0.883   2.118  -0.216  0.00  0.00    +0.128 A 
ATOM     16  C   UNL     1       1.236   0.782  -0.341  0.00  0.00    +0.046 A 
ATOM     17  C   UNL     1       0.320  -0.130  -0.830  0.00  0.00    +0.004 A 
ATOM     18  C   UNL     1      -0.942   0.290  -1.206  0.00  0.00    +0.000 A 
ATOM     19  C   UNL     1      -1.294   1.622  -1.088  0.00  0.00    +0.004 A 
ATOM     20  C   UNL     1      -0.385   2.537  -0.594  0.00  0.00    +0.046 A 
ENDBRANCH  14  15
ENDBRANCH  12  14
ENDBRANCH   2   8
BRANCH   3  21
ATOM     21  C   UNL     1       5.472  -0.909  -1.633  0.00  0.00    +0.195 C 
ATOM     22  O   UNL     1       5.160  -1.756  -0.817  0.00  0.00    -0.287 OA
BRANCH  21  23
ATOM     23  C   UNL     1       4.848  -0.909  -2.971  0.00  0.00    +0.026 A 
ATOM     24  C   UNL     1       5.170   0.089  -3.895  0.00  0.00    +0.015 A 
ATOM     25  C   UNL     1       4.585   0.087  -5.142  0.00  0.00    +0.050 A 
ATOM     26  C   UNL     1       3.674  -0.905  -5.487  0.00  0.00    +0.162 A 
ATOM     27  C   UNL     1       3.351  -1.905  -4.572  0.00  0.00    +0.163 A 
ATOM     28  C   UNL     1       3.933  -1.908  -3.318  0.00  0.00    +0.061 A 
ATOM     29  O   UNL     1       2.467  -2.887  -4.898  0.00  0.00    -0.485 OA
ATOM     30  C   UNL     1       1.620  -2.642  -6.025  0.00  0.00    +0.270 C 
ATOM     31  C   UNL     1       2.487  -2.095  -7.167  0.00  0.00    +0.270 C 
ATOM     32  O   UNL     1       3.103  -0.882  -6.721  0.00  0.00    -0.485 OA
ENDBRANCH  21  23
ENDBRANCH   3  21
BRANCH   1  33
ATOM     33  C   UNL     1       7.778   3.614  -0.566  0.00  0.00    +0.090 C 
BRANCH  33  34
ATOM     34  C   UNL     1       7.560   3.936   0.914  0.00  0.00    -0.060 C 
BRANCH  34  35
ATOM     35  N   UNL     1       7.821   5.362   1.149  0.00  0.00    +0.380 N 
ATOM     36  H   UNL     1       8.811   5.598   0.731  0.00  0.00    -0.082 HD
BRANCH  35  38
ATOM     37  C   UNL     1       5.433   5.889   1.004  0.00  0.00    -0.017 C 
ATOM     38  C   UNL     1       6.829   6.199   0.460  0.00  0.00    -0.082 C 
ENDBRANCH  35  38
BRANCH  35  39
ATOM     39  C   UNL     1       7.854   5.662   2.587  0.00  0.00    -0.082 C 
ATOM     40  C   UNL     1       8.371   7.086   2.799  0.00  0.00    -0.017 C 
ENDBRANCH  35  39
ENDBRANCH  34  35
ENDBRANCH  33  34
ENDBRANCH   1  33
TORSDOF 10
