REMARK  Name = ZINC09230618
REMARK  13 active torsions:
REMARK  status: ('A' for Active; 'I' for Inactive)
REMARK    1  A    between atoms: C_1  and  C_2
REMARK    2  A    between atoms: C_2  and  C_3
REMARK    3  A    between atoms: C_2  and  C_4
REMARK    4  A    between atoms: C_4  and  O_5
REMARK    5  A    between atoms: O_5  and  C_6
REMARK    6  A    between atoms: C_9  and  C_13
REMARK    7  A    between atoms: N_15  and  C_16
REMARK    8  A    between atoms: C_16  and  N_18
REMARK    9  A    between atoms: N_18  and  C_19
REMARK   10  A    between atoms: C_22  and  N_25
REMARK   11  A    between atoms: C_26  and  C_28
REMARK   12  A    between atoms: C_28  and  C_29
REMARK   13  A    between atoms: C_28  and  C_30
REMARK                            x       y       z     vdW  Elec       q    Type
REMARK                         _______ _______ _______ _____ _____    ______ ____
ROOT
ATOM      1  C   UNL     1      -4.719   5.162  -0.079  0.00  0.00    +0.141 C 
ATOM      2  S   UNL     1      -3.212   5.965  -0.198  0.00  0.00    -0.018 S 
ENDROOT
BRANCH   1   5
ATOM      3  C   UNL     1      -5.827   7.199  -0.340  0.00  0.00    +0.250 C 
ATOM      4  O   UNL     1      -4.757   7.770  -0.425  0.00  0.00    -0.270 OA
ATOM      5  N   UNL     1      -5.866   5.864  -0.163  0.00  0.00    -0.264 N 
ATOM      6  H   UNL     1      -6.720   5.408  -0.095  0.00  0.00    +0.157 HD
BRANCH   3  10
ATOM      7  C   UNL     1      -9.442   9.412  -0.604  0.00  0.00    +0.134 A 
ATOM      8  C   UNL     1      -9.484   8.035  -0.421  0.00  0.00    +0.047 A 
ATOM      9  C   UNL     1      -8.314   7.313  -0.341  0.00  0.00    +0.017 A 
ATOM     10  C   UNL     1      -7.082   7.968  -0.432  0.00  0.00    +0.038 A 
ATOM     11  C   UNL     1      -7.044   9.353  -0.616  0.00  0.00    +0.032 A 
ATOM     12  C   UNL     1      -8.219  10.068  -0.701  0.00  0.00    +0.060 A 
ATOM     13 BR   UNL     1      -8.169  11.941  -0.950  0.00  0.00    -0.046 Br
BRANCH   7  14
ATOM     14  O   UNL     1     -10.597  10.119  -0.689  0.00  0.00    -0.491 OA
BRANCH  14  15
ATOM     15  C   UNL     1     -11.818   9.383  -0.581  0.00  0.00    +0.232 C 
BRANCH  15  17
ATOM     16  C   UNL     1     -14.308   9.541  -0.708  0.00  0.00    +0.010 C 
ATOM     17  C   UNL     1     -13.004  10.342  -0.698  0.00  0.00    +0.020 C 
ATOM     18  C   UNL     1     -13.004  11.302   0.493  0.00  0.00    +0.010 C 
ENDBRANCH  15  17
ENDBRANCH  14  15
ENDBRANCH   7  14
ENDBRANCH   3  10
ENDBRANCH   1   5
BRANCH   1  19
ATOM     19  N   UNL     1      -4.758   3.826   0.099  0.00  0.00    -0.297 N 
ATOM     20  H   UNL     1      -5.609   3.378   0.221  0.00  0.00    +0.154 HD
BRANCH  19  21
ATOM     21  C   UNL     1      -3.569   3.086   0.107  0.00  0.00    +0.033 A 
ATOM     22  C   UNL     1      -2.464   3.554   0.806  0.00  0.00    +0.025 A 
ATOM     23  C   UNL     1      -1.293   2.825   0.816  0.00  0.00    +0.025 A 
ATOM     24  C   UNL     1      -1.219   1.621   0.126  0.00  0.00    +0.034 A 
ATOM     25  C   UNL     1      -2.322   1.155  -0.578  0.00  0.00    +0.025 A 
ATOM     26  C   UNL     1      -3.495   1.883  -0.582  0.00  0.00    +0.025 A 
BRANCH  24  27
ATOM     27  N   UNL     1      -0.030   0.880   0.136  0.00  0.00    -0.285 N 
ATOM     28  C   UNL     1       0.735   0.848   1.245  0.00  0.00    +0.220 C 
ATOM     29  O   UNL     1       0.418   1.497   2.219  0.00  0.00    -0.275 OA
ATOM     30  H   UNL     1       0.245   0.394  -0.657  0.00  0.00    +0.155 HD
BRANCH  28  31
ATOM     31  C   UNL     1       1.984   0.005   1.274  0.00  0.00    +0.069 C 
ATOM     32  C   UNL     1       2.942   0.475   0.178  0.00  0.00    +0.017 C 
ATOM     33  C   UNL     1       2.662   0.145   2.639  0.00  0.00    +0.017 C 
ENDBRANCH  28  31
ENDBRANCH  24  27
ENDBRANCH  19  21
ENDBRANCH   1  19
TORSDOF 9
