REMARK  Name = ZINC54665997
REMARK  11 active torsions:
REMARK  status: ('A' for Active; 'I' for Inactive)
REMARK    1  A    between atoms: C_1  and  C_2
REMARK    2  A    between atoms: C_3  and  C_12
REMARK    3  A    between atoms: C_8  and  S_10
REMARK    4  A    between atoms: S_10  and  C_11
REMARK    5  A    between atoms: C_12  and  C_13
REMARK    6  A    between atoms: C_13  and  C_14
REMARK    7  A    between atoms: C_14  and  O_16
REMARK    8  A    between atoms: O_16  and  C_17
REMARK    9  A    between atoms: C_20  and  C_23
REMARK   10  A    between atoms: C_23  and  C_24
REMARK   11  A    between atoms: C_23  and  C_25
REMARK                            x       y       z     vdW  Elec       q    Type
REMARK                         _______ _______ _______ _____ _____    ______ ____
ROOT
ATOM      1  C   UNL     1      -3.025   0.131  -1.421  0.00  0.00    +0.126 C 
ENDROOT
BRANCH   1   2
ATOM      2  C   UNL     1      -4.346   0.856  -1.407  0.00  0.00    +0.313 C 
ATOM      3  O   UNL     1      -4.841   1.187  -0.355  0.00  0.00    -0.250 OA
BRANCH   2   4
ATOM      4  O   UNL     1      -4.972   1.133  -2.561  0.00  0.00    -0.426 OA
BRANCH   4   5
ATOM      5  C   UNL     1      -6.208   1.696  -2.497  0.00  0.00    +0.132 A 
ATOM      6  C   UNL     1      -6.342   3.046  -2.206  0.00  0.00    +0.046 A 
ATOM      7  C   UNL     1      -7.598   3.616  -2.143  0.00  0.00    +0.007 A 
ATOM      8  C   UNL     1      -8.722   2.842  -2.368  0.00  0.00    -0.045 A 
ATOM      9  C   UNL     1      -8.591   1.497  -2.658  0.00  0.00    +0.007 A 
ATOM     10  C   UNL     1      -7.336   0.923  -2.728  0.00  0.00    +0.046 A 
BRANCH   8  11
ATOM     11  C   UNL     1     -10.092   3.467  -2.298  0.00  0.00    +0.013 C 
ATOM     12  C   UNL     1     -10.794   3.309  -3.648  0.00  0.00    +0.012 C 
ATOM     13  C   UNL     1     -10.914   2.772  -1.211  0.00  0.00    +0.012 C 
ENDBRANCH   8  11
ENDBRANCH   4   5
ENDBRANCH   2   4
ENDBRANCH   1   2
BRANCH   1  14
ATOM     14  C   UNL     1      -2.530  -0.058   0.014  0.00  0.00    +0.053 C 
BRANCH  14  17
ATOM     15  C   UNL     1      -0.055   1.419   0.090  0.00  0.00    +0.066 C 
ATOM     16  C   UNL     1      -0.035  -0.087   0.035  0.00  0.00    +0.049 A 
ATOM     17  C   UNL     1      -1.209  -0.783  -0.001  0.00  0.00    +0.038 A 
ATOM     18  C   UNL     1      -1.165  -2.188  -0.052  0.00  0.00    +0.256 A 
ATOM     19  O   UNL     1      -2.196  -2.841  -0.086  0.00  0.00    -0.267 OA
ATOM     20  N   UNL     1       0.038  -2.800  -0.064  0.00  0.00    -0.302 N 
ATOM     21  H   UNL     1       0.091  -3.768  -0.100  0.00  0.00    +0.171 HD
ATOM     22  C   UNL     1       1.176  -2.053  -0.026  0.00  0.00    +0.169 A 
ATOM     23  N   UNL     1       1.127  -0.736   0.017  0.00  0.00    -0.228 NA
BRANCH  22  24
ATOM     24  S   UNL     1       2.742  -2.861  -0.041  0.00  0.00    -0.091 S 
ATOM     25  C   UNL     1       3.939  -1.499   0.021  0.00  0.00    +0.093 C 
ENDBRANCH  22  24
ENDBRANCH  14  17
ENDBRANCH   1  14
TORSDOF 7
