REMARK  Name = ZINC20153625
REMARK  8 active torsions:
REMARK  status: ('A' for Active; 'I' for Inactive)
REMARK    1  A    between atoms: C_1  and  C_2
REMARK    2  A    between atoms: C_2  and  N_3
REMARK    3  A    between atoms: C_11  and  C_36
REMARK    4  A    between atoms: C_14  and  N_19
REMARK    5  A    between atoms: N_19  and  C_20
REMARK    6  A    between atoms: C_20  and  N_22
REMARK    7  A    between atoms: N_25  and  C_28
REMARK    8  A    between atoms: C_33  and  C_34
REMARK                            x       y       z     vdW  Elec       q    Type
REMARK                         _______ _______ _______ _____ _____    ______ ____
ROOT
ATOM      1  N   UNL     1     -10.071  -2.379   1.777  0.00  0.00    +0.382 N 
ATOM      2  C   UNL     1      -9.208  -2.890   0.702  0.00  0.00    -0.060 C 
ATOM      3  C   UNL     1      -7.910  -2.079   0.664  0.00  0.00    +0.088 C 
ATOM      4  N   UNL     1      -8.229  -0.660   0.451  0.00  0.00    -0.319 N 
ATOM      5  C   UNL     1      -9.092  -0.149   1.525  0.00  0.00    +0.088 C 
ATOM      6  C   UNL     1     -10.389  -0.960   1.563  0.00  0.00    -0.060 C 
ATOM      7  C   UNL     1      -7.072   0.098   0.339  0.00  0.00    +0.122 A 
ATOM      8  C   UNL     1      -7.177   1.481   0.131  0.00  0.00    +0.047 A 
ATOM      9  C   UNL     1      -6.050   2.238   0.020  0.00  0.00    -0.038 A 
ATOM     10  C   UNL     1      -4.799   1.593   0.119  0.00  0.00    +0.005 A 
ATOM     11  C   UNL     1      -3.600   2.314   0.014  0.00  0.00    +0.033 A 
ATOM     12  C   UNL     1      -2.398   1.649   0.117  0.00  0.00    +0.033 A 
ATOM     13  C   UNL     1      -2.365   0.265   0.319  0.00  0.00    +0.025 A 
ATOM     14  C   UNL     1      -3.515  -0.453   0.429  0.00  0.00    +0.030 A 
ATOM     15  C   UNL     1      -4.760   0.193   0.330  0.00  0.00    +0.073 A 
ATOM     16  N   UNL     1      -5.901  -0.498   0.432  0.00  0.00    -0.232 NA
ATOM     17  C   UNL     1      -6.136   3.725  -0.204  0.00  0.00    +0.044 C 
ATOM     18  H   UNL     1      -9.519  -2.464   2.725  0.00  0.00    -0.082 HD
ENDROOT
BRANCH   1  20
ATOM     19  C   UNL     1     -12.045  -2.784   3.168  0.00  0.00    -0.017 C 
ATOM     20  C   UNL     1     -11.295  -3.181   1.895  0.00  0.00    -0.082 C 
ENDBRANCH   1  20
BRANCH  12  21
ATOM     21  N   UNL     1      -1.199   2.364   0.013  0.00  0.00    -0.297 N 
ATOM     22  H   UNL     1      -1.217   3.461  -0.067  0.00  0.00    +0.154 HD
BRANCH  21  23
ATOM     23  C   UNL     1      -0.021   1.707   0.010  0.00  0.00    +0.137 C 
ATOM     24  S   UNL     1       0.923   1.638   1.437  0.00  0.00    -0.018 S 
BRANCH  23  25
ATOM     25  N   UNL     1       0.410   1.101  -1.114  0.00  0.00    -0.309 N 
ATOM     26  C   UNL     1      -0.436   1.050  -2.316  0.00  0.00    +0.125 C 
ATOM     27  C   UNL     1       0.390   1.556  -3.509  0.00  0.00    +0.124 C 
ATOM     28  N   UNL     1       1.638   0.786  -3.595  0.00  0.00    -0.327 N 
ATOM     29  C   UNL     1       2.475   0.991  -2.405  0.00  0.00    +0.124 C 
ATOM     30  C   UNL     1       1.736   0.468  -1.168  0.00  0.00    +0.125 C 
BRANCH  28  31
ATOM     31  C   UNL     1       2.341   1.099  -4.761  0.00  0.00    +0.034 A 
ATOM     32  C   UNL     1       2.840   2.382  -4.948  0.00  0.00    +0.043 A 
ATOM     33  C   UNL     1       3.535   2.689  -6.103  0.00  0.00    +0.043 A 
ATOM     34  C   UNL     1       3.734   1.719  -7.071  0.00  0.00    +0.020 A 
ATOM     35  C   UNL     1       3.238   0.442  -6.886  0.00  0.00    +0.006 A 
ATOM     36  C   UNL     1       2.546   0.128  -5.732  0.00  0.00    -0.029 A 
ATOM     37  C   UNL     1       2.011  -1.266  -5.529  0.00  0.00    +0.045 C 
ATOM     38 CL   UNL     1       4.159   4.291  -6.340  0.00  0.00    -0.083 Cl
ENDBRANCH  28  31
ENDBRANCH  23  25
ENDBRANCH  21  23
ENDBRANCH  12  21
TORSDOF 5
