REMARK  Name = ZINC33263275
REMARK  8 active torsions:
REMARK  status: ('A' for Active; 'I' for Inactive)
REMARK    1  A    between atoms: C_1  and  C_2
REMARK    2  A    between atoms: C_5  and  N_8
REMARK    3  A    between atoms: C_9  and  C_11
REMARK    4  A    between atoms: C_14  and  C_16
REMARK    5  A    between atoms: C_22  and  C_25
REMARK    6  A    between atoms: N_27  and  C_28
REMARK    7  A    between atoms: C_28  and  C_29
REMARK    8  A    between atoms: C_29  and  C_30
REMARK                            x       y       z     vdW  Elec       q    Type
REMARK                         _______ _______ _______ _____ _____    ______ ____
ROOT
ATOM      1  C   UNL     1       0.072   0.921  -0.250  0.00  0.00    +0.274 C 
ATOM      2  O   UNL     1       0.051  -0.278  -0.453  0.00  0.00    -0.268 OA
ATOM      3  N   UNL     1       1.249   1.554  -0.080  0.00  0.00    -0.295 N 
ATOM      4  C   UNL     1       1.300   3.017   0.057  0.00  0.00    +0.108 C 
ATOM      5  C   UNL     1       2.063   3.361   1.344  0.00  0.00    +0.020 C 
ATOM      6  C   UNL     1       3.436   2.686   1.313  0.00  0.00    +0.016 C 
ATOM      7  C   UNL     1       3.258   1.167   1.251  0.00  0.00    +0.092 C 
ATOM      8  C   UNL     1       2.507   0.797  -0.032  0.00  0.00    +0.121 C 
ENDROOT
BRANCH   1  12
ATOM      9  C   UNL     1      -3.606   2.658  -0.128  0.00  0.00    +0.187 A 
ATOM     10  N   UNL     1      -2.553   3.470  -0.073  0.00  0.00    -0.136 NA
ATOM     11  N   UNL     1      -1.382   2.996  -0.101  0.00  0.00    -0.136 NA
ATOM     12  C   UNL     1      -1.191   1.683  -0.197  0.00  0.00    +0.187 A 
ATOM     13  S   UNL     1      -2.830   1.108  -0.235  0.00  0.00    -0.036 S 
BRANCH   9  15
ATOM     14  N   UNL     1      -5.441   4.272  -0.016  0.00  0.00    -0.280 N 
ATOM     15  C   UNL     1      -5.045   2.987  -0.104  0.00  0.00    +0.275 C 
ATOM     16  O   UNL     1      -5.873   2.098  -0.165  0.00  0.00    -0.268 OA
ATOM     17  H   UNL     1      -4.697   5.081  -0.048  0.00  0.00    +0.155 HD
BRANCH  14  22
ATOM     18  C   UNL     1     -10.950   5.511   0.522  0.00  0.00    +0.044 C 
ATOM     19  C   UNL     1      -9.487   5.182   0.379  0.00  0.00    -0.050 A 
ATOM     20  C   UNL     1      -8.982   4.023   0.941  0.00  0.00    +0.005 A 
ATOM     21  C   UNL     1      -7.641   3.719   0.812  0.00  0.00    +0.023 A 
ATOM     22  C   UNL     1      -6.799   4.577   0.116  0.00  0.00    +0.034 A 
ATOM     23  C   UNL     1      -7.309   5.743  -0.442  0.00  0.00    +0.023 A 
ATOM     24  C   UNL     1      -8.651   6.039  -0.314  0.00  0.00    +0.005 A 
ENDBRANCH  14  22
ENDBRANCH   9  15
ENDBRANCH   1  12
BRANCH   7  25
ATOM     25  C   UNL     1       4.610   0.501   1.252  0.00  0.00    +0.218 C 
ATOM     26  O   UNL     1       5.617   1.175   1.301  0.00  0.00    -0.275 OA
ATOM     27  N   UNL     1       4.700  -0.843   1.199  0.00  0.00    -0.315 N 
ATOM     28  H   UNL     1       3.786  -1.453   1.155  0.00  0.00    +0.149 HD
BRANCH  27  29
ATOM     29  C   UNL     1       6.014  -1.490   1.200  0.00  0.00    +0.108 C 
BRANCH  29  30
ATOM     30  C   UNL     1       5.835  -3.008   1.134  0.00  0.00    +0.049 C 
BRANCH  30  31
ATOM     31  C   UNL     1       7.187  -3.673   1.136  0.00  0.00    -0.072 C 
ATOM     32  C   UNL     1       7.666  -4.073   2.270  0.00  0.00    -0.028 C 
ATOM     33  C   UNL     1       8.998  -4.745   2.431  0.00  0.00    +0.027 C 
ATOM     34  C   UNL     1       9.499  -5.255   1.078  0.00  0.00    +0.004 C 
ATOM     35  C   UNL     1       9.382  -4.116   0.057  0.00  0.00    +0.005 C 
ATOM     36  C   UNL     1       7.897  -3.827  -0.177  0.00  0.00    +0.030 C 
ENDBRANCH  30  31
ENDBRANCH  29  30
ENDBRANCH  27  29
ENDBRANCH   7  25
TORSDOF 7
