REMARK  Name = ZINC32686401
REMARK  10 active torsions:
REMARK  status: ('A' for Active; 'I' for Inactive)
REMARK    1  A    between atoms: C_1  and  C_2
REMARK    2  A    between atoms: C_2  and  N_3
REMARK    3  A    between atoms: N_3  and  C_4
REMARK    4  A    between atoms: N_3  and  S_6
REMARK    5  A    between atoms: C_4  and  C_5
REMARK    6  A    between atoms: S_6  and  C_9
REMARK    7  A    between atoms: C_12  and  C_31
REMARK    8  A    between atoms: C_13  and  N_15
REMARK    9  A    between atoms: N_15  and  S_16
REMARK   10  A    between atoms: S_16  and  C_19
REMARK                            x       y       z     vdW  Elec       q    Type
REMARK                         _______ _______ _______ _____ _____    ______ ____
ROOT
ATOM      1  N   UNL     1       4.295   2.583  -1.606  0.00  0.00    -0.216 N 
ATOM      2  H   UNL     1       5.214   2.139  -2.017  0.00  0.00    +0.174 HD
ENDROOT
BRANCH   1   7
ATOM      3  C   UNL     1       1.902   5.110  -2.785  0.00  0.00    +0.107 A 
ATOM      4  C   UNL     1       1.713   4.701  -4.092  0.00  0.00    +0.029 A 
ATOM      5  C   UNL     1       2.380   3.591  -4.576  0.00  0.00    +0.007 A 
ATOM      6  C   UNL     1       3.237   2.886  -3.754  0.00  0.00    -0.028 A 
ATOM      7  C   UNL     1       3.429   3.294  -2.440  0.00  0.00    +0.053 A 
ATOM      8  C   UNL     1       2.754   4.407  -1.956  0.00  0.00    +0.053 A 
ATOM      9  C   UNL     1       3.963   1.675  -4.281  0.00  0.00    +0.046 C 
BRANCH   3  10
ATOM     10  S   UNL     1       1.049   6.526  -2.174  0.00  0.00    +0.061 S 
ATOM     11  O   UNL     1       1.814   7.022  -1.084  0.00  0.00    -0.153 OA
ATOM     12  O   UNL     1       0.727   7.325  -3.304  0.00  0.00    -0.153 OA
BRANCH  10  13
ATOM     13  N   UNL     1      -0.388   5.998  -1.542  0.00  0.00    -0.177 NA
BRANCH  13  15
ATOM     14  C   UNL     1      -0.962   6.799   0.696  0.00  0.00    +0.022 C 
ATOM     15  C   UNL     1      -0.469   5.610  -0.132  0.00  0.00    +0.106 C 
ENDBRANCH  13  15
BRANCH  13  16
ATOM     16  C   UNL     1      -1.577   5.919  -2.394  0.00  0.00    +0.106 C 
ATOM     17  C   UNL     1      -1.716   4.498  -2.945  0.00  0.00    +0.022 C 
ENDBRANCH  13  16
ENDBRANCH  10  13
ENDBRANCH   3  10
ENDBRANCH   1   7
BRANCH   1  18
ATOM     18  S   UNL     1       3.939   2.409   0.002  0.00  0.00    +0.072 S 
ATOM     19  O   UNL     1       3.707   3.716   0.510  0.00  0.00    -0.150 OA
ATOM     20  O   UNL     1       4.927   1.545   0.546  0.00  0.00    -0.150 OA
BRANCH  18  21
ATOM     21  C   UNL     1       2.405   1.548   0.106  0.00  0.00    +0.111 A 
ATOM     22  C   UNL     1       1.217   2.258   0.128  0.00  0.00    +0.031 A 
ATOM     23  C   UNL     1       0.009   1.592   0.209  0.00  0.00    +0.030 A 
ATOM     24  C   UNL     1      -0.012   0.207   0.268  0.00  0.00    +0.067 A 
ATOM     25  C   UNL     1       1.187  -0.509   0.244  0.00  0.00    +0.069 A 
ATOM     26  C   UNL     1       2.394   0.169   0.163  0.00  0.00    +0.056 A 
ATOM     27  N   UNL     1       0.851  -1.859   0.315  0.00  0.00    -0.306 N 
ATOM     28  H   UNL     1       1.642  -2.623   0.312  0.00  0.00    +0.170 HD
ATOM     29  C   UNL     1      -0.490  -1.960   0.379  0.00  0.00    +0.325 A 
ATOM     30  O   UNL     1      -1.112  -3.003   0.450  0.00  0.00    -0.247 OA
ATOM     31  N   UNL     1      -1.039  -0.731   0.352  0.00  0.00    -0.306 N 
ATOM     32  H   UNL     1      -2.087  -0.397   0.385  0.00  0.00    +0.170 HD
ENDBRANCH  18  21
ENDBRANCH   1  18
TORSDOF 7
