REMARK  Name = ZINC15468200
REMARK  11 active torsions:
REMARK  status: ('A' for Active; 'I' for Inactive)
REMARK    1  A    between atoms: C_1  and  C_2
REMARK    2  A    between atoms: C_2  and  C_3
REMARK    3  A    between atoms: C_4  and  C_32
REMARK    4  A    between atoms: C_6  and  C_8
REMARK    5  A    between atoms: N_10  and  N_11
REMARK    6  A    between atoms: C_12  and  C_14
REMARK    7  A    between atoms: C_17  and  N_20
REMARK    8  A    between atoms: N_20  and  C_21
REMARK    9  A    between atoms: N_20  and  S_22
REMARK   10  A    between atoms: S_22  and  C_25
REMARK   11  A    between atoms: C_28  and  C_31
REMARK                            x       y       z     vdW  Elec       q    Type
REMARK                         _______ _______ _______ _____ _____    ______ ____
ROOT
ATOM      1  C   UNL     1      -3.108   1.217   0.789  0.00  0.00    +0.038 A 
ATOM      2  C   UNL     1      -2.911  -0.162   0.670  0.00  0.00    +0.015 A 
ATOM      3  C   UNL     1      -3.984  -0.990   0.433  0.00  0.00    +0.025 A 
ATOM      4  C   UNL     1      -5.263  -0.455   0.302  0.00  0.00    +0.051 A 
ATOM      5  C   UNL     1      -5.461   0.918   0.414  0.00  0.00    +0.025 A 
ATOM      6  C   UNL     1      -4.393   1.751   0.657  0.00  0.00    +0.015 A 
ENDROOT
BRANCH   1   8
ATOM      7  N   UNL     1      -0.722   1.592   1.175  0.00  0.00    -0.230 N 
ATOM      8  C   UNL     1      -1.960   2.108   1.048  0.00  0.00    +0.260 C 
ATOM      9  O   UNL     1      -2.132   3.308   1.147  0.00  0.00    -0.269 OA
ATOM     10  H   UNL     1      -0.585   0.635   1.097  0.00  0.00    +0.173 HD
BRANCH   7  13
ATOM     11  C   UNL     1       1.608   1.922   1.538  0.00  0.00    +0.267 C 
ATOM     12  O   UNL     1       1.780   0.722   1.439  0.00  0.00    -0.268 OA
ATOM     13  N   UNL     1       0.368   2.438   1.416  0.00  0.00    -0.230 N 
ATOM     14  H   UNL     1       0.231   3.395   1.494  0.00  0.00    +0.173 HD
BRANCH  11  18
ATOM     15  C   UNL     1       4.477   4.791   2.235  0.00  0.00    -0.007 A 
ATOM     16  C   UNL     1       4.958   3.521   2.173  0.00  0.00    -0.040 A 
ATOM     17  C   UNL     1       4.087   2.485   1.945  0.00  0.00    +0.024 A 
ATOM     18  C   UNL     1       2.748   2.808   1.789  0.00  0.00    +0.076 A 
ATOM     19  S   UNL     1       2.776   4.583   1.966  0.00  0.00    -0.088 S 
ATOM     20  C   UNL     1       6.430   3.255   2.353  0.00  0.00    +0.044 C 
BRANCH  15  22
ATOM     21  C   UNL     1       5.695   6.647   1.131  0.00  0.00    +0.009 C 
ATOM     22  C   UNL     1       5.237   6.070   2.472  0.00  0.00    +0.039 C 
ENDBRANCH  15  22
ENDBRANCH  11  18
ENDBRANCH   7  13
ENDBRANCH   1   8
BRANCH   4  23
ATOM     23  N   UNL     1      -6.344  -1.295   0.057  0.00  0.00    -0.206 N 
ATOM     24  C   UNL     1      -7.691  -0.894   0.471  0.00  0.00    +0.157 C 
BRANCH  23  25
ATOM     25  S   UNL     1      -6.109  -2.748  -0.702  0.00  0.00    +0.074 S 
ATOM     26  O   UNL     1      -7.340  -3.081  -1.329  0.00  0.00    -0.150 OA
ATOM     27  O   UNL     1      -4.891  -2.636  -1.425  0.00  0.00    -0.150 OA
BRANCH  25  28
ATOM     28  C   UNL     1      -5.840  -3.954   0.553  0.00  0.00    +0.109 A 
ATOM     29  C   UNL     1      -4.552  -4.315   0.901  0.00  0.00    +0.029 A 
ATOM     30  C   UNL     1      -4.341  -5.258   1.889  0.00  0.00    +0.005 A 
ATOM     31  C   UNL     1      -5.418  -5.848   2.523  0.00  0.00    -0.050 A 
ATOM     32  C   UNL     1      -6.707  -5.491   2.172  0.00  0.00    +0.005 A 
ATOM     33  C   UNL     1      -6.918  -4.544   1.187  0.00  0.00    +0.029 A 
ATOM     34  C   UNL     1      -5.188  -6.880   3.597  0.00  0.00    +0.044 C 
ENDBRANCH  25  28
ENDBRANCH  23  25
ENDBRANCH   4  23
TORSDOF 7
