REMARK  Name = ZINC20558526
REMARK  5 active torsions:
REMARK  status: ('A' for Active; 'I' for Inactive)
REMARK    1  A    between atoms: C_5  and  C_7
REMARK    2  A    between atoms: C_7  and  N_8
REMARK    3  A    between atoms: C_20  and  C_28
REMARK    4  A    between atoms: C_22  and  C_26
REMARK    5  A    between atoms: C_23  and  N_25
REMARK                            x       y       z     vdW  Elec       q    Type
REMARK                         _______ _______ _______ _____ _____    ______ ____
ROOT
ATOM      1  N   UNL     1      -2.414   3.603   0.078  0.00  0.00    -0.198 N 
ATOM      2  C   UNL     1      -1.285   2.776   0.060  0.00  0.00    +0.062 A 
ATOM      3  C   UNL     1      -1.467   1.398   0.035  0.00  0.00    +0.025 A 
ATOM      4  C   UNL     1      -0.375   0.554   0.035  0.00  0.00    +0.002 A 
ATOM      5  C   UNL     1       0.907   1.078   0.049  0.00  0.00    +0.001 A 
ATOM      6  C   UNL     1       1.101   2.442   0.066  0.00  0.00    +0.013 A 
ATOM      7  C   UNL     1       0.003   3.312   0.068  0.00  0.00    +0.042 A 
ATOM      8  C   UNL     1       0.276   4.769   0.065  0.00  0.00    +0.162 C 
ATOM      9  C   UNL     1      -0.659   5.655   0.399  0.00  0.00    +0.141 C 
ATOM     10  S   UNL     1      -2.265   5.069   0.853  0.00  0.00    +0.076 S 
ATOM     11  O   UNL     1      -3.211   5.950   0.261  0.00  0.00    -0.150 OA
ATOM     12  O   UNL     1      -2.231   4.800   2.248  0.00  0.00    -0.150 OA
ATOM     13  C   UNL     1      -0.385   7.133   0.399  0.00  0.00    +0.121 C 
ATOM     14  C   UNL     1       1.098   7.386   0.410  0.00  0.00    +0.099 C 
ATOM     15  C   UNL     1       1.962   6.397   0.066  0.00  0.00    +0.199 C 
ATOM     16  O   UNL     1       1.521   5.181  -0.292  0.00  0.00    -0.439 OA
ENDROOT
BRANCH  13  17
ATOM     17  C   UNL     1      -0.985   7.753  -0.836  0.00  0.00    +0.002 A 
ATOM     18  C   UNL     1      -0.574   7.336  -2.088  0.00  0.00    +0.007 A 
ATOM     19  C   UNL     1      -1.125   7.904  -3.221  0.00  0.00    +0.000 A 
ATOM     20  C   UNL     1      -2.088   8.889  -3.104  0.00  0.00    +0.003 A 
ATOM     21  C   UNL     1      -2.501   9.307  -1.853  0.00  0.00    +0.038 A 
ATOM     22  C   UNL     1      -1.953   8.736  -0.717  0.00  0.00    +0.128 A 
ATOM     23  F   UNL     1      -2.359   9.140   0.506  0.00  0.00    -0.205 F 
ENDBRANCH  13  17
BRANCH  15  24
ATOM     24  N   UNL     1       3.312   6.646   0.085  0.00  0.00    -0.328 N 
ATOM     25  H   UNL     1       4.021   5.852  -0.192  0.00  0.00    +0.145 HD
ATOM     26  H   UNL     1       3.684   7.639   0.378  0.00  0.00    +0.145 HD
ENDBRANCH  15  24
BRANCH  14  27
ATOM     27  C   UNL     1       1.600   8.674   0.785  0.00  0.00    +0.101 C 
ATOM     28  N   UNL     1       1.998   9.695   1.082  0.00  0.00    -0.191 NA
ENDBRANCH  14  27
BRANCH   1  29
ATOM     29  C   UNL     1      -3.670   3.197  -0.558  0.00  0.00    +0.169 C 
BRANCH  29  34
ATOM     30  C   UNL     1      -3.122   1.780  -4.014  0.00  0.00    +0.000 A 
ATOM     31  C   UNL     1      -3.105   2.927  -4.786  0.00  0.00    +0.003 A 
ATOM     32  C   UNL     1      -3.271   4.163  -4.190  0.00  0.00    +0.038 A 
ATOM     33  C   UNL     1      -3.458   4.252  -2.821  0.00  0.00    +0.128 A 
ATOM     34  C   UNL     1      -3.470   3.102  -2.049  0.00  0.00    +0.007 A 
ATOM     35  C   UNL     1      -3.304   1.867  -2.647  0.00  0.00    +0.008 A 
ATOM     36  F   UNL     1      -3.626   5.459  -2.238  0.00  0.00    -0.205 F 
ENDBRANCH  29  34
ENDBRANCH   1  29
TORSDOF 5
