REMARK  Name = ZINC63650001
REMARK  5 active torsions:
REMARK  status: ('A' for Active; 'I' for Inactive)
REMARK    1  A    between atoms: C_1  and  C_2
REMARK    2  A    between atoms: C_2  and  C_3
REMARK    3  A    between atoms: C_2  and  S_13
REMARK    4  A    between atoms: S_13  and  C_14
REMARK    5  A    between atoms: C_14  and  C_15
REMARK                            x       y       z     vdW  Elec       q    Type
REMARK                         _______ _______ _______ _____ _____    ______ ____
ROOT
ATOM      1  S   UNL     1       0.879  -0.605   1.472  0.00  0.00    -0.145 S 
ENDROOT
BRANCH   1   3
ATOM      2  C   UNL     1      -0.019   1.526   0.010  0.00  0.00    +0.024 C 
ATOM      3  C   UNL     1       0.002  -0.004   0.002  0.00  0.00    +0.074 C 
BRANCH   3   4
ATOM      4  C   UNL     1       0.707  -0.490  -1.238  0.00  0.00    -0.027 A 
ATOM      5  C   UNL     1       2.032  -0.802  -1.194  0.00  0.00    +0.005 A 
ATOM      6  C   UNL     1       2.701  -1.253  -2.330  0.00  0.00    +0.001 A 
ATOM      7  C   UNL     1       2.050  -1.394  -3.517  0.00  0.00    +0.008 A 
ATOM      8  C   UNL     1       0.682  -1.081  -3.601  0.00  0.00    -0.018 A 
ATOM      9  C   UNL     1       0.000  -0.629  -2.444  0.00  0.00    -0.014 A 
ATOM     10  C   UNL     1      -1.369  -0.321  -2.527  0.00  0.00    +0.009 A 
ATOM     11  C   UNL     1      -2.021  -0.468  -3.713  0.00  0.00    +0.001 A 
ATOM     12  C   UNL     1      -1.351  -0.919  -4.849  0.00  0.00    +0.001 A 
ATOM     13  C   UNL     1      -0.023  -1.213  -4.809  0.00  0.00    +0.008 A 
ENDBRANCH   3   4
ENDBRANCH   1   3
BRANCH   1  14
ATOM     14  C   UNL     1      -0.166  -0.072   2.855  0.00  0.00    +0.146 C 
BRANCH  14  15
ATOM     15  C   UNL     1       0.457  -0.513   4.154  0.00  0.00    +0.146 A 
ATOM     16  N   UNL     1       0.154  -1.695   4.662  0.00  0.00    -0.199 NA
ATOM     17  C   UNL     1       0.703  -2.089   5.810  0.00  0.00    +0.217 A 
ATOM     18  N   UNL     1       1.556  -1.292   6.444  0.00  0.00    -0.181 NA
ATOM     19  C   UNL     1       1.858  -0.104   5.930  0.00  0.00    +0.217 A 
ATOM     20  N   UNL     1       1.309   0.280   4.780  0.00  0.00    -0.199 NA
ATOM     21  N   UNL     1       2.743   0.727   6.585  0.00  0.00    -0.327 N 
ATOM     22  N   UNL     1       0.386  -3.323   6.339  0.00  0.00    -0.327 N 
ATOM     23  H   UNL     1       3.146   0.445   7.421  0.00  0.00    +0.145 HD
ATOM     24  H   UNL     1       2.963   1.594   6.210  0.00  0.00    +0.145 HD
ATOM     25  H   UNL     1      -0.237  -3.904   5.876  0.00  0.00    +0.145 HD
ATOM     26  H   UNL     1       0.786  -3.609   7.175  0.00  0.00    +0.145 HD
ENDBRANCH  14  15
ENDBRANCH   1  14
TORSDOF 4
