REMARK  Name = ZINC08683401
REMARK  8 active torsions:
REMARK  status: ('A' for Active; 'I' for Inactive)
REMARK    1  A    between atoms: C_3  and  C_8
REMARK    2  A    between atoms: N_10  and  C_11
REMARK    3  A    between atoms: C_11  and  C_19
REMARK    4  A    between atoms: C_12  and  C_13
REMARK    5  A    between atoms: N_21  and  C_22
REMARK    6  A    between atoms: C_22  and  C_23
REMARK    7  A    between atoms: C_23  and  C_24
REMARK    8  A    between atoms: C_24  and  N_25
REMARK                            x       y       z     vdW  Elec       q    Type
REMARK                         _______ _______ _______ _____ _____    ______ ____
ROOT
ATOM      1  C   UNL     1       5.942   2.130  -0.040  0.00  0.00    +0.097 C 
ATOM      2  C   UNL     1       5.977   3.480  -0.122  0.00  0.00    +0.038 C 
ENDROOT
BRANCH   2   3
ATOM      3  C   UNL     1       7.238   4.165  -0.447  0.00  0.00    -0.005 A 
ATOM      4  C   UNL     1       8.200   3.543  -1.257  0.00  0.00    +0.011 A 
ATOM      5  C   UNL     1       9.368   4.231  -1.532  0.00  0.00    +0.020 A 
ATOM      6  C   UNL     1       9.549   5.497  -1.004  0.00  0.00    +0.111 A 
ATOM      7  N   UNL     1       8.628   6.059  -0.245  0.00  0.00    -0.263 NA
ATOM      8  C   UNL     1       7.497   5.449   0.042  0.00  0.00    +0.118 A 
ENDBRANCH   2   3
BRANCH   1  11
ATOM      9  C   UNL     1       4.695   0.136   0.312  0.00  0.00    +0.248 C 
ATOM     10  O   UNL     1       5.724  -0.507   0.241  0.00  0.00    -0.270 OA
ATOM     11  N   UNL     1       4.721   1.471   0.129  0.00  0.00    -0.277 N 
ATOM     12  H   UNL     1       3.892   1.975   0.115  0.00  0.00    +0.155 HD
BRANCH   9  15
ATOM     13  C   UNL     1       2.187  -2.559   1.056  0.00  0.00    +0.002 A 
ATOM     14  C   UNL     1       3.385  -1.928   0.788  0.00  0.00    +0.013 A 
ATOM     15  C   UNL     1       3.415  -0.546   0.599  0.00  0.00    +0.038 A 
ATOM     16  C   UNL     1       2.232   0.190   0.681  0.00  0.00    +0.028 A 
ATOM     17  C   UNL     1       1.040  -0.453   0.949  0.00  0.00    +0.019 A 
ATOM     18  C   UNL     1       1.018  -1.825   1.136  0.00  0.00    +0.015 A 
ATOM     19 BR   UNL     1      -0.564   0.541   1.062  0.00  0.00    -0.050 Br
ENDBRANCH   9  15
ENDBRANCH   1  11
BRANCH   1  20
ATOM     20  C   UNL     1       7.189   1.356  -0.127  0.00  0.00    +0.258 C 
ATOM     21  O   UNL     1       7.406   0.659  -1.101  0.00  0.00    -0.269 OA
ATOM     22  N   UNL     1       8.093   1.418   0.871  0.00  0.00    -0.310 N 
ATOM     23  H   UNL     1       7.889   1.915   1.679  0.00  0.00    +0.149 HD
BRANCH  22  24
ATOM     24  C   UNL     1       9.382   0.735   0.737  0.00  0.00    +0.106 C 
BRANCH  24  25
ATOM     25  C   UNL     1      10.164   0.858   2.046  0.00  0.00    +0.040 C 
BRANCH  25  26
ATOM     26  C   UNL     1      11.510   0.145   1.905  0.00  0.00    +0.124 C 
BRANCH  26  27
ATOM     27  N   UNL     1      12.259   0.263   3.158  0.00  0.00    -0.338 N 
ATOM     28  C   UNL     1      13.127   1.267   3.494  0.00  0.00    +0.104 A 
ATOM     29  C   UNL     1      13.589   0.986   4.727  0.00  0.00    +0.101 A 
ATOM     30  N   UNL     1      13.019  -0.158   5.133  0.00  0.00    -0.352 N 
ATOM     31  C   UNL     1      12.217  -0.594   4.201  0.00  0.00    +0.173 A 
ATOM     32  H   UNL     1      13.175  -0.591   5.987  0.00  0.00    +0.166 HD
ENDBRANCH  26  27
ENDBRANCH  25  26
ENDBRANCH  24  25
ENDBRANCH  22  24
ENDBRANCH   1  20
TORSDOF 8
