REMARK  Name = ZINC39595021
REMARK  11 active torsions:
REMARK  status: ('A' for Active; 'I' for Inactive)
REMARK    1  A    between atoms: C_1  and  C_2
REMARK    2  A    between atoms: C_2  and  C_3
REMARK    3  A    between atoms: C_3  and  C_4
REMARK    4  A    between atoms: C_4  and  C_5
REMARK    5  A    between atoms: C_5  and  C_7
REMARK    6  A    between atoms: C_5  and  C_8
REMARK    7  A    between atoms: C_12  and  C_21
REMARK    8  A    between atoms: N_23  and  C_24
REMARK    9  A    between atoms: C_24  and  C_25
REMARK   10  A    between atoms: C_25  and  C_27
REMARK   11  A    between atoms: C_25  and  N_33
REMARK                            x       y       z     vdW  Elec       q    Type
REMARK                         _______ _______ _______ _____ _____    ______ ____
ROOT
ATOM      1  C   UNL     1       1.607  -4.124   2.606  0.00  0.00    +0.218 C 
ATOM      2  O   UNL     1       1.307  -4.793   1.640  0.00  0.00    -0.275 OA
ATOM      3  N   UNL     1       2.195  -4.703   3.671  0.00  0.00    -0.300 N 
ATOM      4  C   UNL     1       2.543  -4.078   4.969  0.00  0.00    +0.121 C 
ATOM      5  C   UNL     1       2.212  -5.157   6.024  0.00  0.00    +0.100 C 
ATOM      6  C   UNL     1       2.280  -6.489   5.257  0.00  0.00    -0.004 C 
ATOM      7  C   UNL     1       2.635  -6.112   3.812  0.00  0.00    +0.115 C 
ATOM      8  C   UNL     1       3.361  -7.386   5.852  0.00  0.00    -0.010 C 
ATOM      9  C   UNL     1       3.370  -8.726   5.111  0.00  0.00    -0.082 C 
ATOM     10  N   UNL     1       2.054  -9.364   5.234  0.00  0.00    +0.379 N 
ATOM     11  C   UNL     1       1.033  -8.538   4.577  0.00  0.00    -0.082 C 
ATOM     12  C   UNL     1       0.925  -7.190   5.296  0.00  0.00    -0.010 C 
ATOM     13  H   UNL     1       2.080 -10.274   4.797  0.00  0.00    -0.086 HD
ATOM     14  H   UNL     1       1.822  -9.470   6.210  0.00  0.00    -0.086 HD
ENDROOT
BRANCH   5  15
ATOM     15  C   UNL     1       0.828  -4.939   6.581  0.00  0.00    +0.218 C 
ATOM     16  O   UNL     1      -0.011  -4.371   5.915  0.00  0.00    -0.275 OA
ATOM     17  N   UNL     1       0.524  -5.377   7.819  0.00  0.00    -0.316 N 
ATOM     18  H   UNL     1       1.195  -5.832   8.351  0.00  0.00    +0.149 HD
BRANCH  17  19
ATOM     19  C   UNL     1      -0.821  -5.165   8.360  0.00  0.00    +0.093 C 
BRANCH  19  20
ATOM     20  C   UNL     1      -0.865  -5.635   9.815  0.00  0.00    -0.019 C 
BRANCH  20  21
ATOM     21  C   UNL     1       0.034  -4.761  10.652  0.00  0.00    -0.041 A 
ATOM     22  C   UNL     1       1.306  -5.190  10.998  0.00  0.00    +0.005 A 
ATOM     23  C   UNL     1       2.098  -4.353  11.769  0.00  0.00    +0.020 A 
ATOM     24  C   UNL     1       1.595  -3.127  12.165  0.00  0.00    +0.111 A 
ATOM     25  N   UNL     1       0.380  -2.752  11.818  0.00  0.00    -0.263 NA
ATOM     26  C   UNL     1      -0.398  -3.520  11.080  0.00  0.00    +0.112 A 
ENDBRANCH  20  21
BRANCH  20  27
ATOM     27  N   UNL     1      -2.242  -5.545  10.318  0.00  0.00    +0.385 N 
ATOM     28  C   UNL     1      -3.114  -6.507   9.598  0.00  0.00    -0.078 C 
ATOM     29  C   UNL     1      -4.306  -6.702  10.569  0.00  0.00    -0.020 C 
ATOM     30  C   UNL     1      -3.627  -6.681  11.957  0.00  0.00    -0.020 C 
ATOM     31  C   UNL     1      -2.292  -5.943  11.742  0.00  0.00    -0.078 C 
ATOM     32  H   UNL     1      -2.593  -4.605  10.207  0.00  0.00    -0.081 HD
ENDBRANCH  20  27
ENDBRANCH  19  20
ENDBRANCH  17  19
ENDBRANCH   5  15
BRANCH   1  33
ATOM     33  C   UNL     1       1.321  -2.644   2.615  0.00  0.00    +0.072 C 
ATOM     34  C   UNL     1       0.026  -2.370   1.848  0.00  0.00    +0.017 C 
BRANCH  33  35
ATOM     35  C   UNL     1       2.477  -1.897   1.947  0.00  0.00    +0.012 C 
BRANCH  35  36
ATOM     36  C   UNL     1       2.247  -0.390   2.067  0.00  0.00    +0.000 C 
BRANCH  36  38
ATOM     37  C   UNL     1       3.173   1.865   1.519  0.00  0.00    +0.004 C 
ATOM     38  C   UNL     1       3.403   0.357   1.399  0.00  0.00    -0.003 C 
ENDBRANCH  36  38
ENDBRANCH  35  36
ENDBRANCH  33  35
ENDBRANCH   1  33
TORSDOF 9
