REMARK  Name = ZINC39603692
REMARK  7 active torsions:
REMARK  status: ('A' for Active; 'I' for Inactive)
REMARK    1  A    between atoms: C_1  and  O_2
REMARK    2  A    between atoms: O_2  and  C_3
REMARK    3  A    between atoms: C_3  and  C_4
REMARK    4  A    between atoms: C_4  and  N_5
REMARK    5  A    between atoms: C_6  and  C_8
REMARK    6  A    between atoms: C_19  and  C_21
REMARK    7  A    between atoms: C_24  and  C_26
REMARK                            x       y       z     vdW  Elec       q    Type
REMARK                         _______ _______ _______ _____ _____    ______ ____
ROOT
ATOM      1  C   UNL     1      -2.484  -4.345  -1.134  0.00  0.00    +0.100 C 
ATOM      2  C   UNL     1      -3.136  -3.866  -2.450  0.00  0.00    +0.121 C 
ATOM      3  N   UNL     1      -2.970  -5.003  -3.386  0.00  0.00    -0.294 N 
ATOM      4  C   UNL     1      -3.210  -6.205  -2.553  0.00  0.00    +0.115 C 
ATOM      5  C   UNL     1      -2.537  -5.881  -1.204  0.00  0.00    -0.004 C 
ATOM      6  C   UNL     1      -1.126  -6.461  -1.166  0.00  0.00    -0.010 C 
ATOM      7  C   UNL     1      -1.208  -7.990  -1.179  0.00  0.00    -0.082 C 
ATOM      8  N   UNL     1      -1.979  -8.450  -0.018  0.00  0.00    +0.379 N 
ATOM      9  C   UNL     1      -3.361  -7.964  -0.109  0.00  0.00    -0.082 C 
ATOM     10  C   UNL     1      -3.371  -6.433  -0.052  0.00  0.00    -0.010 C 
ATOM     11  C   UNL     1      -2.669  -4.955  -4.699  0.00  0.00    +0.282 C 
ATOM     12  O   UNL     1      -2.567  -5.986  -5.338  0.00  0.00    -0.267 OA
ATOM     13  H   UNL     1      -1.980  -9.459   0.005  0.00  0.00    -0.086 HD
ATOM     14  H   UNL     1      -1.555  -8.097   0.827  0.00  0.00    -0.086 HD
ENDROOT
BRANCH  11  15
ATOM     15  C   UNL     1      -2.466  -3.662  -5.357  0.00  0.00    +0.190 A 
ATOM     16  C   UNL     1      -2.161  -3.470  -6.687  0.00  0.00    +0.055 A 
ATOM     17  C   UNL     1      -2.056  -2.089  -6.882  0.00  0.00    +0.050 A 
ATOM     18  C   UNL     1      -2.299  -1.494  -5.677  0.00  0.00    +0.136 A 
ATOM     19  O   UNL     1      -2.550  -2.450  -4.768  0.00  0.00    -0.450 OA
BRANCH  18  20
ATOM     20  C   UNL     1      -2.292  -0.040  -5.418  0.00  0.00    +0.017 A 
ATOM     21  C   UNL     1      -2.026   0.855  -6.457  0.00  0.00    +0.014 A 
ATOM     22  C   UNL     1      -2.021   2.212  -6.209  0.00  0.00    +0.039 A 
ATOM     23  C   UNL     1      -2.279   2.687  -4.933  0.00  0.00    +0.123 A 
ATOM     24  C   UNL     1      -2.543   1.803  -3.898  0.00  0.00    +0.039 A 
ATOM     25  C   UNL     1      -2.556   0.445  -4.135  0.00  0.00    +0.014 A 
ATOM     26  F   UNL     1      -2.273   4.017  -4.696  0.00  0.00    -0.205 F 
ENDBRANCH  18  20
ENDBRANCH  11  15
BRANCH   1  28
ATOM     27  N   UNL     1      -0.482  -3.659   0.147  0.00  0.00    -0.313 N 
ATOM     28  C   UNL     1      -1.055  -3.873  -1.054  0.00  0.00    +0.218 C 
ATOM     29  O   UNL     1      -0.421  -3.685  -2.071  0.00  0.00    -0.275 OA
ATOM     30  H   UNL     1      -0.989  -3.810   0.960  0.00  0.00    +0.149 HD
BRANCH  27  31
ATOM     31  C   UNL     1       0.907  -3.200   0.225  0.00  0.00    +0.132 C 
BRANCH  31  32
ATOM     32  C   UNL     1       1.309  -3.038   1.692  0.00  0.00    +0.178 C 
BRANCH  32  34
ATOM     33  C   UNL     1       1.659  -4.274   3.715  0.00  0.00    +0.194 C 
ATOM     34  O   UNL     1       1.296  -4.314   2.333  0.00  0.00    -0.381 OA
ENDBRANCH  32  34
ENDBRANCH  31  32
ENDBRANCH  27  31
ENDBRANCH   1  28
TORSDOF 6
