REMARK  Name = ZINC67267226
REMARK  4 active torsions:
REMARK  status: ('A' for Active; 'I' for Inactive)
REMARK    1  A    between atoms: C_1  and  C_2
REMARK    2  A    between atoms: C_2  and  C_3
REMARK    3  A    between atoms: C_2  and  N_4
REMARK    4  A    between atoms: C_10  and  C_12
REMARK                            x       y       z     vdW  Elec       q    Type
REMARK                         _______ _______ _______ _____ _____    ______ ____
ROOT
ATOM      1  C   UNL     1       1.037  -4.031   4.651  0.00  0.00    +0.075 C 
ATOM      2  C   UNL     1       0.133  -4.556   3.534  0.00  0.00    +0.015 C 
ATOM      3  C   UNL     1       0.243  -6.081   3.463  0.00  0.00    +0.036 C 
ATOM      4  C   UNL     1      -0.169  -6.686   4.801  0.00  0.00    +0.112 C 
ATOM      5  C   UNL     1       0.708  -6.152   5.928  0.00  0.00    +0.036 C 
ATOM      6  C   UNL     1       0.595  -4.627   5.989  0.00  0.00    +0.015 C 
ATOM      7  C   UNL     1      -1.626  -6.398   5.084  0.00  0.00    +0.244 C 
ATOM      8  O   UNL     1      -2.147  -5.311   5.213  0.00  0.00    -0.273 OA
ATOM      9  N   UNL     1      -2.223  -7.605   5.161  0.00  0.00    -0.238 N 
ATOM     10  C   UNL     1      -1.350  -8.601   4.968  0.00  0.00    +0.307 C 
ATOM     11  O   UNL     1      -1.651  -9.778   4.990  0.00  0.00    -0.252 OA
ATOM     12  N   UNL     1      -0.100  -8.152   4.745  0.00  0.00    -0.285 N 
ATOM     13  H   UNL     1      -3.169  -7.735   5.336  0.00  0.00    +0.159 HD
ATOM     14  H   UNL     1       0.690  -8.690   4.580  0.00  0.00    +0.151 HD
ENDROOT
BRANCH   1  21
ATOM     15  N   UNL     1       3.785  -0.217   2.937  0.00  0.00    -0.297 NA
ATOM     16  C   UNL     1       3.983  -1.661   3.115  0.00  0.00    +0.103 C 
ATOM     17  C   UNL     1       2.641  -2.382   2.954  0.00  0.00    +0.123 C 
ATOM     18  N   UNL     1       1.668  -1.770   3.872  0.00  0.00    -0.299 N 
ATOM     19  C   UNL     1       1.513  -0.307   3.847  0.00  0.00    +0.123 C 
ATOM     20  C   UNL     1       2.900   0.332   3.973  0.00  0.00    +0.103 C 
ATOM     21  C   UNL     1       0.939  -2.529   4.713  0.00  0.00    +0.219 C 
ATOM     22  O   UNL     1       0.202  -2.002   5.520  0.00  0.00    -0.275 OA
BRANCH  15  24
ATOM     23  C   UNL     1       5.963  -0.106   1.823  0.00  0.00    +0.024 C 
ATOM     24  C   UNL     1       5.071   0.492   2.913  0.00  0.00    +0.051 C 
ATOM     25  C   UNL     1       4.831   1.974   2.619  0.00  0.00    +0.024 C 
ENDBRANCH  15  24
ENDBRANCH   1  21
TORSDOF 2
