REMARK  Name = ZINC34968245
REMARK  8 active torsions:
REMARK  status: ('A' for Active; 'I' for Inactive)
REMARK    1  A    between atoms: C_1  and  C_2
REMARK    2  A    between atoms: C_2  and  O_3
REMARK    3  A    between atoms: O_3  and  C_4
REMARK    4  A    between atoms: C_4  and  C_6
REMARK    5  A    between atoms: C_10  and  N_11
REMARK    6  A    between atoms: C_12  and  C_14
REMARK    7  A    between atoms: C_17  and  C_19
REMARK    8  A    between atoms: C_22  and  N_26
REMARK                            x       y       z     vdW  Elec       q    Type
REMARK                         _______ _______ _______ _____ _____    ______ ____
ROOT
ATOM      1  N   UNL     1       3.743  -2.425   1.393  0.00  0.00    -0.273 N 
ATOM      2  C   UNL     1       5.046  -2.735   1.542  0.00  0.00    +0.284 C 
ATOM      3  O   UNL     1       5.446  -3.195   2.596  0.00  0.00    -0.266 OA
ATOM      4  H   UNL     1       3.425  -2.059   0.553  0.00  0.00    +0.156 HD
ENDROOT
BRANCH   1   9
ATOM      5  C   UNL     1       1.496  -2.371   2.467  0.00  0.00    +0.091 A 
ATOM      6  C   UNL     1       0.787  -2.682   3.696  0.00  0.00    -0.021 A 
ATOM      7  C   UNL     1       1.570  -3.188   4.673  0.00  0.00    -0.004 A 
ATOM      8  S   UNL     1       3.191  -3.243   3.966  0.00  0.00    -0.077 S 
ATOM      9  C   UNL     1       2.859  -2.629   2.439  0.00  0.00    +0.087 A 
ATOM     10  C   UNL     1       1.140  -3.603   6.046  0.00  0.00    +0.043 C 
ATOM     11  C   UNL     1      -0.255  -3.018   6.312  0.00  0.00    +0.005 C 
ATOM     12  C   UNL     1      -1.153  -3.311   5.107  0.00  0.00    +0.005 C 
ATOM     13  C   UNL     1      -0.705  -2.473   3.908  0.00  0.00    +0.037 C 
BRANCH   5  14
ATOM     14  C   UNL     1       0.801  -1.814   1.305  0.00  0.00    +0.342 C 
ATOM     15  O   UNL     1       0.321  -2.557   0.470  0.00  0.00    -0.245 OA
BRANCH  14  16
ATOM     16  O   UNL     1       0.693  -0.477   1.160  0.00  0.00    -0.461 OA
BRANCH  16  18
ATOM     17  C   UNL     1      -0.019   1.526   0.010  0.00  0.00    +0.048 C 
ATOM     18  C   UNL     1       0.002  -0.004   0.002  0.00  0.00    +0.229 C 
ENDBRANCH  16  18
ENDBRANCH  14  16
ENDBRANCH   5  14
ENDBRANCH   1   9
BRANCH   2  19
ATOM     19  C   UNL     1       5.981  -2.519   0.436  0.00  0.00    +0.190 A 
ATOM     20  C   UNL     1       7.331  -2.797   0.452  0.00  0.00    +0.055 A 
ATOM     21  C   UNL     1       7.831  -2.439  -0.804  0.00  0.00    +0.051 A 
ATOM     22  C   UNL     1       6.780  -1.961  -1.533  0.00  0.00    +0.137 A 
ATOM     23  O   UNL     1       5.670  -2.019  -0.779  0.00  0.00    -0.450 OA
BRANCH  22  24
ATOM     24  C   UNL     1       6.851  -1.467  -2.923  0.00  0.00    +0.036 A 
ATOM     25  C   UNL     1       7.822  -0.531  -3.287  0.00  0.00    +0.015 A 
ATOM     26  C   UNL     1       7.882  -0.074  -4.587  0.00  0.00    +0.033 A 
ATOM     27  C   UNL     1       6.984  -0.541  -5.531  0.00  0.00    +0.128 A 
ATOM     28  C   UNL     1       6.019  -1.467  -5.179  0.00  0.00    +0.053 A 
ATOM     29  C   UNL     1       5.950  -1.938  -3.882  0.00  0.00    +0.054 A 
ATOM     30 CL   UNL     1       4.744  -3.107  -3.443  0.00  0.00    -0.083 Cl
BRANCH  27  31
ATOM     31  N   UNL     1       7.055  -0.045  -6.924  0.00  0.00    +0.056 N 
ATOM     32  O   UNL     1       7.897   0.765  -7.235  0.00  0.00    -0.126 OA
ATOM     33  O   UNL     1       6.272  -0.451  -7.751  0.00  0.00    -0.126 OA
ENDBRANCH  27  31
ENDBRANCH  22  24
ENDBRANCH   2  19
TORSDOF 7
