REMARK  Name = ZINC12997926
REMARK  8 active torsions:
REMARK  status: ('A' for Active; 'I' for Inactive)
REMARK    1  A    between atoms: C_1  and  C_2
REMARK    2  A    between atoms: C_7  and  C_9
REMARK    3  A    between atoms: C_7  and  C_29
REMARK    4  A    between atoms: C_7  and  N_59
REMARK    5  A    between atoms: C_9  and  N_10
REMARK    6  A    between atoms: C_11  and  C_13
REMARK    7  A    between atoms: C_13  and  N_14
REMARK    8  A    between atoms: C_21  and  C_24
REMARK                            x       y       z     vdW  Elec       q    Type
REMARK                         _______ _______ _______ _____ _____    ______ ____
ROOT
ATOM      1  N   UNL     1      -1.207   1.997  -0.220  0.00  0.00    -0.315 N 
ATOM      2  C   UNL     1       0.002   1.409  -0.309  0.00  0.00    +0.233 C 
ATOM      3  O   UNL     1       0.096   0.202  -0.240  0.00  0.00    -0.274 OA
ATOM      4  H   UNL     1      -1.282   2.963  -0.276  0.00  0.00    +0.149 HD
ENDROOT
BRANCH   1   5
ATOM      5  C   UNL     1      -2.409   1.179  -0.039  0.00  0.00    +0.094 C 
BRANCH   5   6
ATOM      6  C   UNL     1      -3.622   2.090   0.156  0.00  0.00    -0.013 C 
BRANCH   6  13
ATOM      7  C   UNL     1      -3.336   5.125   4.991  0.00  0.00    +0.007 C 
ATOM      8  C   UNL     1      -3.728   4.092   3.933  0.00  0.00    -0.018 C 
ATOM      9  C   UNL     1      -2.502   3.254   3.558  0.00  0.00    -0.015 C 
ATOM     10  C   UNL     1      -2.886   2.264   2.456  0.00  0.00    -0.078 C 
ATOM     11  C   UNL     1      -4.580   3.775   1.607  0.00  0.00    -0.078 C 
ATOM     12  C   UNL     1      -4.247   4.810   2.684  0.00  0.00    -0.015 C 
ATOM     13  N   UNL     1      -3.354   3.018   1.274  0.00  0.00    +0.386 N 
ATOM     14  H   UNL     1      -2.622   3.679   0.990  0.00  0.00    -0.081 HD
ENDBRANCH   6  13
BRANCH   6  15
ATOM     15  C   UNL     1      -4.839   1.250   0.446  0.00  0.00    -0.022 A 
ATOM     16  C   UNL     1      -5.838   0.876  -0.391  0.00  0.00    +0.009 A 
ATOM     17  C   UNL     1      -6.865   0.091   0.098  0.00  0.00    +0.008 A 
ATOM     18  C   UNL     1      -6.849  -0.273   1.404  0.00  0.00    +0.045 A 
ATOM     19  S   UNL     1      -5.345   0.496   1.983  0.00  0.00    -0.103 S 
ENDBRANCH   6  15
ENDBRANCH   5   6
ENDBRANCH   1   5
BRANCH   2  20
ATOM     20  C   UNL     1       1.237   2.251  -0.502  0.00  0.00    +0.221 C 
BRANCH  20  21
ATOM     21  N   UNL     1       2.414   1.382  -0.575  0.00  0.00    -0.290 N 
ATOM     22  C   UNL     1       2.819   0.909  -1.782  0.00  0.00    +0.203 A 
ATOM     23  N   UNL     1       3.863   0.132  -1.887  0.00  0.00    -0.230 NA
ATOM     24  C   UNL     1       4.565  -0.222  -0.813  0.00  0.00    +0.116 A 
ATOM     25  C   UNL     1       4.222   0.218   0.476  0.00  0.00    +0.080 A 
ATOM     26  C   UNL     1       3.076   1.072   0.555  0.00  0.00    +0.263 A 
ATOM     27  O   UNL     1       2.703   1.508   1.631  0.00  0.00    -0.267 OA
ATOM     28  C   UNL     1       5.093  -0.259   1.544  0.00  0.00    +0.010 A 
ATOM     29  C   UNL     1       6.135  -1.066   1.224  0.00  0.00    +0.057 A 
ATOM     30  S   UNL     1       6.001  -1.229  -0.546  0.00  0.00    -0.076 S 
BRANCH  28  31
ATOM     31  C   UNL     1       4.844   0.128   2.949  0.00  0.00    +0.021 A 
ATOM     32  C   UNL     1       4.760  -0.666   4.061  0.00  0.00    +0.016 A 
ATOM     33  C   UNL     1       4.522  -0.072   5.283  0.00  0.00    +0.008 A 
ATOM     34  C   UNL     1       4.368   1.275   5.344  0.00  0.00    +0.046 A 
ATOM     35  S   UNL     1       4.568   1.753   3.636  0.00  0.00    -0.097 S 
ENDBRANCH  28  31
ENDBRANCH  20  21
ENDBRANCH   2  20
TORSDOF 7
