REMARK  Name = ZINC28535922
REMARK  10 active torsions:
REMARK  status: ('A' for Active; 'I' for Inactive)
REMARK    1  A    between atoms: C_1  and  C_2
REMARK    2  A    between atoms: C_7  and  N_8
REMARK    3  A    between atoms: N_12  and  N_28
REMARK    4  A    between atoms: C_13  and  S_16
REMARK    5  A    between atoms: S_16  and  C_17
REMARK    6  A    between atoms: C_17  and  C_18
REMARK    7  A    between atoms: C_21  and  O_26
REMARK    8  A    between atoms: C_22  and  O_24
REMARK    9  A    between atoms: O_24  and  C_25
REMARK   10  A    between atoms: O_26  and  C_27
REMARK                            x       y       z     vdW  Elec       q    Type
REMARK                         _______ _______ _______ _____ _____    ______ ____
ROOT
ATOM      1  N   UNL     1       2.401   1.109  -0.015  0.00  0.00    -0.293 N 
ATOM      2  C   UNL     1       2.426  -0.284   0.084  0.00  0.00    +0.212 A 
ATOM      3  C   UNL     1       3.663  -0.975   0.170  0.00  0.00    +0.312 A 
ATOM      4  O   UNL     1       4.722  -0.371   0.160  0.00  0.00    -0.262 OA
ATOM      5  N   UNL     1       3.631  -2.325   0.270  0.00  0.00    -0.205 N 
ATOM      6  C   UNL     1       2.418  -2.950   0.270  0.00  0.00    +0.210 A 
ATOM      7  N   UNL     1       1.303  -2.252   0.181  0.00  0.00    -0.121 NA
ATOM      8  N   UNL     1       1.303  -0.970   0.091  0.00  0.00    -0.126 NA
ATOM      9  H   UNL     1       3.333   1.684   0.087  0.00  0.00    +0.154 HD
ENDROOT
BRANCH   1  16
ATOM     10  C   UNL     1       2.199   3.836   0.767  0.00  0.00    +0.045 C 
ATOM     11  C   UNL     1       1.050   3.103   0.125  0.00  0.00    -0.029 A 
ATOM     12  C   UNL     1      -0.147   3.756  -0.100  0.00  0.00    +0.006 A 
ATOM     13  C   UNL     1      -1.202   3.085  -0.690  0.00  0.00    +0.020 A 
ATOM     14  C   UNL     1      -1.062   1.759  -1.062  0.00  0.00    +0.043 A 
ATOM     15  C   UNL     1       0.131   1.099  -0.834  0.00  0.00    +0.043 A 
ATOM     16  C   UNL     1       1.192   1.771  -0.241  0.00  0.00    +0.037 A 
ATOM     17 CL   UNL     1      -2.387   0.923  -1.809  0.00  0.00    -0.083 Cl
ENDBRANCH   1  16
BRANCH   5  18
ATOM     18  N   UNL     1       4.788  -3.045   0.361  0.00  0.00    -0.293 N 
ATOM     19  H   UNL     1       4.749  -4.141   0.441  0.00  0.00    +0.163 HD
ATOM     20  H   UNL     1       5.760  -2.529   0.354  0.00  0.00    +0.163 HD
ENDBRANCH   5  18
BRANCH   6  21
ATOM     21  S   UNL     1       2.341  -4.706   0.389  0.00  0.00    -0.080 S 
BRANCH  21  22
ATOM     22  C   UNL     1       0.548  -4.947   0.342  0.00  0.00    +0.112 C 
BRANCH  22  23
ATOM     23  C   UNL     1       0.235  -6.418   0.434  0.00  0.00    -0.033 A 
ATOM     24  C   UNL     1       0.129  -7.174  -0.719  0.00  0.00    +0.008 A 
ATOM     25  C   UNL     1      -0.152  -8.525  -0.640  0.00  0.00    +0.050 A 
ATOM     26  C   UNL     1      -0.339  -9.123   0.596  0.00  0.00    +0.162 A 
ATOM     27  C   UNL     1      -0.238  -8.361   1.756  0.00  0.00    +0.162 A 
ATOM     28  C   UNL     1       0.050  -7.008   1.670  0.00  0.00    +0.053 A 
BRANCH  27  29
ATOM     29  O   UNL     1      -0.420  -8.943   2.972  0.00  0.00    -0.491 OA
ATOM     30  C   UNL     1      -0.301  -8.100   4.119  0.00  0.00    +0.277 C 
ENDBRANCH  27  29
BRANCH  26  31
ATOM     31  O   UNL     1      -0.621 -10.450   0.675  0.00  0.00    -0.491 OA
ATOM     32  C   UNL     1      -0.710 -11.169  -0.556  0.00  0.00    +0.277 C 
ENDBRANCH  26  31
ENDBRANCH  22  23
ENDBRANCH  21  22
ENDBRANCH   6  21
TORSDOF 7
