REMARK  Name = ZINC36623421
REMARK  12 active torsions:
REMARK  status: ('A' for Active; 'I' for Inactive)
REMARK    1  A    between atoms: C_1  and  C_2
REMARK    2  A    between atoms: C_2  and  C_3
REMARK    3  A    between atoms: C_6  and  C_9
REMARK    4  A    between atoms: C_9  and  C_11
REMARK    5  A    between atoms: C_9  and  N_12
REMARK    6  A    between atoms: C_13  and  C_15
REMARK    7  A    between atoms: C_18  and  O_25
REMARK    8  A    between atoms: C_19  and  O_23
REMARK    9  A    between atoms: C_20  and  O_21
REMARK   10  A    between atoms: O_21  and  C_22
REMARK   11  A    between atoms: O_23  and  C_24
REMARK   12  A    between atoms: O_25  and  C_26
REMARK                            x       y       z     vdW  Elec       q    Type
REMARK                         _______ _______ _______ _____ _____    ______ ____
ROOT
ATOM      1  N   UNL     1      -5.578  -3.005  -1.015  0.00  0.00    -0.305 N 
ATOM      2  C   UNL     1      -6.529  -3.954  -0.909  0.00  0.00    +0.248 C 
ATOM      3  O   UNL     1      -7.256  -3.980   0.066  0.00  0.00    -0.270 OA
ATOM      4  H   UNL     1      -4.998  -2.985  -1.793  0.00  0.00    +0.150 HD
ENDROOT
BRANCH   2   5
ATOM      5  C   UNL     1      -6.689  -4.960  -1.973  0.00  0.00    +0.082 A 
ATOM      6  C   UNL     1      -5.851  -4.936  -3.093  0.00  0.00    +0.020 A 
ATOM      7  C   UNL     1      -6.002  -5.876  -4.086  0.00  0.00    +0.050 A 
ATOM      8  C   UNL     1      -6.986  -6.854  -3.983  0.00  0.00    +0.165 A 
ATOM      9  C   UNL     1      -7.825  -6.888  -2.875  0.00  0.00    +0.204 A 
ATOM     10  C   UNL     1      -7.678  -5.948  -1.865  0.00  0.00    +0.177 A 
BRANCH  10  11
ATOM     11  O   UNL     1      -8.492  -5.982  -0.778  0.00  0.00    -0.491 OA
ATOM     12  C   UNL     1      -9.708  -5.235  -0.856  0.00  0.00    +0.277 C 
ENDBRANCH  10  11
BRANCH   9  13
ATOM     13  O   UNL     1      -8.787  -7.846  -2.779  0.00  0.00    -0.488 OA
ATOM     14  C   UNL     1      -8.422  -9.069  -2.134  0.00  0.00    +0.277 C 
ENDBRANCH   9  13
BRANCH   8  15
ATOM     15  O   UNL     1      -7.127  -7.778  -4.968  0.00  0.00    -0.491 OA
ATOM     16  C   UNL     1      -6.233  -7.685  -6.078  0.00  0.00    +0.277 C 
ENDBRANCH   8  15
ENDBRANCH   2   5
BRANCH   1  17
ATOM     17  C   UNL     1      -5.419  -2.005   0.043  0.00  0.00    +0.100 C 
ATOM     18  C   UNL     1      -6.392  -0.849  -0.198  0.00  0.00    +0.033 C 
BRANCH  17  22
ATOM     19  C   UNL     1      -1.412  -0.526   0.013  0.00  0.00    -0.048 A 
ATOM     20  C   UNL     1      -2.051  -0.766   1.215  0.00  0.00    +0.004 A 
ATOM     21  C   UNL     1      -3.348  -1.244   1.225  0.00  0.00    +0.006 A 
ATOM     22  C   UNL     1      -4.006  -1.482   0.032  0.00  0.00    -0.027 A 
ATOM     23  C   UNL     1      -3.367  -1.241  -1.170  0.00  0.00    +0.006 A 
ATOM     24  C   UNL     1      -2.072  -0.758  -1.179  0.00  0.00    +0.004 A 
BRANCH  19  26
ATOM     25  C   UNL     1      -0.019   1.526   0.010  0.00  0.00    +0.009 C 
ATOM     26  C   UNL     1       0.002  -0.004   0.002  0.00  0.00    +0.032 C 
ENDBRANCH  19  26
ENDBRANCH  17  22
ENDBRANCH   1  17
TORSDOF 7
