REMARK  Name = ZINC54155106
REMARK  6 active torsions:
REMARK  status: ('A' for Active; 'I' for Inactive)
REMARK    1  A    between atoms: C_1  and  C_2
REMARK    2  A    between atoms: C_2  and  C_4
REMARK    3  A    between atoms: C_2  and  C_16
REMARK    4  A    between atoms: C_4  and  N_5
REMARK    5  A    between atoms: C_6  and  C_8
REMARK    6  A    between atoms: N_17  and  O_18
REMARK                            x       y       z     vdW  Elec       q    Type
REMARK                         _______ _______ _______ _____ _____    ______ ____
ROOT
ATOM      1  N   UNL     1      -0.008  -0.140   2.444  0.00  0.00    -0.311 N 
ATOM      2  C   UNL     1       0.457  -0.484   3.661  0.00  0.00    +0.247 C 
ATOM      3  O   UNL     1       1.499  -1.102   3.762  0.00  0.00    -0.270 OA
ATOM      4  H   UNL     1      -0.840   0.353   2.364  0.00  0.00    +0.149 HD
ENDROOT
BRANCH   2   5
ATOM      5  C   UNL     1      -0.300  -0.110   4.873  0.00  0.00    +0.072 A 
ATOM      6  C   UNL     1      -1.500   0.595   4.761  0.00  0.00    +0.017 A 
ATOM      7  C   UNL     1      -2.202   0.940   5.896  0.00  0.00    +0.016 A 
ATOM      8  C   UNL     1      -1.720   0.591   7.147  0.00  0.00    +0.021 A 
ATOM      9  C   UNL     1      -0.532  -0.107   7.268  0.00  0.00    +0.054 A 
ATOM     10  C   UNL     1       0.180  -0.466   6.138  0.00  0.00    +0.137 A 
ATOM     11  F   UNL     1       1.338  -1.152   6.255  0.00  0.00    -0.205 F 
ATOM     12 BR   UNL     1      -2.691   1.070   8.697  0.00  0.00    -0.050 Br
ENDBRANCH   2   5
BRANCH   1  13
ATOM     13  C   UNL     1       0.742  -0.511   1.242  0.00  0.00    +0.115 C 
BRANCH  13  15
ATOM     14  C   UNL     1      -0.019   1.526   0.010  0.00  0.00    +0.017 C 
ATOM     15  C   UNL     1       0.002  -0.004   0.002  0.00  0.00    +0.069 C 
BRANCH  15  16
ATOM     16  C   UNL     1       0.707  -0.490  -1.238  0.00  0.00    +0.136 C 
ATOM     17  N   UNL     1       1.575   0.266  -1.826  0.00  0.00    -0.076 NA
ATOM     18  N   UNL     1       0.428  -1.740  -1.744  0.00  0.00    -0.344 N 
ATOM     19  H   UNL     1      -0.224  -2.307  -1.303  0.00  0.00    +0.144 HD
ATOM     20  H   UNL     1       0.882  -2.053  -2.542  0.00  0.00    +0.144 HD
BRANCH  17  21
ATOM     21  O   UNL     1       2.237  -0.191  -2.991  0.00  0.00    -0.408 OA
ATOM     22  H   UNL     1       2.868   0.443  -3.359  0.00  0.00    +0.328 HD
ENDBRANCH  17  21
ENDBRANCH  15  16
ENDBRANCH  13  15
ENDBRANCH   1  13
TORSDOF 5
