REMARK  Name = ZINC20133640
REMARK  6 active torsions:
REMARK  status: ('A' for Active; 'I' for Inactive)
REMARK    1  A    between atoms: C_4  and  C_7
REMARK    2  A    between atoms: C_10  and  C_13
REMARK    3  A    between atoms: C_13  and  S_14
REMARK    4  A    between atoms: S_14  and  C_15
REMARK    5  A    between atoms: C_20  and  C_30
REMARK    6  A    between atoms: C_33  and  N_36
REMARK                            x       y       z     vdW  Elec       q    Type
REMARK                         _______ _______ _______ _____ _____    ______ ____
ROOT
ATOM      1  C   UNL     1      -0.503  -2.116   0.119  0.00  0.00    +0.211 A 
ATOM      2  N   UNL     1       0.791  -1.998  -0.213  0.00  0.00    -0.187 NA
ATOM      3  C   UNL     1       1.108  -0.734  -0.284  0.00  0.00    +0.219 A 
ATOM      4  N   UNL     1       0.002  -0.004   0.002  0.00  0.00    -0.220 N 
ATOM      5  N   UNL     1      -1.021  -0.915   0.261  0.00  0.00    -0.141 NA
ATOM      6  C   UNL     1      -0.018   1.453   0.010  0.00  0.00    +0.175 C 
ATOM      7  C   UNL     1       1.397   1.991  -0.001  0.00  0.00    +0.041 C 
ATOM      8  C   UNL     1       2.459   1.208  -0.285  0.00  0.00    +0.020 C 
ATOM      9  N   UNL     1       2.318  -0.127  -0.581  0.00  0.00    -0.287 N 
ATOM     10  C   UNL     1       3.861   1.772  -0.282  0.00  0.00    +0.052 C 
ATOM     11  C   UNL     1       3.824   3.245  -0.692  0.00  0.00    +0.014 C 
ATOM     12  C   UNL     1       2.923   3.997   0.294  0.00  0.00    +0.080 C 
ATOM     13  C   UNL     1       1.564   3.355   0.300  0.00  0.00    +0.163 C 
ATOM     14  O   UNL     1       0.590   4.028   0.570  0.00  0.00    -0.292 OA
ATOM     15  H   UNL     1       3.129  -0.711  -1.040  0.00  0.00    +0.155 HD
ENDROOT
BRANCH   6  16
ATOM     16  C   UNL     1      -0.751   1.950  -1.209  0.00  0.00    -0.018 A 
ATOM     17  C   UNL     1      -0.286   1.633  -2.472  0.00  0.00    +0.008 A 
ATOM     18  C   UNL     1      -0.961   2.084  -3.591  0.00  0.00    +0.033 A 
ATOM     19  C   UNL     1      -2.095   2.862  -3.447  0.00  0.00    +0.126 A 
ATOM     20  C   UNL     1      -2.556   3.184  -2.184  0.00  0.00    +0.033 A 
ATOM     21  C   UNL     1      -1.884   2.728  -1.065  0.00  0.00    +0.008 A 
BRANCH  19  22
ATOM     22  N   UNL     1      -2.815   3.350  -4.644  0.00  0.00    +0.056 N 
ATOM     23  O   UNL     1      -3.813   4.035  -4.517  0.00  0.00    -0.126 OA
ATOM     24  O   UNL     1      -2.408   3.066  -5.757  0.00  0.00    -0.126 OA
ENDBRANCH  19  22
ENDBRANCH   6  16
BRANCH   1  25
ATOM     25  S   UNL     1      -1.370  -3.636   0.331  0.00  0.00    -0.080 S 
BRANCH  25  26
ATOM     26  C   UNL     1      -0.117  -4.905   0.000  0.00  0.00    +0.112 C 
BRANCH  26  30
ATOM     27  C   UNL     1      -1.869  -8.782   0.423  0.00  0.00    -0.018 A 
ATOM     28  C   UNL     1      -1.882  -8.140  -0.813  0.00  0.00    +0.009 A 
ATOM     29  C   UNL     1      -1.315  -6.888  -0.944  0.00  0.00    +0.005 A 
ATOM     30  C   UNL     1      -0.735  -6.272   0.149  0.00  0.00    -0.037 A 
ATOM     31  C   UNL     1      -0.714  -6.907   1.378  0.00  0.00    +0.005 A 
ATOM     32  C   UNL     1      -1.282  -8.156   1.521  0.00  0.00    +0.009 A 
BRANCH  27  36
ATOM     33  C   UNL     1      -3.611 -12.639   0.843  0.00  0.00    +0.000 A 
ATOM     34  C   UNL     1      -3.030 -12.022   1.937  0.00  0.00    +0.001 A 
ATOM     35  C   UNL     1      -2.463 -10.771   1.806  0.00  0.00    +0.008 A 
ATOM     36  C   UNL     1      -2.476 -10.128   0.570  0.00  0.00    -0.018 A 
ATOM     37  C   UNL     1      -3.067 -10.752  -0.527  0.00  0.00    +0.008 A 
ATOM     38  C   UNL     1      -3.627 -12.006  -0.387  0.00  0.00    +0.001 A 
ENDBRANCH  27  36
ENDBRANCH  26  30
ENDBRANCH  25  26
ENDBRANCH   1  25
TORSDOF 6
