REMARK  Name = ZINC63900660
REMARK  15 active torsions:
REMARK  status: ('A' for Active; 'I' for Inactive)
REMARK    1  A    between atoms: C_1  and  C_2
REMARK    2  A    between atoms: C_3  and  C_28
REMARK    3  A    between atoms: C_4  and  N_10
REMARK    4  A    between atoms: C_6  and  C_7
REMARK    5  A    between atoms: C_11  and  C_13
REMARK    6  A    between atoms: C_13  and  O_14
REMARK    7  A    between atoms: O_14  and  C_15
REMARK    8  A    between atoms: C_15  and  C_17
REMARK    9  A    between atoms: C_17  and  C_18
REMARK   10  A    between atoms: C_18  and  C_19
REMARK   11  A    between atoms: C_28  and  O_30
REMARK   12  A    between atoms: O_30  and  C_31
REMARK   13  A    between atoms: C_31  and  C_32
REMARK   14  A    between atoms: C_32  and  O_33
REMARK   15  A    between atoms: O_33  and  C_34
REMARK                            x       y       z     vdW  Elec       q    Type
REMARK                         _______ _______ _______ _____ _____    ______ ____
ROOT
ATOM      1  N   UNL     1       0.033  -3.047  -2.112  0.00  0.00    -0.277 N 
ATOM      2  C   UNL     1       0.053  -4.365  -1.832  0.00  0.00    +0.255 C 
ATOM      3  O   UNL     1       0.065  -4.740  -0.679  0.00  0.00    -0.272 OA
ATOM      4  H   UNL     1       0.024  -2.747  -3.035  0.00  0.00    +0.155 HD
ENDROOT
BRANCH   1   8
ATOM      5  C   UNL     1      -0.018   1.503   0.010  0.00  0.00    +0.046 C 
ATOM      6  C   UNL     1       0.002  -0.004   0.002  0.00  0.00    -0.015 A 
ATOM      7  C   UNL     1       0.006  -0.730  -1.182  0.00  0.00    +0.091 A 
ATOM      8  C   UNL     1       0.026  -2.123  -1.086  0.00  0.00    +0.087 A 
ATOM      9  S   UNL     1       0.038  -2.412   0.569  0.00  0.00    -0.068 S 
ATOM     10  C   UNL     1       0.024  -0.732   1.161  0.00  0.00    +0.079 A 
BRANCH  10  11
ATOM     11  C   UNL     1       0.030  -0.250   2.544  0.00  0.00    +0.248 C 
ATOM     12  O   UNL     1       0.016   0.945   2.771  0.00  0.00    -0.270 OA
ATOM     13  N   UNL     1       0.052  -1.130   3.564  0.00  0.00    -0.325 N 
ATOM     14  H   UNL     1       0.064  -2.083   3.382  0.00  0.00    +0.145 HD
ATOM     15  H   UNL     1       0.057  -0.811   4.480  0.00  0.00    +0.145 HD
ENDBRANCH  10  11
BRANCH   7  16
ATOM     16  C   UNL     1      -0.010  -0.058  -2.486  0.00  0.00    +0.342 C 
ATOM     17  O   UNL     1       1.036   0.236  -3.032  0.00  0.00    -0.245 OA
BRANCH  16  18
ATOM     18  O   UNL     1      -1.185   0.234  -3.079  0.00  0.00    -0.459 OA
BRANCH  18  19
ATOM     19  C   UNL     1      -1.127   0.889  -4.347  0.00  0.00    +0.260 C 
BRANCH  19  20
ATOM     20  C   UNL     1      -2.547   1.137  -4.860  0.00  0.00    +0.200 C 
BRANCH  20  21
ATOM     21  O   UNL     1      -3.213   2.055  -3.991  0.00  0.00    -0.380 OA
ATOM     22  C   UNL     1      -4.554   2.356  -4.382  0.00  0.00    +0.194 C 
ENDBRANCH  20  21
ENDBRANCH  19  20
ENDBRANCH  18  19
ENDBRANCH  16  18
ENDBRANCH   7  16
ENDBRANCH   1   8
BRANCH   2  23
ATOM     23  C   UNL     1       0.061  -5.373  -2.952  0.00  0.00    +0.328 C 
BRANCH  23  24
ATOM     24  O   UNL     1       0.082  -6.693  -2.405  0.00  0.00    -0.455 OA
BRANCH  24  25
ATOM     25  C   UNL     1       0.092  -7.714  -3.276  0.00  0.00    +0.308 C 
ATOM     26  O   UNL     1       0.082  -7.495  -4.464  0.00  0.00    -0.251 OA
BRANCH  25  27
ATOM     27  C   UNL     1       0.114  -9.134  -2.772  0.00  0.00    +0.125 C 
BRANCH  27  28
ATOM     28  C   UNL     1       0.121 -10.097  -3.961  0.00  0.00    +0.044 C 
BRANCH  28  29
ATOM     29  C   UNL     1       0.144 -11.518  -3.457  0.00  0.00    -0.041 C 
ATOM     30  C   UNL     1      -0.920 -12.332  -3.273  0.00  0.00    -0.001 A 
ATOM     31  C   UNL     1      -2.362 -12.146  -3.478  0.00  0.00    +0.010 A 
ATOM     32  C   UNL     1      -3.201 -13.169  -3.199  0.00  0.00    +0.001 A 
ATOM     33  C   UNL     1      -2.730 -14.399  -2.718  0.00  0.00    +0.002 A 
ATOM     34  C   UNL     1      -1.420 -14.645  -2.505  0.00  0.00    +0.026 A 
ATOM     35  C   UNL     1      -0.448 -13.640  -2.766  0.00  0.00    +0.043 A 
ATOM     36  N   UNL     1       0.857 -13.634  -2.641  0.00  0.00    -0.380 N 
ATOM     37  C   UNL     1       1.361 -12.323  -3.061  0.00  0.00    +0.144 C 
ATOM     38  H   UNL     1       1.398 -14.375  -2.327  0.00  0.00    +0.160 HD
ENDBRANCH  28  29
ENDBRANCH  27  28
ENDBRANCH  25  27
ENDBRANCH  24  25
ENDBRANCH  23  24
ENDBRANCH   2  23
TORSDOF 13
