REMARK  Name = ZINC13045235
REMARK  8 active torsions:
REMARK  status: ('A' for Active; 'I' for Inactive)
REMARK    1  A    between atoms: C_4  and  C_7
REMARK    2  A    between atoms: C_7  and  C_8
REMARK    3  A    between atoms: C_8  and  N_9
REMARK    4  A    between atoms: C_15  and  C_32
REMARK    5  A    between atoms: C_19  and  S_20
REMARK    6  A    between atoms: S_20  and  C_21
REMARK    7  A    between atoms: C_21  and  C_22
REMARK    8  A    between atoms: C_24  and  C_27
REMARK                            x       y       z     vdW  Elec       q    Type
REMARK                         _______ _______ _______ _____ _____    ______ ____
ROOT
ATOM      1  N   UNL     1       1.170   2.425   0.004  0.00  0.00    -0.287 N 
ATOM      2  C   UNL     1       1.200   3.778   0.010  0.00  0.00    +0.262 A 
ATOM      3  O   UNL     1       2.255   4.385   0.002  0.00  0.00    -0.267 OA
ATOM      4  C   UNL     1      -0.089   4.488   0.026  0.00  0.00    +0.065 A 
ATOM      5  C   UNL     1      -0.157   5.881   0.033  0.00  0.00    +0.016 A 
ATOM      6  C   UNL     1      -1.373   6.502   0.048  0.00  0.00    +0.016 A 
ATOM      7  C   UNL     1      -2.557   5.753   0.056  0.00  0.00    +0.065 A 
ATOM      8  C   UNL     1      -2.512   4.365   0.049  0.00  0.00    +0.043 A 
ATOM      9  C   UNL     1      -1.273   3.717   0.033  0.00  0.00    +0.080 A 
ATOM     10  N   UNL     1      -1.182   2.367   0.021  0.00  0.00    -0.223 NA
ATOM     11  C   UNL     1      -0.022   1.758   0.012  0.00  0.00    +0.173 A 
ENDROOT
BRANCH   7  12
ATOM     12  C   UNL     1      -3.864   6.446   0.073  0.00  0.00    +0.387 C 
ATOM     13  O   UNL     1      -4.893   5.801   0.080  0.00  0.00    -0.241 OA
ATOM     14  O   UNL     1      -3.913   7.792   0.080  0.00  0.00    -0.241 OA
ENDBRANCH   7  12
BRANCH   1  15
ATOM     15  C   UNL     1       2.425   1.670  -0.012  0.00  0.00    +0.132 C 
BRANCH  15  16
ATOM     16  C   UNL     1       2.849   1.415  -1.460  0.00  0.00    +0.057 C 
BRANCH  16  20
ATOM     17  C   UNL     1       6.509  -0.786  -1.505  0.00  0.00    +0.000 A 
ATOM     18  C   UNL     1       5.300  -1.456  -1.497  0.00  0.00    +0.000 A 
ATOM     19  C   UNL     1       4.115  -0.744  -1.482  0.00  0.00    +0.004 A 
ATOM     20  C   UNL     1       4.140   0.638  -1.476  0.00  0.00    -0.046 A 
ATOM     21  C   UNL     1       5.349   1.308  -1.489  0.00  0.00    +0.004 A 
ATOM     22  C   UNL     1       6.534   0.596  -1.498  0.00  0.00    +0.000 A 
ENDBRANCH  16  20
ENDBRANCH  15  16
ENDBRANCH   1  15
BRANCH  11  23
ATOM     23  S   UNL     1       0.002  -0.004   0.002  0.00  0.00    -0.078 S 
BRANCH  23  24
ATOM     24  C   UNL     1      -1.776  -0.343   0.017  0.00  0.00    +0.176 C 
BRANCH  24  25
ATOM     25  C   UNL     1      -2.004  -1.832   0.011  0.00  0.00    +0.238 A 
ATOM     26  N   UNL     1      -2.111  -2.606   1.062  0.00  0.00    -0.190 NA
ATOM     27  C   UNL     1      -2.308  -3.854   0.576  0.00  0.00    +0.209 A 
ATOM     28  N   UNL     1      -2.308  -3.763  -0.731  0.00  0.00    -0.056 NA
ATOM     29  O   UNL     1      -2.140  -2.610  -1.068  0.00  0.00    -0.337 OA
BRANCH  27  30
ATOM     30  C   UNL     1      -2.488  -5.087   1.370  0.00  0.00    +0.060 A 
ATOM     31  C   UNL     1      -2.690  -6.371   0.936  0.00  0.00    +0.019 A 
ATOM     32  C   UNL     1      -2.832  -7.370   1.872  0.00  0.00    +0.008 A 
ATOM     33  C   UNL     1      -2.769  -7.056   3.192  0.00  0.00    +0.046 A 
ATOM     34  S   UNL     1      -2.493  -5.293   3.143  0.00  0.00    -0.093 S 
ENDBRANCH  27  30
ENDBRANCH  24  25
ENDBRANCH  23  24
ENDBRANCH  11  23
TORSDOF 8
