REMARK  Name = ZINC43553967
REMARK  10 active torsions:
REMARK  status: ('A' for Active; 'I' for Inactive)
REMARK    1  A    between atoms: C_1  and  C_2
REMARK    2  A    between atoms: C_7  and  C_39
REMARK    3  A    between atoms: C_12  and  O_30
REMARK    4  A    between atoms: C_14  and  C_16
REMARK    5  A    between atoms: C_16  and  C_17
REMARK    6  A    between atoms: N_19  and  C_20
REMARK    7  A    between atoms: C_20  and  C_21
REMARK    8  A    between atoms: C_33  and  C_36
REMARK    9  A    between atoms: C_36  and  O_37
REMARK   10  A    between atoms: O_37  and  C_38
REMARK                            x       y       z     vdW  Elec       q    Type
REMARK                         _______ _______ _______ _____ _____    ______ ____
ROOT
ATOM      1  C   UNL     1       0.171   1.526  -0.010  0.00  0.00    +0.012 C 
ATOM      2  C   UNL     1       0.162  -0.018  -0.008  0.00  0.00    -0.023 C 
ATOM      3  C   UNL     1      -1.288  -0.490   0.008  0.00  0.00    +0.010 C 
ATOM      4  C   UNL     1      -1.965  -0.040   1.305  0.00  0.00    +0.033 C 
ATOM      5  C   UNL     1      -1.264  -0.694   2.496  0.00  0.00    +0.130 C 
ATOM      6  C   UNL     1       0.213  -0.332   2.538  0.00  0.00    +0.021 C 
ATOM      7  C   UNL     1       0.916  -0.552   1.200  0.00  0.00    +0.006 C 
ATOM      8  C   UNL     1       1.196  -2.052   1.055  0.00  0.00    +0.007 C 
ATOM      9  C   UNL     1       1.975  -2.341  -0.225  0.00  0.00    +0.032 C 
ATOM     10  C   UNL     1       1.134  -1.901  -1.425  0.00  0.00    +0.119 C 
ATOM     11  C   UNL     1       0.859  -0.411  -1.313  0.00  0.00    +0.032 C 
ATOM     12  C   UNL     1       0.909  -1.199   3.608  0.00  0.00    +0.172 C 
ATOM     13  O   UNL     1       0.556  -2.566   3.496  0.00  0.00    -0.348 OA
ATOM     14  C   UNL     1      -0.831  -2.874   3.442  0.00  0.00    +0.276 C 
ATOM     15  O   UNL     1      -1.460  -2.103   2.425  0.00  0.00    -0.345 OA
ATOM     16  C   UNL     1       0.371   1.125   3.014  0.00  0.00    +0.016 C 
ENDROOT
BRANCH  10  17
ATOM     17  O   UNL     1      -0.075  -2.651  -1.482  0.00  0.00    -0.391 OA
ATOM     18  H   UNL     1       0.057  -3.604  -1.570  0.00  0.00    +0.210 HD
ENDBRANCH  10  17
BRANCH  11  19
ATOM     19  C   UNL     1       0.053   0.068  -2.521  0.00  0.00    +0.102 C 
BRANCH  19  20
ATOM     20  C   UNL     1       0.820  -0.223  -3.785  0.00  0.00    +0.214 C 
ATOM     21  O   UNL     1       1.906  -0.761  -3.725  0.00  0.00    -0.276 OA
ATOM     22  N   UNL     1       0.301   0.114  -4.982  0.00  0.00    -0.311 N 
ATOM     23  H   UNL     1      -0.568   0.544  -5.030  0.00  0.00    +0.149 HD
BRANCH  22  24
ATOM     24  C   UNL     1       1.047  -0.169  -6.210  0.00  0.00    +0.139 C 
BRANCH  24  25
ATOM     25  C   UNL     1       0.252   0.303  -7.401  0.00  0.00    -0.027 A 
ATOM     26  C   UNL     1      -0.643  -0.552  -8.015  0.00  0.00    +0.009 A 
ATOM     27  C   UNL     1      -1.375  -0.124  -9.107  0.00  0.00    +0.050 A 
ATOM     28  C   UNL     1      -1.211   1.165  -9.589  0.00  0.00    +0.166 A 
ATOM     29  C   UNL     1      -0.309   2.027  -8.970  0.00  0.00    +0.167 A 
ATOM     30  C   UNL     1       0.416   1.593  -7.872  0.00  0.00    +0.054 A 
ATOM     31  O   UNL     1      -0.332   3.225  -9.623  0.00  0.00    -0.453 OA
ATOM     32  C   UNL     1      -0.952   2.958 -10.895  0.00  0.00    +0.466 C 
ATOM     33  O   UNL     1      -1.799   1.823 -10.630  0.00  0.00    -0.453 OA
ENDBRANCH  24  25
ENDBRANCH  22  24
ENDBRANCH  19  20
ENDBRANCH  11  19
BRANCH  14  34
ATOM     34  C   UNL     1      -1.490  -2.622   4.798  0.00  0.00    +0.220 C 
BRANCH  34  35
ATOM     35  O   UNL     1      -1.334  -1.248   5.155  0.00  0.00    -0.378 OA
ATOM     36  C   UNL     1      -1.917  -0.904   6.414  0.00  0.00    +0.194 C 
ENDBRANCH  34  35
ENDBRANCH  14  34
TORSDOF 7
