REMARK  Name = ZINC41007286
REMARK  3 active torsions:
REMARK  status: ('A' for Active; 'I' for Inactive)
REMARK    1  A    between atoms: C_3  and  N_20
REMARK    2  A    between atoms: C_6  and  N_7
REMARK    3  A    between atoms: C_8  and  C_10
REMARK                            x       y       z     vdW  Elec       q    Type
REMARK                         _______ _______ _______ _____ _____    ______ ____
ROOT
ATOM      1  N   UNL     1      -1.198  -0.721   0.010  0.00  0.00    -0.279 N 
ATOM      2  C   UNL     1      -1.182  -2.064  -0.099  0.00  0.00    +0.284 C 
ATOM      3  O   UNL     1      -0.121  -2.660  -0.113  0.00  0.00    -0.266 OA
ATOM      4  H   UNL     1      -2.043  -0.252   0.098  0.00  0.00    +0.155 HD
ENDROOT
BRANCH   2   5
ATOM      5  C   UNL     1      -2.444  -2.809  -0.201  0.00  0.00    +0.191 A 
ATOM      6  C   UNL     1      -2.549  -4.159  -0.309  0.00  0.00    +0.063 A 
ATOM      7  C   UNL     1      -3.981  -4.449  -0.382  0.00  0.00    +0.022 A 
ATOM      8  C   UNL     1      -4.731  -5.622  -0.499  0.00  0.00    +0.027 A 
ATOM      9  C   UNL     1      -6.096  -5.551  -0.541  0.00  0.00    +0.019 A 
ATOM     10  C   UNL     1      -6.739  -4.322  -0.468  0.00  0.00    +0.019 A 
ATOM     11  C   UNL     1      -6.016  -3.155  -0.352  0.00  0.00    +0.048 A 
ATOM     12  C   UNL     1      -4.627  -3.202  -0.308  0.00  0.00    +0.136 A 
ATOM     13  O   UNL     1      -3.675  -2.255  -0.196  0.00  0.00    -0.450 OA
ATOM     14 BR   UNL     1      -7.114  -7.136  -0.700  0.00  0.00    -0.050 Br
ENDBRANCH   2   5
BRANCH   1  20
ATOM     15  C   UNL     1       1.072  -0.452  -0.767  0.00  0.00    +0.025 A 
ATOM     16  C   UNL     1       2.256   0.259  -0.779  0.00  0.00    +0.034 A 
ATOM     17  C   UNL     1       2.376   1.417  -0.032  0.00  0.00    +0.126 A 
ATOM     18  C   UNL     1       1.313   1.866   0.730  0.00  0.00    +0.034 A 
ATOM     19  C   UNL     1       0.126   1.159   0.746  0.00  0.00    +0.025 A 
ATOM     20  C   UNL     1       0.002  -0.004  -0.004  0.00  0.00    +0.034 A 
BRANCH  17  21
ATOM     21  N   UNL     1       3.647   2.176  -0.046  0.00  0.00    +0.056 N 
ATOM     22  O   UNL     1       4.577   1.784  -0.711  0.00  0.00    -0.126 OA
ATOM     23  O   UNL     1       3.753   3.188   0.606  0.00  0.00    -0.126 OA
ENDBRANCH  17  21
ENDBRANCH   1  20
TORSDOF 3
