REMARK  Name = ZINC36206134
REMARK  15 active torsions:
REMARK  status: ('A' for Active; 'I' for Inactive)
REMARK    1  A    between atoms: C_1  and  C_2
REMARK    2  A    between atoms: C_2  and  C_3
REMARK    3  A    between atoms: C_2  and  O_4
REMARK    4  A    between atoms: O_4  and  C_5
REMARK    5  A    between atoms: C_5  and  C_6
REMARK    6  A    between atoms: C_6  and  C_8
REMARK    7  A    between atoms: C_6  and  O_33
REMARK    8  A    between atoms: C_8  and  N_9
REMARK    9  A    between atoms: N_9  and  C_10
REMARK   10  A    between atoms: N_9  and  C_14
REMARK   11  A    between atoms: C_10  and  C_11
REMARK   12  A    between atoms: C_11  and  O_12
REMARK   13  A    between atoms: O_12  and  C_13
REMARK   14  A    between atoms: C_14  and  C_15
REMARK   15  A    between atoms: C_21  and  C_26
REMARK                            x       y       z     vdW  Elec       q    Type
REMARK                         _______ _______ _______ _____ _____    ______ ____
ROOT
ATOM      1  C   UNL     1      -3.635  -6.003  -0.059  0.00  0.00    +0.094 A 
ATOM      2  N   UNL     1      -3.550  -7.358  -0.048  0.00  0.00    -0.312 N 
ATOM      3  H   UNL     1      -4.107  -7.874  -0.652  0.00  0.00    +0.170 HD
ATOM      4  C   UNL     1      -2.708  -7.999   0.783  0.00  0.00    +0.260 A 
ATOM      5  O   UNL     1      -2.644  -9.217   0.780  0.00  0.00    -0.267 OA
ATOM      6  C   UNL     1      -1.890  -7.230   1.671  0.00  0.00    +0.080 A 
ATOM      7  C   UNL     1      -0.913  -7.686   2.652  0.00  0.00    +0.004 A 
ATOM      8  C   UNL     1      -0.249  -6.761   3.388  0.00  0.00    +0.056 A 
ATOM      9  S   UNL     1      -0.907  -5.214   2.798  0.00  0.00    -0.076 S 
ATOM     10  C   UNL     1      -2.046  -5.837   1.589  0.00  0.00    +0.116 A 
ATOM     11  N   UNL     1      -2.897  -5.274   0.735  0.00  0.00    -0.229 NA
ENDROOT
BRANCH   7  12
ATOM     12  C   UNL     1      -0.650  -9.132   2.842  0.00  0.00    -0.016 A 
ATOM     13  C   UNL     1      -1.712 -10.018   3.021  0.00  0.00    +0.010 A 
ATOM     14  C   UNL     1      -1.462 -11.364   3.196  0.00  0.00    +0.020 A 
ATOM     15  C   UNL     1      -0.160 -11.835   3.195  0.00  0.00    +0.041 A 
ATOM     16  C   UNL     1       0.898 -10.959   3.018  0.00  0.00    +0.020 A 
ATOM     17  C   UNL     1       0.659  -9.612   2.836  0.00  0.00    +0.010 A 
ATOM     18 CL   UNL     1       0.147 -13.529   3.416  0.00  0.00    -0.084 Cl
ENDBRANCH   7  12
BRANCH   1  19
ATOM     19  C   UNL     1      -4.591  -5.328  -1.008  0.00  0.00    -0.003 C 
BRANCH  19  20
ATOM     20  N   UNL     1      -4.400  -3.873  -0.944  0.00  0.00    +0.388 N 
ATOM     21  H   UNL     1      -4.472  -3.566   0.014  0.00  0.00    -0.081 HD
BRANCH  20  22
ATOM     22  C   UNL     1      -3.071  -3.530  -1.470  0.00  0.00    -0.044 C 
BRANCH  22  23
ATOM     23  C   UNL     1      -2.797  -2.044  -1.233  0.00  0.00    +0.124 C 
BRANCH  23  24
ATOM     24  O   UNL     1      -3.667  -1.262  -2.055  0.00  0.00    -0.391 OA
ATOM     25  H   UNL     1      -3.564  -1.424  -3.002  0.00  0.00    +0.210 HD
ENDBRANCH  23  24
BRANCH  23  26
ATOM     26  C   UNL     1      -1.343  -1.731  -1.589  0.00  0.00    +0.189 C 
BRANCH  26  27
ATOM     27  O   UNL     1      -1.054  -0.371  -1.258  0.00  0.00    -0.375 OA
BRANCH  27  29
ATOM     28  C   UNL     1       0.315   1.519  -1.888  0.00  0.00    +0.037 C 
ATOM     29  C   UNL     1       0.287   0.027  -1.552  0.00  0.00    +0.112 C 
ATOM     30  C   UNL     1       1.176  -0.240  -0.336  0.00  0.00    +0.037 C 
ENDBRANCH  27  29
ENDBRANCH  26  27
ENDBRANCH  23  26
ENDBRANCH  22  23
ENDBRANCH  20  22
BRANCH  20  31
ATOM     31  C   UNL     1      -5.432  -3.208  -1.750  0.00  0.00    -0.050 C 
BRANCH  31  32
ATOM     32  C   UNL     1      -6.812  -3.508  -1.161  0.00  0.00    +0.141 C 
BRANCH  32  33
ATOM     33  O   UNL     1      -6.911  -2.924   0.140  0.00  0.00    -0.385 OA
ATOM     34  C   UNL     1      -8.123  -3.241   0.827  0.00  0.00    +0.193 C 
ENDBRANCH  32  33
ENDBRANCH  31  32
ENDBRANCH  20  31
ENDBRANCH  19  20
ENDBRANCH   1  19
TORSDOF 12
