REMARK  Name = ZINC63980243
REMARK  6 active torsions:
REMARK  status: ('A' for Active; 'I' for Inactive)
REMARK    1  A    between atoms: C_1  and  C_2
REMARK    2  A    between atoms: C_8  and  C_11
REMARK    3  A    between atoms: C_11  and  C_12
REMARK    4  A    between atoms: C_12  and  N_13
REMARK    5  A    between atoms: N_13  and  C_14
REMARK    6  A    between atoms: N_19  and  C_22
REMARK                            x       y       z     vdW  Elec       q    Type
REMARK                         _______ _______ _______ _____ _____    ______ ____
ROOT
ATOM      1  N   UNL     1      -1.175  -2.429   5.887  0.00  0.00    +0.387 N 
ATOM      2  H   UNL     1      -0.684  -3.174   6.358  0.00  0.00    -0.085 HD
ATOM      3  H   UNL     1      -0.853  -1.540   6.237  0.00  0.00    -0.085 HD
ENDROOT
BRANCH   1   4
ATOM      4  C   UNL     1      -2.617  -2.560   6.134  0.00  0.00    +0.026 C 
ATOM      5  C   UNL     1      -2.912  -2.550   7.648  0.00  0.00    +0.090 C 
ATOM      6  C   UNL     1      -3.788  -1.330   7.831  0.00  0.00    +0.225 C 
ATOM      7  O   UNL     1      -4.250  -0.950   8.885  0.00  0.00    -0.275 OA
ATOM      8  N   UNL     1      -3.971  -0.737   6.645  0.00  0.00    -0.212 N 
ATOM      9  C   UNL     1      -3.358  -1.346   5.617  0.00  0.00    +0.213 C 
ATOM     10  O   UNL     1      -3.391  -0.983   4.461  0.00  0.00    -0.277 OA
BRANCH   8  11
ATOM     11  C   UNL     1      -4.741   0.423   6.487  0.00  0.00    +0.047 A 
ATOM     12  C   UNL     1      -5.939   0.373   5.787  0.00  0.00    +0.044 A 
ATOM     13  C   UNL     1      -6.697   1.519   5.634  0.00  0.00    +0.044 A 
ATOM     14  C   UNL     1      -6.263   2.715   6.177  0.00  0.00    +0.040 A 
ATOM     15  C   UNL     1      -5.069   2.768   6.876  0.00  0.00    +0.044 A 
ATOM     16  C   UNL     1      -4.311   1.623   7.037  0.00  0.00    +0.044 A 
ATOM     17 CL   UNL     1      -4.527   4.270   7.556  0.00  0.00    -0.083 Cl
ATOM     18 CL   UNL     1      -8.194   1.458   4.758  0.00  0.00    -0.083 Cl
ENDBRANCH   8  11
ENDBRANCH   1   4
BRANCH   1  19
ATOM     19  C   UNL     1      -0.917  -2.510   4.443  0.00  0.00    -0.077 C 
BRANCH  19  20
ATOM     20  C   UNL     1       0.585  -2.374   4.186  0.00  0.00    +0.014 C 
BRANCH  20  28
ATOM     21  C   UNL     1       0.999   2.328   1.117  0.00  0.00    +0.044 C 
ATOM     22  C   UNL     1       1.072   0.833   0.940  0.00  0.00    -0.050 A 
ATOM     23  C   UNL     1       1.313   0.308  -0.337  0.00  0.00    +0.005 A 
ATOM     24  C   UNL     1       1.393  -1.018  -0.578  0.00  0.00    +0.026 A 
ATOM     25  C   UNL     1       1.230  -1.951   0.483  0.00  0.00    +0.043 A 
ATOM     26  N   UNL     1       1.262  -3.262   0.505  0.00  0.00    -0.380 N 
ATOM     27  C   UNL     1       1.031  -3.712   1.881  0.00  0.00    +0.144 C 
ATOM     28  C   UNL     1       0.851  -2.456   2.704  0.00  0.00    -0.043 C 
ATOM     29  C   UNL     1       0.975  -1.422   1.842  0.00  0.00    -0.001 A 
ATOM     30  C   UNL     1       0.910   0.034   2.018  0.00  0.00    +0.013 A 
ATOM     31  H   UNL     1       1.413  -3.837  -0.262  0.00  0.00    +0.160 HD
ENDBRANCH  20  28
ENDBRANCH  19  20
ENDBRANCH   1  19
TORSDOF 5
