REMARK  Name = ZINC13689476
REMARK  6 active torsions:
REMARK  status: ('A' for Active; 'I' for Inactive)
REMARK    1  A    between atoms: C_1  and  N_2
REMARK    2  A    between atoms: N_2  and  C_3
REMARK    3  A    between atoms: C_3  and  N_5
REMARK    4  A    between atoms: C_6  and  C_30
REMARK    5  A    between atoms: C_9  and  C_11
REMARK    6  A    between atoms: C_12  and  C_24
REMARK                            x       y       z     vdW  Elec       q    Type
REMARK                         _______ _______ _______ _____ _____    ______ ____
ROOT
ATOM      1  C   UNL     1       0.780  -5.178  -0.179  0.00  0.00    +0.070 A 
ATOM      2  C   UNL     1       0.418  -6.504   0.070  0.00  0.00    +0.005 A 
ATOM      3  C   UNL     1       1.487  -7.502   0.217  0.00  0.00    +0.008 A 
ATOM      4  C   UNL     1       1.178  -8.843   0.467  0.00  0.00    +0.030 A 
ATOM      5  C   UNL     1       2.193  -9.764   0.602  0.00  0.00    +0.042 A 
ATOM      6  C   UNL     1       3.520  -9.366   0.492  0.00  0.00    +0.022 A 
ATOM      7  C   UNL     1       3.839  -8.048   0.246  0.00  0.00    +0.028 A 
ATOM      8  C   UNL     1       2.830  -7.100   0.106  0.00  0.00    +0.050 A 
ATOM      9  N   UNL     1       3.149  -5.779  -0.140  0.00  0.00    -0.322 N 
ATOM     10  H   UNL     1       4.082  -5.525  -0.213  0.00  0.00    +0.169 HD
ATOM     11  C   UNL     1       2.201  -4.838  -0.288  0.00  0.00    +0.259 A 
ATOM     12  O   UNL     1       2.528  -3.686  -0.509  0.00  0.00    -0.267 OA
ATOM     13 CL   UNL     1       1.813 -11.429   0.911  0.00  0.00    -0.084 Cl
ENDROOT
BRANCH   2  14
ATOM     14  C   UNL     1      -1.002  -6.894   0.182  0.00  0.00    -0.016 A 
ATOM     15  C   UNL     1      -1.772  -6.438   1.255  0.00  0.00    +0.008 A 
ATOM     16  C   UNL     1      -3.098  -6.805   1.353  0.00  0.00    +0.001 A 
ATOM     17  C   UNL     1      -3.666  -7.623   0.392  0.00  0.00    +0.000 A 
ATOM     18  C   UNL     1      -2.909  -8.078  -0.674  0.00  0.00    +0.001 A 
ATOM     19  C   UNL     1      -1.584  -7.714  -0.788  0.00  0.00    +0.008 A 
ENDBRANCH   2  14
BRANCH   1  23
ATOM     20  N   UNL     1      -1.891  -2.922  -1.278  0.00  0.00    -0.196 N 
ATOM     21  C   UNL     1      -1.724  -2.279   0.036  0.00  0.00    +0.139 C 
ATOM     22  C   UNL     1      -0.602  -3.099   0.701  0.00  0.00    +0.087 C 
ATOM     23  C   UNL     1      -0.248  -4.142  -0.336  0.00  0.00    +0.075 C 
ATOM     24  N   UNL     1      -0.995  -3.984  -1.377  0.00  0.00    -0.181 NA
BRANCH  21  25
ATOM     25  C   UNL     1      -2.998  -2.370   0.836  0.00  0.00    +0.010 A 
ATOM     26  C   UNL     1      -3.915  -3.369   0.566  0.00  0.00    +0.008 A 
ATOM     27  C   UNL     1      -5.083  -3.453   1.300  0.00  0.00    +0.000 A 
ATOM     28  C   UNL     1      -5.335  -2.539   2.306  0.00  0.00    +0.003 A 
ATOM     29  C   UNL     1      -4.420  -1.540   2.579  0.00  0.00    +0.039 A 
ATOM     30  C   UNL     1      -3.247  -1.458   1.847  0.00  0.00    +0.128 A 
ATOM     31  F   UNL     1      -2.349  -0.485   2.116  0.00  0.00    -0.205 F 
ENDBRANCH  21  25
BRANCH  20  32
ATOM     32  C   UNL     1      -2.772  -2.548  -2.227  0.00  0.00    +0.153 C 
ATOM     33  S   UNL     1      -3.812  -1.216  -1.953  0.00  0.00    -0.017 S 
BRANCH  32  35
ATOM     34  C   UNL     1      -3.791  -2.816  -4.424  0.00  0.00    +0.127 C 
ATOM     35  N   UNL     1      -2.834  -3.222  -3.392  0.00  0.00    -0.328 N 
ATOM     36  H   UNL     1      -2.244  -3.977  -3.547  0.00  0.00    +0.147 HD
ENDBRANCH  32  35
ENDBRANCH  20  32
ENDBRANCH   1  23
TORSDOF 5
