REMARK  Name = ZINC04777998
REMARK  15 active torsions:
REMARK  status: ('A' for Active; 'I' for Inactive)
REMARK    1  A    between atoms: C_1  and  C_2
REMARK    2  A    between atoms: C_2  and  N_67
REMARK    3  A    between atoms: C_3  and  C_4
REMARK    4  A    between atoms: C_3  and  N_67
REMARK    5  A    between atoms: C_5  and  C_6
REMARK    6  A    between atoms: C_5  and  N_67
REMARK    7  A    between atoms: C_6  and  O_7
REMARK    8  A    between atoms: O_7  and  C_8
REMARK    9  A    between atoms: C_11  and  C_14
REMARK   10  A    between atoms: C_14  and  C_15
REMARK   11  A    between atoms: C_14  and  C_24
REMARK   12  A    between atoms: C_14  and  O_30
REMARK   13  A    between atoms: C_15  and  C_16
REMARK   14  A    between atoms: C_19  and  O_22
REMARK   15  A    between atoms: O_22  and  C_23
REMARK                            x       y       z     vdW  Elec       q    Type
REMARK                         _______ _______ _______ _____ _____    ______ ____
ROOT
ATOM      1  C   UNL     1      -0.326   7.570  -0.804  0.00  0.00    +0.083 C 
ENDROOT
BRANCH   1   2
ATOM      2  C   UNL     1       0.373   6.257  -0.444  0.00  0.00    -0.035 C 
ATOM      3  C   UNL     1       1.052   6.400   0.920  0.00  0.00    -0.013 C 
ATOM      4  C   UNL     1       1.768   5.092   1.269  0.00  0.00    -0.003 C 
ATOM      5  C   UNL     1       2.778   4.763   0.166  0.00  0.00    -0.019 C 
ATOM      6  C   UNL     1       2.048   4.667  -1.176  0.00  0.00    -0.082 C 
ATOM      7  N   UNL     1       1.383   5.950  -1.473  0.00  0.00    +0.383 N 
ATOM      8  H   UNL     1       2.086   6.699  -1.492  0.00  0.00    -0.085 HD
ATOM      9  H   UNL     1       0.925   5.889  -2.390  0.00  0.00    -0.085 HD
ENDBRANCH   1   2
BRANCH   1  13
ATOM     10  C   UNL     1      -2.669   8.895   2.515  0.00  0.00    +0.120 A 
ATOM     11  C   UNL     1      -2.120   9.820   1.638  0.00  0.00    +0.046 A 
ATOM     12  C   UNL     1      -1.363   9.389   0.566  0.00  0.00    +0.010 A 
ATOM     13  C   UNL     1      -1.152   8.037   0.366  0.00  0.00    -0.017 A 
ATOM     14  C   UNL     1      -1.703   7.113   1.235  0.00  0.00    +0.010 A 
ATOM     15  C   UNL     1      -2.456   7.540   2.312  0.00  0.00    +0.046 A 
BRANCH  10  16
ATOM     16  O   UNL     1      -3.415   9.317   3.570  0.00  0.00    -0.494 OA
BRANCH  16  17
ATOM     17  C   UNL     1      -3.949   8.309   4.431  0.00  0.00    +0.210 C 
BRANCH  17  18
ATOM     18  C   UNL     1      -4.753   8.970   5.552  0.00  0.00    -0.037 C 
BRANCH  18  19
ATOM     19  N   UNL     1      -5.913   9.669   4.959  0.00  0.00    +0.382 N 
ATOM     20  H   UNL     1      -5.582  10.282   4.204  0.00  0.00    -0.082 HD
BRANCH  19  22
ATOM     21  C   UNL     1      -7.373   7.747   5.494  0.00  0.00    -0.017 C 
ATOM     22  C   UNL     1      -6.863   8.685   4.398  0.00  0.00    -0.082 C 
ENDBRANCH  19  22
BRANCH  19  23
ATOM     23  C   UNL     1      -6.585  10.492   5.986  0.00  0.00    -0.082 C 
ATOM     24  C   UNL     1      -7.595  11.412   5.296  0.00  0.00    -0.017 C 
ENDBRANCH  19  23
ENDBRANCH  18  19
ENDBRANCH  17  18
ENDBRANCH  16  17
ENDBRANCH  10  16
ENDBRANCH   1  13
BRANCH   1  25
ATOM     25  O   UNL     1       0.654   8.560  -1.121  0.00  0.00    -0.385 OA
ATOM     26  H   UNL     1       0.281   9.420  -1.360  0.00  0.00    +0.211 HD
ENDBRANCH   1  25
BRANCH   1  27
ATOM     27  C   UNL     1      -1.236   7.347  -2.014  0.00  0.00    +0.073 C 
BRANCH  27  28
ATOM     28  C   UNL     1      -0.398   6.992  -3.215  0.00  0.00    -0.044 A 
ATOM     29  C   UNL     1       0.518   7.901  -3.711  0.00  0.00    +0.007 A 
ATOM     30  C   UNL     1       1.292   7.576  -4.808  0.00  0.00    +0.046 A 
ATOM     31  C   UNL     1       1.141   6.340  -5.419  0.00  0.00    +0.120 A 
ATOM     32  C   UNL     1       0.218   5.431  -4.923  0.00  0.00    +0.046 A 
ATOM     33  C   UNL     1      -0.549   5.759  -3.822  0.00  0.00    +0.007 A 
BRANCH  31  34
ATOM     34  O   UNL     1       1.897   6.019  -6.502  0.00  0.00    -0.495 OA
ATOM     35  C   UNL     1       2.828   7.004  -6.958  0.00  0.00    +0.277 C 
ENDBRANCH  31  34
ENDBRANCH  27  28
ENDBRANCH   1  27
TORSDOF 12
