REMARK  Name = ZINC09200297
REMARK  9 active torsions:
REMARK  status: ('A' for Active; 'I' for Inactive)
REMARK    1  A    between atoms: C_1  and  C_2
REMARK    2  A    between atoms: C_2  and  C_3
REMARK    3  A    between atoms: C_3  and  C_4
REMARK    4  A    between atoms: C_4  and  N_5
REMARK    5  A    between atoms: C_9  and  S_31
REMARK    6  A    between atoms: C_13  and  C_14
REMARK    7  A    between atoms: C_14  and  N_66
REMARK    8  A    between atoms: C_18  and  C_20
REMARK    9  A    between atoms: S_31  and  N_34
REMARK                            x       y       z     vdW  Elec       q    Type
REMARK                         _______ _______ _______ _____ _____    ______ ____
ROOT
ATOM      1  N   UNL     1       0.376   3.344   3.750  0.00  0.00    -0.329 N 
ATOM      2  C   UNL     1       0.667   3.049   5.067  0.00  0.00    +0.069 A 
ATOM      3  C   UNL     1       1.260   3.752   6.107  0.00  0.00    +0.030 A 
ATOM      4  C   UNL     1       1.407   3.153   7.340  0.00  0.00    +0.030 A 
ATOM      5  C   UNL     1       0.968   1.853   7.547  0.00  0.00    +0.107 A 
ATOM      6  C   UNL     1       0.383   1.146   6.535  0.00  0.00    +0.058 A 
ATOM      7  C   UNL     1       0.223   1.733   5.277  0.00  0.00    +0.091 A 
ATOM      8  N   UNL     1      -0.309   1.303   4.104  0.00  0.00    -0.234 NA
ATOM      9  C   UNL     1      -0.215   2.244   3.211  0.00  0.00    +0.094 A 
ENDROOT
BRANCH   5  10
ATOM     10  S   UNL     1       1.166   1.107   9.131  0.00  0.00    +0.056 S 
ATOM     11  O   UNL     1       1.251   2.169  10.072  0.00  0.00    -0.153 OA
ATOM     12  O   UNL     1       0.184   0.084   9.224  0.00  0.00    -0.153 OA
BRANCH  10  13
ATOM     13  N   UNL     1       2.639   0.351   9.135  0.00  0.00    -0.204 NA
ATOM     14  H   UNL     1       3.136   0.262   9.964  0.00  0.00    +0.144 HD
ATOM     15  H   UNL     1       3.005  -0.002   8.310  0.00  0.00    +0.144 HD
ENDBRANCH  10  13
ENDBRANCH   5  10
BRANCH   1  16
ATOM     16  C   UNL     1       0.652   4.607   3.062  0.00  0.00    +0.123 C 
BRANCH  16  17
ATOM     17  C   UNL     1      -0.498   5.585   3.310  0.00  0.00    +0.021 C 
BRANCH  17  19
ATOM     18  C   UNL     1      -1.356   7.883   2.831  0.00  0.00    +0.004 C 
ATOM     19  C   UNL     1      -0.266   6.861   2.498  0.00  0.00    -0.002 C 
ENDBRANCH  17  19
ENDBRANCH  16  17
ENDBRANCH   1  16
BRANCH   9  20
ATOM     20  C   UNL     1      -0.696   2.134   1.787  0.00  0.00    -0.002 C 
BRANCH  20  25
ATOM     21  C   UNL     1       1.556   2.199   0.879  0.00  0.00    -0.077 C 
ATOM     22  C   UNL     1       2.146   1.920  -0.515  0.00  0.00    -0.020 C 
ATOM     23  C   UNL     1       1.140   0.964  -1.196  0.00  0.00    -0.013 C 
ATOM     24  C   UNL     1      -0.170   1.222  -0.408  0.00  0.00    -0.037 C 
ATOM     25  N   UNL     1       0.320   1.414   0.962  0.00  0.00    +0.389 N 
ATOM     26  H   UNL     1       0.515   0.501   1.390  0.00  0.00    -0.080 HD
BRANCH  24  27
ATOM     27  C   UNL     1      -1.086   0.030  -0.496  0.00  0.00    -0.057 A 
ATOM     28  C   UNL     1      -0.719  -1.166   0.092  0.00  0.00    +0.006 A 
ATOM     29  C   UNL     1      -1.556  -2.266   0.017  0.00  0.00    +0.049 A 
ATOM     30  C   UNL     1      -2.764  -2.163  -0.652  0.00  0.00    +0.162 A 
ATOM     31  C   UNL     1      -3.133  -0.963  -1.242  0.00  0.00    +0.162 A 
ATOM     32  C   UNL     1      -2.296   0.137  -1.159  0.00  0.00    +0.051 A 
ATOM     33  O   UNL     1      -4.326  -0.873  -1.898  0.00  0.00    -0.488 OA
ATOM     34  C   UNL     1      -5.496  -0.951  -1.082  0.00  0.00    +0.232 C 
ATOM     35  C   UNL     1      -5.876  -2.401  -0.822  0.00  0.00    +0.082 C 
ATOM     36  C   UNL     1      -4.824  -3.138  -0.007  0.00  0.00    +0.232 C 
ATOM     37  O   UNL     1      -3.599  -3.240  -0.735  0.00  0.00    -0.488 OA
ENDBRANCH  24  27
ENDBRANCH  20  25
ENDBRANCH   9  20
TORSDOF 8
