REMARK  Name = ZINC57840360
REMARK  9 active torsions:
REMARK  status: ('A' for Active; 'I' for Inactive)
REMARK    1  A    between atoms: C_1  and  C_2
REMARK    2  A    between atoms: C_2  and  C_4
REMARK    3  A    between atoms: C_2  and  O_16
REMARK    4  A    between atoms: N_6  and  C_7
REMARK    5  A    between atoms: C_10  and  N_13
REMARK    6  A    between atoms: N_13  and  C_14
REMARK    7  A    between atoms: N_13  and  C_15
REMARK    8  A    between atoms: O_16  and  C_17
REMARK    9  A    between atoms: C_17  and  C_19
REMARK                            x       y       z     vdW  Elec       q    Type
REMARK                         _______ _______ _______ _____ _____    ______ ____
ROOT
ATOM      1  C   UNL     1      -0.022   1.535  -0.005  0.00  0.00    +0.062 C 
ATOM      2  C   UNL     1       0.002   0.005  -0.001  0.00  0.00    +0.259 C 
ENDROOT
BRANCH   2   3
ATOM      3  C   UNL     1       0.709  -0.489  -1.237  0.00  0.00    +0.258 C 
ATOM      4  O   UNL     1       0.099  -1.122  -2.073  0.00  0.00    -0.271 OA
ATOM      5  N   UNL     1       2.019  -0.229  -1.413  0.00  0.00    -0.282 N 
ATOM      6  H   UNL     1       2.492   0.333  -0.779  0.00  0.00    +0.155 HD
BRANCH   5   7
ATOM      7  C   UNL     1       2.700  -0.769  -2.513  0.00  0.00    +0.034 A 
ATOM      8  C   UNL     1       4.025  -1.162  -2.384  0.00  0.00    +0.025 A 
ATOM      9  C   UNL     1       4.696  -1.695  -3.467  0.00  0.00    +0.025 A 
ATOM     10  C   UNL     1       4.044  -1.838  -4.685  0.00  0.00    +0.029 A 
ATOM     11  C   UNL     1       2.718  -1.446  -4.814  0.00  0.00    +0.025 A 
ATOM     12  C   UNL     1       2.046  -0.918  -3.729  0.00  0.00    +0.025 A 
BRANCH  10  13
ATOM     13  N   UNL     1       4.723  -2.378  -5.783  0.00  0.00    -0.336 N 
ATOM     14  C   UNL     1       6.084  -2.893  -5.621  0.00  0.00    +0.129 C 
ATOM     15  C   UNL     1       4.072  -2.428  -7.095  0.00  0.00    +0.129 C 
ENDBRANCH  10  13
ENDBRANCH   5   7
ENDBRANCH   2   3
BRANCH   2  16
ATOM     16  O   UNL     1      -1.338  -0.493   0.012  0.00  0.00    -0.448 OA
BRANCH  16  17
ATOM     17  C   UNL     1      -1.900  -0.703   1.219  0.00  0.00    +0.361 C 
ATOM     18  O   UNL     1      -1.271  -0.469   2.232  0.00  0.00    -0.243 OA
BRANCH  17  19
ATOM     19  C   UNL     1      -3.280  -1.215   1.310  0.00  0.00    +0.175 A 
ATOM     20  C   UNL     1      -3.905  -1.442   2.623  0.00  0.00    +0.021 A 
ATOM     21  C   UNL     1      -3.248  -1.193   3.823  0.00  0.00    +0.011 A 
ATOM     22  C   UNL     1      -3.901  -1.431   5.014  0.00  0.00    +0.001 A 
ATOM     23  C   UNL     1      -5.203  -1.915   5.027  0.00  0.00    +0.001 A 
ATOM     24  C   UNL     1      -5.872  -2.169   3.849  0.00  0.00    +0.014 A 
ATOM     25  C   UNL     1      -5.231  -1.935   2.637  0.00  0.00    +0.050 A 
ATOM     26  C   UNL     1      -5.870  -2.178   1.336  0.00  0.00    +0.272 A 
ATOM     27  O   UNL     1      -7.009  -2.602   1.271  0.00  0.00    -0.266 OA
ATOM     28  N   UNL     1      -5.164  -1.921   0.215  0.00  0.00    -0.242 N 
ATOM     29  H   UNL     1      -5.589  -2.082  -0.642  0.00  0.00    +0.192 HD
ATOM     30  N   UNL     1      -3.967  -1.470   0.222  0.00  0.00    -0.164 NA
ENDBRANCH  17  19
ENDBRANCH  16  17
ENDBRANCH   2  16
TORSDOF 6
