REMARK  Name = ZINC12217201
REMARK  6 active torsions:
REMARK  status: ('A' for Active; 'I' for Inactive)
REMARK    1  A    between atoms: C_7  and  C_11
REMARK    2  A    between atoms: C_11  and  C_12
REMARK    3  A    between atoms: C_12  and  N_58
REMARK    4  A    between atoms: C_13  and  N_58
REMARK    5  A    between atoms: N_24  and  C_27
REMARK    6  A    between atoms: C_27  and  C_28
REMARK                            x       y       z     vdW  Elec       q    Type
REMARK                         _______ _______ _______ _____ _____    ______ ____
ROOT
ATOM      1  C   UNL     1       6.090   3.361  -2.839  0.00  0.00    -0.067 C 
ATOM      2  C   UNL     1       7.386   2.547  -2.813  0.00  0.00    -0.011 C 
ATOM      3  C   UNL     1       7.768   2.132  -4.234  0.00  0.00    +0.035 C 
ATOM      4  C   UNL     1       7.792   3.373  -5.122  0.00  0.00    -0.023 A 
ATOM      5  C   UNL     1       7.158   4.506  -4.738  0.00  0.00    -0.006 A 
ATOM      6  S   UNL     1       7.444   5.667  -6.050  0.00  0.00    -0.073 S 
ATOM      7  C   UNL     1       8.409   4.635  -7.107  0.00  0.00    +0.116 A 
ATOM      8  C   UNL     1       8.478   3.413  -6.401  0.00  0.00    +0.076 A 
ATOM      9  C   UNL     1       9.214   2.345  -7.017  0.00  0.00    +0.263 A 
ATOM     10  O   UNL     1       9.333   1.252  -6.491  0.00  0.00    -0.267 OA
ATOM     11  N   UNL     1       9.766   2.631  -8.220  0.00  0.00    -0.294 N 
ATOM     12  C   UNL     1       9.646   3.838  -8.822  0.00  0.00    +0.203 A 
ATOM     13  N   UNL     1       8.981   4.840  -8.289  0.00  0.00    -0.230 NA
ATOM     14  C   UNL     1       6.381   4.727  -3.477  0.00  0.00    +0.027 C 
ENDROOT
BRANCH   1  15
ATOM     15  N   UNL     1       5.606   3.552  -1.459  0.00  0.00    +0.381 N 
ATOM     16  H   UNL     1       5.822   2.715  -0.905  0.00  0.00    -0.086 HD
ATOM     17  H   UNL     1       6.074   4.367  -1.045  0.00  0.00    -0.086 HD
BRANCH  15  18
ATOM     18  C   UNL     1       4.148   3.775  -1.453  0.00  0.00    -0.077 C 
BRANCH  18  19
ATOM     19  C   UNL     1       3.675   3.969  -0.011  0.00  0.00    +0.018 C 
BRANCH  19  26
ATOM     20  C   UNL     1      -0.013   1.076   0.008  0.00  0.00    +0.001 A 
ATOM     21  C   UNL     1      -1.227   1.748   0.017  0.00  0.00    +0.002 A 
ATOM     22  C   UNL     1      -1.268   3.125   0.030  0.00  0.00    +0.026 A 
ATOM     23  C   UNL     1      -0.082   3.852   0.023  0.00  0.00    +0.047 A 
ATOM     24  C   UNL     1       1.146   3.166   0.008  0.00  0.00    +0.003 A 
ATOM     25  C   UNL     1       1.164   1.770   0.000  0.00  0.00    +0.010 A 
ATOM     26  C   UNL     1       2.186   4.198   0.004  0.00  0.00    -0.024 A 
ATOM     27  C   UNL     1       1.560   5.385   0.016  0.00  0.00    +0.087 A 
ATOM     28  N   UNL     1       0.205   5.198   0.027  0.00  0.00    -0.360 N 
ATOM     29  H   UNL     1      -0.456   5.909   0.036  0.00  0.00    +0.165 HD
ENDBRANCH  19  26
ENDBRANCH  18  19
ENDBRANCH  15  18
ENDBRANCH   1  15
BRANCH  11  30
ATOM     30  C   UNL     1      10.530   1.583  -8.903  0.00  0.00    +0.161 C 
BRANCH  30  31
ATOM     31  C   UNL     1       9.608   0.783  -9.786  0.00  0.00    -0.025 A 
ATOM     32  C   UNL     1       8.972  -0.338  -9.285  0.00  0.00    +0.005 A 
ATOM     33  C   UNL     1       8.121  -1.070 -10.092  0.00  0.00    +0.003 A 
ATOM     34  C   UNL     1       7.914  -0.688 -11.404  0.00  0.00    +0.038 A 
ATOM     35  C   UNL     1       8.555   0.431 -11.909  0.00  0.00    +0.124 A 
ATOM     36  C   UNL     1       9.402   1.167 -11.097  0.00  0.00    +0.043 A 
ATOM     37  F   UNL     1       8.353   0.804 -13.191  0.00  0.00    -0.205 F 
ENDBRANCH  30  31
ENDBRANCH  11  30
TORSDOF 6
