REMARK  Name = ZINC12556823
REMARK  9 active torsions:
REMARK  status: ('A' for Active; 'I' for Inactive)
REMARK    1  A    between atoms: C_1  and  C_2
REMARK    2  A    between atoms: C_2  and  C_4
REMARK    3  A    between atoms: C_2  and  N_14
REMARK    4  A    between atoms: C_15  and  C_17
REMARK    5  A    between atoms: C_20  and  S_23
REMARK    6  A    between atoms: S_23  and  N_26
REMARK    7  A    between atoms: N_26  and  C_27
REMARK    8  A    between atoms: N_26  and  O_28
REMARK    9  A    between atoms: O_28  and  C_29
REMARK                            x       y       z     vdW  Elec       q    Type
REMARK                         _______ _______ _______ _____ _____    ______ ____
ROOT
ATOM      1  N   UNL     1       2.429  -2.812  -0.037  0.00  0.00    -0.302 N 
ATOM      2  C   UNL     1       1.250  -2.160  -0.022  0.00  0.00    +0.245 C 
ATOM      3  O   UNL     1       0.208  -2.788  -0.016  0.00  0.00    -0.270 OA
ATOM      4  H   UNL     1       3.260  -2.312  -0.042  0.00  0.00    +0.150 HD
ENDROOT
BRANCH   2   5
ATOM      5  C   UNL     1       1.222  -0.682  -0.013  0.00  0.00    +0.037 A 
ATOM      6  C   UNL     1       0.002  -0.004   0.002  0.00  0.00    +0.015 A 
ATOM      7  C   UNL     1      -0.017   1.375   0.010  0.00  0.00    +0.029 A 
ATOM      8  C   UNL     1       1.170   2.086   0.002  0.00  0.00    +0.108 A 
ATOM      9  C   UNL     1       2.383   1.420  -0.013  0.00  0.00    +0.029 A 
ATOM     10  C   UNL     1       2.416   0.041  -0.021  0.00  0.00    +0.015 A 
BRANCH   8  11
ATOM     11  S   UNL     1       1.137   3.848   0.011  0.00  0.00    +0.082 S 
ATOM     12  O   UNL     1       2.370   4.280  -0.549  0.00  0.00    -0.151 OA
ATOM     13  O   UNL     1      -0.120   4.234  -0.526  0.00  0.00    -0.151 OA
BRANCH  11  14
ATOM     14  N   UNL     1       1.143   4.330   1.596  0.00  0.00    -0.058 NA
ATOM     15  C   UNL     1       2.407   4.672   2.253  0.00  0.00    +0.166 C 
BRANCH  14  16
ATOM     16  O   UNL     1      -0.074   4.410   2.315  0.00  0.00    -0.280 OA
ATOM     17  C   UNL     1      -0.433   3.202   2.988  0.00  0.00    +0.223 C 
ENDBRANCH  14  16
ENDBRANCH  11  14
ENDBRANCH   8  11
ENDBRANCH   2   5
BRANCH   1  19
ATOM     18  C   UNL     1       2.327  -4.781  -1.484  0.00  0.00    +0.036 C 
ATOM     19  C   UNL     1       2.456  -4.277  -0.045  0.00  0.00    +0.136 C 
BRANCH  19  20
ATOM     20  C   UNL     1       3.759  -4.759   0.540  0.00  0.00    +0.128 A 
ATOM     21  N   UNL     1       3.948  -5.971   1.127  0.00  0.00    -0.340 N 
ATOM     22  H   UNL     1       3.260  -6.687   1.244  0.00  0.00    +0.167 HD
ATOM     23  C   UNL     1       5.267  -6.030   1.531  0.00  0.00    +0.066 A 
ATOM     24  C   UNL     1       6.040  -6.989   2.173  0.00  0.00    +0.028 A 
ATOM     25  C   UNL     1       7.367  -6.729   2.439  0.00  0.00    +0.002 A 
ATOM     26  C   UNL     1       7.935  -5.518   2.071  0.00  0.00    +0.002 A 
ATOM     27  C   UNL     1       7.190  -4.563   1.438  0.00  0.00    +0.030 A 
ATOM     28  C   UNL     1       5.842  -4.804   1.157  0.00  0.00    +0.089 A 
ATOM     29  N   UNL     1       4.867  -4.077   0.553  0.00  0.00    -0.231 NA
ENDBRANCH  19  20
ENDBRANCH   1  19
TORSDOF 6
