REMARK  Name = ZINC04354030
REMARK  5 active torsions:
REMARK  status: ('A' for Active; 'I' for Inactive)
REMARK    1  A    between atoms: C_6  and  C_10
REMARK    2  A    between atoms: C_14  and  N_16
REMARK    3  A    between atoms: N_16  and  S_17
REMARK    4  A    between atoms: S_17  and  C_20
REMARK    5  A    between atoms: C_24  and  N_26
REMARK                            x       y       z     vdW  Elec       q    Type
REMARK                         _______ _______ _______ _____ _____    ______ ____
ROOT
ATOM      1  C   UNL     1       4.150   3.155  -2.343  0.00  0.00    +0.004 A 
ATOM      2  C   UNL     1       4.161   1.985  -3.100  0.00  0.00    +0.010 A 
ATOM      3  C   UNL     1       3.307   0.948  -2.781  0.00  0.00    +0.002 A 
ATOM      4  C   UNL     1       2.443   1.064  -1.708  0.00  0.00    +0.024 A 
ATOM      5  C   UNL     1       2.422   2.229  -0.951  0.00  0.00    +0.049 A 
ATOM      6  C   UNL     1       3.277   3.275  -1.265  0.00  0.00    +0.034 A 
ENDROOT
BRANCH   1  12
ATOM      7  C   UNL     1       7.530   8.024  -3.128  0.00  0.00    +0.005 A 
ATOM      8  C   UNL     1       8.049   7.276  -4.198  0.00  0.00    +0.018 A 
ATOM      9  C   UNL     1       7.583   6.035  -4.450  0.00  0.00    +0.093 A 
ATOM     10  N   UNL     1       6.603   5.489  -3.673  0.00  0.00    -0.306 N 
ATOM     11  C   UNL     1       5.965   4.280  -3.709  0.00  0.00    +0.121 A 
ATOM     12  C   UNL     1       5.067   4.271  -2.685  0.00  0.00    +0.090 A 
ATOM     13  N   UNL     1       5.149   5.447  -2.042  0.00  0.00    -0.228 NA
ATOM     14  C   UNL     1       6.076   6.194  -2.622  0.00  0.00    +0.138 A 
ATOM     15  C   UNL     1       6.553   7.492  -2.346  0.00  0.00    +0.047 A 
ENDBRANCH   1  12
BRANCH   5  16
ATOM     16  N   UNL     1       1.544   2.344   0.130  0.00  0.00    -0.216 N 
ATOM     17  H   UNL     1       1.879   2.266   1.037  0.00  0.00    +0.174 HD
BRANCH  16  18
ATOM     18  S   UNL     1      -0.068   2.614  -0.138  0.00  0.00    +0.072 S 
ATOM     19  O   UNL     1      -0.672   2.762   1.139  0.00  0.00    -0.150 OA
ATOM     20  O   UNL     1      -0.494   1.634  -1.074  0.00  0.00    -0.150 OA
BRANCH  18  21
ATOM     21  C   UNL     1      -0.207   4.175  -0.945  0.00  0.00    +0.111 A 
ATOM     22  C   UNL     1      -0.186   4.243  -2.326  0.00  0.00    +0.029 A 
ATOM     23  C   UNL     1      -0.296   5.467  -2.959  0.00  0.00    +0.004 A 
ATOM     24  C   UNL     1      -0.427   6.622  -2.211  0.00  0.00    +0.033 A 
ATOM     25  C   UNL     1      -0.449   6.554  -0.831  0.00  0.00    +0.128 A 
ATOM     26  C   UNL     1      -0.344   5.329  -0.198  0.00  0.00    +0.061 A 
BRANCH  25  27
ATOM     27  N   UNL     1      -0.590   7.791  -0.030  0.00  0.00    +0.056 N 
ATOM     28  O   UNL     1      -0.687   8.869  -0.588  0.00  0.00    -0.126 OA
ATOM     29  O   UNL     1      -0.609   7.731   1.186  0.00  0.00    -0.126 OA
ENDBRANCH  25  27
ENDBRANCH  18  21
ENDBRANCH  16  18
ENDBRANCH   5  16
TORSDOF 5
