REMARK  Name = ZINC23133306
REMARK  10 active torsions:
REMARK  status: ('A' for Active; 'I' for Inactive)
REMARK    1  A    between atoms: C_1  and  N_2
REMARK    2  A    between atoms: N_2  and  C_3
REMARK    3  A    between atoms: N_2  and  C_4
REMARK    4  A    between atoms: C_4  and  C_6
REMARK    5  A    between atoms: C_4  and  C_28
REMARK    6  A    between atoms: C_6  and  N_7
REMARK    7  A    between atoms: C_8  and  C_10
REMARK    8  A    between atoms: C_13  and  S_16
REMARK    9  A    between atoms: S_16  and  N_19
REMARK   10  A    between atoms: N_19  and  C_20
REMARK                            x       y       z     vdW  Elec       q    Type
REMARK                         _______ _______ _______ _____ _____    ______ ____
ROOT
ATOM      1  C   UNL     1       2.072   5.029  -2.354  0.00  0.00    +0.037 A 
ATOM      2  C   UNL     1       2.047   3.651  -2.575  0.00  0.00    +0.015 A 
ATOM      3  C   UNL     1       0.919   2.924  -2.252  0.00  0.00    +0.029 A 
ATOM      4  C   UNL     1      -0.185   3.558  -1.712  0.00  0.00    +0.105 A 
ATOM      5  C   UNL     1      -0.169   4.925  -1.496  0.00  0.00    +0.029 A 
ATOM      6  C   UNL     1       0.954   5.662  -1.808  0.00  0.00    +0.015 A 
ENDROOT
BRANCH   1   8
ATOM      7  N   UNL     1       3.298   7.144  -2.483  0.00  0.00    -0.313 N 
ATOM      8  C   UNL     1       3.277   5.813  -2.697  0.00  0.00    +0.244 C 
ATOM      9  O   UNL     1       4.249   5.259  -3.171  0.00  0.00    -0.270 OA
ATOM     10  H   UNL     1       2.418   7.646  -2.053  0.00  0.00    +0.149 HD
BRANCH   7  11
ATOM     11  C   UNL     1       4.492   7.921  -2.822  0.00  0.00    +0.094 C 
BRANCH  11  12
ATOM     12  C   UNL     1       4.210   9.410  -2.606  0.00  0.00    -0.020 C 
BRANCH  12  13
ATOM     13  C   UNL     1       3.121   9.857  -3.546  0.00  0.00    -0.052 A 
ATOM     14  C   UNL     1       1.818   9.981  -3.102  0.00  0.00    +0.009 A 
ATOM     15  C   UNL     1       0.864  10.391  -3.973  0.00  0.00    +0.045 A 
ATOM     16  S   UNL     1       1.802  10.603  -5.477  0.00  0.00    -0.105 S 
ATOM     17  C   UNL     1       3.404  10.138  -4.842  0.00  0.00    +0.047 A 
ENDBRANCH  12  13
BRANCH  12  19
ATOM     18  C   UNL     1       5.212  11.614  -2.621  0.00  0.00    -0.096 C 
ATOM     19  N   UNL     1       5.432  10.183  -2.868  0.00  0.00    +0.382 N 
ATOM     20  C   UNL     1       6.556   9.677  -2.069  0.00  0.00    -0.096 C 
ATOM     21  H   UNL     1       5.689  10.058  -3.930  0.00  0.00    -0.082 HD
ENDBRANCH  12  19
ENDBRANCH  11  12
ENDBRANCH   7  11
ENDBRANCH   1   8
BRANCH   4  22
ATOM     22  S   UNL     1      -1.622   2.623  -1.303  0.00  0.00    +0.059 S 
ATOM     23  O   UNL     1      -1.589   1.454  -2.111  0.00  0.00    -0.153 OA
ATOM     24  O   UNL     1      -2.715   3.530  -1.320  0.00  0.00    -0.153 OA
BRANCH  22  25
ATOM     25  N   UNL     1      -1.449   2.119   0.265  0.00  0.00    -0.185 NA
ATOM     26  H   UNL     1      -1.194   1.069   0.467  0.00  0.00    +0.148 HD
BRANCH  25  27
ATOM     27  C   UNL     1      -1.418   3.103   1.351  0.00  0.00    +0.099 C 
ATOM     28  C   UNL     1      -2.819   3.238   1.968  0.00  0.00    +0.044 C 
ATOM     29  C   UNL     1      -2.735   4.018   3.303  0.00  0.00    +0.167 C 
ATOM     30  S   UNL     1      -1.032   3.635   3.887  0.00  0.00    -0.029 S 
ATOM     31  O   UNL     1      -1.112   2.808   5.040  0.00  0.00    -0.174 OA
ATOM     32  O   UNL     1      -0.280   4.840   3.942  0.00  0.00    -0.174 OA
ATOM     33  C   UNL     1      -0.442   2.625   2.464  0.00  0.00    +0.186 C 
ENDBRANCH  25  27
ENDBRANCH  22  25
ENDBRANCH   4  22
TORSDOF 8
