REMARK  Name = ZINC07060258
REMARK  8 active torsions:
REMARK  status: ('A' for Active; 'I' for Inactive)
REMARK    1  A    between atoms: C_1  and  C_2
REMARK    2  A    between atoms: C_2  and  C_3
REMARK    3  A    between atoms: C_3  and  C_27
REMARK    4  A    between atoms: N_6  and  C_10
REMARK    5  A    between atoms: C_10  and  C_11
REMARK    6  A    between atoms: N_13  and  C_14
REMARK    7  A    between atoms: C_14  and  C_16
REMARK    8  A    between atoms: C_14  and  C_17
REMARK                            x       y       z     vdW  Elec       q    Type
REMARK                         _______ _______ _______ _____ _____    ______ ____
ROOT
ATOM      1  C   UNL     1       2.453   1.438  -0.013  0.00  0.00    +0.213 C 
ENDROOT
BRANCH   1   5
ATOM      2  C   UNL     1      -0.727   3.357   0.027  0.00  0.00    +0.138 C 
ATOM      3  C   UNL     1       0.787   3.284   0.012  0.00  0.00    +0.251 C 
ATOM      4  O   UNL     1       1.565   4.213   0.010  0.00  0.00    -0.272 OA
ATOM      5  N   UNL     1       1.087   1.970   0.002  0.00  0.00    -0.215 N 
ATOM      6  C   UNL     1      -0.014   1.211   0.009  0.00  0.00    +0.310 C 
ATOM      7  O   UNL     1       0.002  -0.004   0.002  0.00  0.00    -0.252 OA
ATOM      8  N   UNL     1      -1.143   1.944   0.018  0.00  0.00    -0.281 N 
ATOM      9  H   UNL     1      -2.052   1.607   0.019  0.00  0.00    +0.152 HD
BRANCH   2  10
ATOM     10  C   UNL     1      -1.236   4.066  -1.202  0.00  0.00    -0.015 A 
ATOM     11  C   UNL     1      -1.432   5.434  -1.179  0.00  0.00    +0.006 A 
ATOM     12  C   UNL     1      -1.894   6.084  -2.308  0.00  0.00    +0.000 A 
ATOM     13  C   UNL     1      -2.169   5.365  -3.457  0.00  0.00    +0.000 A 
ATOM     14  C   UNL     1      -1.979   3.997  -3.477  0.00  0.00    +0.000 A 
ATOM     15  C   UNL     1      -1.512   3.347  -2.350  0.00  0.00    +0.006 A 
ENDBRANCH   2  10
BRANCH   2  17
ATOM     16  C   UNL     1      -0.735   3.291   2.525  0.00  0.00    +0.007 C 
ATOM     17  C   UNL     1      -1.220   4.059   1.294  0.00  0.00    +0.037 C 
ENDBRANCH   2  17
ENDBRANCH   1   5
BRANCH   1  18
ATOM     18  C   UNL     1       2.908   1.264  -1.439  0.00  0.00    +0.231 C 
ATOM     19  O   UNL     1       2.165   1.554  -2.352  0.00  0.00    -0.274 OA
ATOM     20  N   UNL     1       4.140   0.784  -1.699  0.00  0.00    -0.307 N 
ATOM     21  H   UNL     1       4.734   0.552  -0.968  0.00  0.00    +0.149 HD
BRANCH  20  22
ATOM     22  C   UNL     1       4.583   0.614  -3.085  0.00  0.00    +0.100 C 
ATOM     23  C   UNL     1       5.147   1.938  -3.606  0.00  0.00    +0.033 C 
BRANCH  22  24
ATOM     24  C   UNL     1       5.652  -0.446  -3.145  0.00  0.00    -0.027 A 
ATOM     25  C   UNL     1       6.623  -0.508  -2.162  0.00  0.00    +0.006 A 
ATOM     26  C   UNL     1       7.596  -1.484  -2.222  0.00  0.00    +0.004 A 
ATOM     27  C   UNL     1       7.616  -2.398  -3.268  0.00  0.00    -0.044 A 
ATOM     28  C   UNL     1       6.651  -2.335  -4.247  0.00  0.00    -0.044 A 
ATOM     29  C   UNL     1       5.669  -1.354  -4.183  0.00  0.00    +0.009 A 
ATOM     30  C   UNL     1       6.605  -3.298  -5.404  0.00  0.00    +0.035 C 
ATOM     31  C   UNL     1       7.948  -4.006  -5.567  0.00  0.00    +0.005 C 
ATOM     32  C   UNL     1       8.357  -4.586  -4.208  0.00  0.00    +0.005 C 
ATOM     33  C   UNL     1       8.715  -3.428  -3.278  0.00  0.00    +0.035 C 
ENDBRANCH  22  24
ENDBRANCH  20  22
ENDBRANCH   1  18
TORSDOF 6
