REMARK  Name = ZINC05095411
REMARK  10 active torsions:
REMARK  status: ('A' for Active; 'I' for Inactive)
REMARK    1  A    between atoms: C_1  and  C_2
REMARK    2  A    between atoms: C_2  and  O_3
REMARK    3  A    between atoms: O_3  and  C_4
REMARK    4  A    between atoms: C_7  and  C_13
REMARK    5  A    between atoms: C_8  and  O_10
REMARK    6  A    between atoms: O_10  and  C_11
REMARK    7  A    between atoms: C_11  and  C_12
REMARK    8  A    between atoms: C_20  and  N_32
REMARK    9  A    between atoms: C_21  and  C_30
REMARK   10  A    between atoms: C_22  and  C_24
REMARK                            x       y       z     vdW  Elec       q    Type
REMARK                         _______ _______ _______ _____ _____    ______ ____
ROOT
ATOM      1  C   UNL     1      -1.962  -6.004   0.020  0.00  0.00    +0.104 A 
ATOM      2  C   UNL     1      -0.967  -6.979  -0.101  0.00  0.00    +0.054 A 
ATOM      3  C   UNL     1      -1.570  -8.203  -0.071  0.00  0.00    +0.223 A 
ATOM      4  N   UNL     1      -2.898  -8.004   0.063  0.00  0.00    -0.246 N 
ATOM      5  H   UNL     1      -3.577  -8.695   0.112  0.00  0.00    +0.192 HD
ATOM      6  N   UNL     1      -3.124  -6.620   0.125  0.00  0.00    -0.170 NA
ATOM      7  O   UNL     1      -0.875  -9.364  -0.165  0.00  0.00    -0.423 OA
ATOM      8  C   UNL     1       0.463  -9.305  -0.014  0.00  0.00    +0.200 C 
ATOM      9  C   UNL     1       1.173  -8.155  -0.038  0.00  0.00    +0.098 C 
ATOM     10  C   UNL     1       0.523  -6.809  -0.244  0.00  0.00    +0.102 C 
ENDROOT
BRANCH   1  14
ATOM     11  C   UNL     1      -1.344  -1.792   0.064  0.00  0.00    +0.124 A 
ATOM     12  C   UNL     1      -0.557  -2.619   0.855  0.00  0.00    +0.046 A 
ATOM     13  C   UNL     1      -0.755  -3.983   0.843  0.00  0.00    +0.017 A 
ATOM     14  C   UNL     1      -1.747  -4.536   0.036  0.00  0.00    +0.044 A 
ATOM     15  C   UNL     1      -2.540  -3.703  -0.759  0.00  0.00    +0.133 A 
ATOM     16  C   UNL     1      -2.338  -2.333  -0.737  0.00  0.00    +0.092 A 
BRANCH  11  17
ATOM     17  O   UNL     1      -1.145  -0.448   0.080  0.00  0.00    -0.492 OA
BRANCH  17  19
ATOM     18  C   UNL     1      -0.030   1.567   0.814  0.00  0.00    +0.048 C 
ATOM     19  C   UNL     1      -0.104   0.043   0.928  0.00  0.00    +0.225 C 
ENDBRANCH  17  19
ENDBRANCH  11  17
BRANCH  15  20
ATOM     20  O   UNL     1      -3.509  -4.236  -1.548  0.00  0.00    -0.491 OA
BRANCH  20  21
ATOM     21  C   UNL     1      -4.280  -3.325  -2.334  0.00  0.00    +0.226 C 
ATOM     22  C   UNL     1      -5.314  -4.103  -3.150  0.00  0.00    +0.048 C 
ENDBRANCH  20  21
ENDBRANCH  15  20
ENDBRANCH   1  14
BRANCH  10  23
ATOM     23  C   UNL     1       0.846  -6.294  -1.623  0.00  0.00    -0.032 A 
ATOM     24  C   UNL     1       0.434  -6.985  -2.753  0.00  0.00    +0.024 A 
ATOM     25  C   UNL     1       0.749  -6.482  -4.002  0.00  0.00    +0.111 A 
ATOM     26  N   UNL     1       1.432  -5.361  -4.125  0.00  0.00    -0.263 NA
ATOM     27  C   UNL     1       1.839  -4.678  -3.073  0.00  0.00    +0.111 A 
ATOM     28  C   UNL     1       1.556  -5.116  -1.793  0.00  0.00    +0.024 A 
ENDBRANCH  10  23
BRANCH   8  29
ATOM     29  N   UNL     1       1.145 -10.481   0.175  0.00  0.00    -0.328 N 
ATOM     30  H   UNL     1       0.664 -11.323   0.198  0.00  0.00    +0.145 HD
ATOM     31  H   UNL     1       2.109 -10.471   0.287  0.00  0.00    +0.145 HD
ENDBRANCH   8  29
BRANCH   9  32
ATOM     32  C   UNL     1       2.592  -8.216   0.139  0.00  0.00    +0.101 C 
ATOM     33  N   UNL     1       3.719  -8.264   0.279  0.00  0.00    -0.191 NA
ENDBRANCH   9  32
TORSDOF 8
