REMARK  Name = ZINC45605867
REMARK  10 active torsions:
REMARK  status: ('A' for Active; 'I' for Inactive)
REMARK    1  A    between atoms: C_1  and  C_2
REMARK    2  A    between atoms: C_7  and  N_8
REMARK    3  A    between atoms: C_9  and  C_11
REMARK    4  A    between atoms: C_11  and  N_12
REMARK    5  A    between atoms: N_12  and  C_13
REMARK    6  A    between atoms: N_12  and  C_14
REMARK    7  A    between atoms: C_14  and  C_15
REMARK    8  A    between atoms: C_15  and  C_17
REMARK    9  A    between atoms: C_18  and  N_29
REMARK   10  A    between atoms: N_19  and  C_26
REMARK                            x       y       z     vdW  Elec       q    Type
REMARK                         _______ _______ _______ _____ _____    ______ ____
ROOT
ATOM      1  C   UNL     1      -0.201  -0.378   7.310  0.00  0.00    +0.003 C 
ENDROOT
BRANCH   1   2
ATOM      2  N   UNL     1       0.143  -1.164   6.117  0.00  0.00    +0.388 N 
ATOM      3  C   UNL     1       1.419  -1.857   6.339  0.00  0.00    -0.095 C 
ATOM      4  H   UNL     1      -0.583  -1.843   5.942  0.00  0.00    -0.081 HD
BRANCH   2   5
ATOM      5  C   UNL     1       0.266  -0.270   4.959  0.00  0.00    +0.019 C 
BRANCH   5   7
ATOM      6  N   UNL     1       0.641  -0.475   2.523  0.00  0.00    -0.287 N 
ATOM      7  C   UNL     1       0.497  -1.088   3.715  0.00  0.00    +0.201 C 
ATOM      8  O   UNL     1       0.553  -2.297   3.786  0.00  0.00    -0.278 OA
ATOM      9  H   UNL     1       0.667   0.493   2.475  0.00  0.00    +0.155 HD
BRANCH   6  16
ATOM     10  C   UNL     1      -0.500   0.558   0.130  0.00  0.00    +0.046 C 
ATOM     11  C   UNL     1       0.211  -0.770   0.164  0.00  0.00    -0.028 A 
ATOM     12  C   UNL     1       0.330  -1.520  -0.989  0.00  0.00    +0.020 A 
ATOM     13  C   UNL     1       0.983  -2.740  -0.958  0.00  0.00    +0.018 A 
ATOM     14  C   UNL     1       1.519  -3.211   0.227  0.00  0.00    +0.017 A 
ATOM     15  C   UNL     1       1.404  -2.464   1.383  0.00  0.00    +0.024 A 
ATOM     16  C   UNL     1       0.754  -1.237   1.354  0.00  0.00    +0.036 A 
ATOM     17 BR   UNL     1       1.142  -3.765  -2.539  0.00  0.00    -0.050 Br
ENDBRANCH   6  16
ENDBRANCH   5   7
ENDBRANCH   2   5
ENDBRANCH   1   2
BRANCH   1  18
ATOM     18  C   UNL     1      -0.448  -1.306   8.470  0.00  0.00    +0.155 C 
ATOM     19  O   UNL     1      -0.347  -2.507   8.319  0.00  0.00    -0.294 OA
BRANCH  18  20
ATOM     20  C   UNL     1      -0.796  -0.781   9.733  0.00  0.00    +0.118 A 
ATOM     21  C   UNL     1      -0.913  -1.615  10.859  0.00  0.00    +0.116 A 
ATOM     22  N   UNL     1      -1.252  -1.059  12.059  0.00  0.00    -0.278 N 
ATOM     23  C   UNL     1      -1.473   0.259  12.181  0.00  0.00    +0.331 A 
ATOM     24  O   UNL     1      -1.772   0.704  13.272  0.00  0.00    -0.246 OA
ATOM     25  N   UNL     1      -1.375   1.104  11.142  0.00  0.00    -0.274 N 
ATOM     26  H   UNL     1      -1.544   2.050  11.277  0.00  0.00    +0.173 HD
ATOM     27  C   UNL     1      -1.041   0.656   9.914  0.00  0.00    +0.266 A 
ATOM     28  O   UNL     1      -0.948   1.425   8.976  0.00  0.00    -0.267 OA
BRANCH  22  29
ATOM     29  C   UNL     1      -1.376  -1.920  13.239  0.00  0.00    +0.094 C 
ATOM     30  C   UNL     1      -2.618  -1.742  14.114  0.00  0.00    +0.027 C 
ATOM     31  C   UNL     1      -2.479  -2.980  13.226  0.00  0.00    +0.027 C 
ENDBRANCH  22  29
BRANCH  21  32
ATOM     32  N   UNL     1      -0.693  -2.953  10.753  0.00  0.00    -0.344 N 
ATOM     33  H   UNL     1      -0.538  -3.352   9.883  0.00  0.00    +0.144 HD
ATOM     34  H   UNL     1      -0.691  -3.508  11.549  0.00  0.00    +0.144 HD
ENDBRANCH  21  32
ENDBRANCH  18  20
ENDBRANCH   1  18
TORSDOF 8
