REMARK  Name = ZINC00943656
REMARK  5 active torsions:
REMARK  status: ('A' for Active; 'I' for Inactive)
REMARK    1  A    between atoms: C_5  and  C_8
REMARK    2  A    between atoms: N_9  and  N_10
REMARK    3  A    between atoms: C_11  and  C_13
REMARK    4  A    between atoms: C_13  and  C_14
REMARK    5  A    between atoms: C_14  and  C_15
REMARK                            x       y       z     vdW  Elec       q    Type
REMARK                         _______ _______ _______ _____ _____    ______ ____
ROOT
ATOM      1  N   UNL     1       4.806   1.726  -0.034  0.00  0.00    -0.207 N 
ATOM      2  C   UNL     1       5.960   2.421  -0.041  0.00  0.00    +0.233 C 
ATOM      3  O   UNL     1       5.938   3.633  -0.035  0.00  0.00    -0.274 OA
ATOM      4  H   UNL     1       4.823   0.756  -0.039  0.00  0.00    +0.177 HD
ENDROOT
BRANCH   1   6
ATOM      5  C   UNL     1       2.468   1.735  -0.012  0.00  0.00    +0.141 C 
ATOM      6  N   UNL     1       3.580   2.404  -0.019  0.00  0.00    -0.188 NA
BRANCH   5  11
ATOM      7  C   UNL     1      -0.062   4.508   0.027  0.00  0.00    +0.022 A 
ATOM      8  C   UNL     1      -1.246   3.792   0.035  0.00  0.00    +0.023 A 
ATOM      9  C   UNL     1      -1.226   2.408   0.021  0.00  0.00    +0.060 A 
ATOM     10  C   UNL     1      -0.021   1.732   0.012  0.00  0.00    +0.069 A 
ATOM     11  C   UNL     1       1.178   2.449   0.004  0.00  0.00    +0.033 A 
ATOM     12  C   UNL     1       1.149   3.847   0.012  0.00  0.00    +0.051 A 
ATOM     13 CL   UNL     1       2.632   4.748   0.002  0.00  0.00    -0.083 Cl
ATOM     14 CL   UNL     1       0.002  -0.004   0.002  0.00  0.00    -0.081 Cl
ATOM     15 CL   UNL     1      -2.718   1.520   0.023  0.00  0.00    -0.082 Cl
ENDBRANCH   5  11
ENDBRANCH   1   6
BRANCH   2  16
ATOM     16  C   UNL     1       7.279   1.691  -0.057  0.00  0.00    +0.104 C 
BRANCH  16  17
ATOM     17  C   UNL     1       8.424   2.706  -0.063  0.00  0.00    +0.072 C 
BRANCH  17  18
ATOM     18  C   UNL     1       9.742   1.976  -0.079  0.00  0.00    +0.126 A 
ATOM     19  C   UNL     1      11.004   2.721  -0.087  0.00  0.00    +0.276 A 
ATOM     20  O   UNL     1      11.001   3.938  -0.081  0.00  0.00    -0.266 OA
ATOM     21  N   UNL     1      12.169   2.042  -0.101  0.00  0.00    -0.272 N 
ATOM     22  H   UNL     1      13.037   2.538  -0.106  0.00  0.00    +0.174 HD
ATOM     23  C   UNL     1      12.164   0.695  -0.107  0.00  0.00    +0.343 A 
ATOM     24  O   UNL     1      13.219   0.092  -0.120  0.00  0.00    -0.245 OA
ATOM     25  N   UNL     1      11.008   0.007  -0.100  0.00  0.00    -0.228 N 
ATOM     26  H   UNL     1      11.029  -0.992  -0.109  0.00  0.00    +0.194 HD
ATOM     27  N   UNL     1       9.776   0.672  -0.080  0.00  0.00    -0.169 NA
ENDBRANCH  17  18
ENDBRANCH  16  17
ENDBRANCH   2  16
TORSDOF 5
