REMARK  Name = ZINC09518505
REMARK  6 active torsions:
REMARK  status: ('A' for Active; 'I' for Inactive)
REMARK    1  A    between atoms: C_7  and  N_23
REMARK    2  A    between atoms: C_8  and  C_10
REMARK    3  A    between atoms: N_12  and  C_13
REMARK    4  A    between atoms: C_24  and  C_26
REMARK    5  A    between atoms: C_26  and  C_27
REMARK    6  A    between atoms: C_27  and  C_28
REMARK                            x       y       z     vdW  Elec       q    Type
REMARK                         _______ _______ _______ _____ _____    ______ ____
ROOT
ATOM      1  C   UNL     1       8.515  -5.279   1.225  0.00  0.00    +0.001 A 
ATOM      2  C   UNL     1       9.134  -4.039   1.148  0.00  0.00    +0.004 A 
ATOM      3  C   UNL     1       8.426  -2.922   0.759  0.00  0.00    +0.047 A 
ATOM      4  C   UNL     1       7.077  -3.034   0.441  0.00  0.00    +0.138 A 
ATOM      5  C   UNL     1       6.457  -4.293   0.521  0.00  0.00    +0.042 A 
ATOM      6  C   UNL     1       7.190  -5.412   0.916  0.00  0.00    +0.013 A 
ATOM      7  C   UNL     1       5.059  -4.074   0.128  0.00  0.00    +0.092 A 
ATOM      8  C   UNL     1       4.952  -2.739  -0.150  0.00  0.00    +0.212 A 
ATOM      9  O   UNL     1       6.151  -2.142   0.034  0.00  0.00    -0.448 OA
ENDROOT
BRANCH   8  10
ATOM     10  C   UNL     1       3.732  -2.064  -0.586  0.00  0.00    +0.285 C 
ATOM     11  O   UNL     1       2.682  -2.678  -0.638  0.00  0.00    -0.266 OA
ATOM     12  N   UNL     1       3.768  -0.761  -0.928  0.00  0.00    -0.279 N 
ATOM     13  H   UNL     1       4.616  -0.289  -0.952  0.00  0.00    +0.155 HD
BRANCH  12  14
ATOM     14  C   UNL     1       2.583  -0.088  -1.250  0.00  0.00    +0.037 A 
ATOM     15  C   UNL     1       2.426   1.247  -0.901  0.00  0.00    +0.027 A 
ATOM     16  C   UNL     1       1.257   1.911  -1.217  0.00  0.00    +0.051 A 
ATOM     17  C   UNL     1       0.236   1.247  -1.882  0.00  0.00    +0.162 A 
ATOM     18  C   UNL     1       0.392  -0.088  -2.235  0.00  0.00    +0.164 A 
ATOM     19  C   UNL     1       1.565  -0.754  -1.917  0.00  0.00    +0.072 A 
ATOM     20  O   UNL     1      -0.595  -0.753  -2.896  0.00  0.00    -0.485 OA
ATOM     21  C   UNL     1      -1.899  -0.165  -2.867  0.00  0.00    +0.270 C 
ATOM     22  C   UNL     1      -1.758   1.332  -3.175  0.00  0.00    +0.270 C 
ATOM     23  O   UNL     1      -0.913   1.916  -2.177  0.00  0.00    -0.485 OA
ENDBRANCH  12  14
ENDBRANCH   8  10
BRANCH   7  24
ATOM     24  N   UNL     1       4.051  -5.029   0.053  0.00  0.00    -0.282 N 
ATOM     25  C   UNL     1       4.341  -6.286  -0.336  0.00  0.00    +0.217 C 
ATOM     26  O   UNL     1       5.494  -6.611  -0.526  0.00  0.00    -0.275 OA
ATOM     27  H   UNL     1       3.139  -4.790   0.281  0.00  0.00    +0.155 HD
BRANCH  25  28
ATOM     28  C   UNL     1       3.233  -7.288  -0.534  0.00  0.00    +0.096 C 
BRANCH  28  29
ATOM     29  C   UNL     1       3.829  -8.628  -0.972  0.00  0.00    +0.013 C 
BRANCH  29  30
ATOM     30  C   UNL     1       2.704  -9.645  -1.174  0.00  0.00    -0.011 C 
ATOM     31  C   UNL     1       2.055  -9.990   0.183  0.00  0.00    +0.003 C 
ATOM     32  C   UNL     1       1.734 -11.501   0.076  0.00  0.00    +0.000 C 
ATOM     33  C   UNL     1       2.954 -12.057  -0.699  0.00  0.00    +0.000 C 
ATOM     34  C   UNL     1       3.276 -10.959  -1.734  0.00  0.00    +0.003 C 
ENDBRANCH  29  30
ENDBRANCH  28  29
ENDBRANCH  25  28
ENDBRANCH   7  24
TORSDOF 6
