REMARK  Name = ZINC34734950
REMARK  7 active torsions:
REMARK  status: ('A' for Active; 'I' for Inactive)
REMARK    1  A    between atoms: C_1  and  C_2
REMARK    2  A    between atoms: C_2  and  C_4
REMARK    3  A    between atoms: C_4  and  N_5
REMARK    4  A    between atoms: N_18  and  C_21
REMARK    5  A    between atoms: C_21  and  C_22
REMARK    6  A    between atoms: C_27  and  C_29
REMARK    7  A    between atoms: C_27  and  C_30
REMARK                            x       y       z     vdW  Elec       q    Type
REMARK                         _______ _______ _______ _____ _____    ______ ____
ROOT
ATOM      1  N   UNL     1      -1.740  -0.860   1.517  0.00  0.00    -0.276 N 
ATOM      2  C   UNL     1      -1.233  -1.815   2.317  0.00  0.00    +0.264 A 
ATOM      3  O   UNL     1      -0.480  -2.663   1.868  0.00  0.00    -0.267 OA
ATOM      4  C   UNL     1      -1.589  -1.823   3.704  0.00  0.00    +0.076 A 
ATOM      5  C   UNL     1      -1.164  -2.755   4.746  0.00  0.00    -0.018 A 
ATOM      6  C   UNL     1      -1.645  -2.546   5.991  0.00  0.00    +0.021 A 
ATOM      7  S   UNL     1      -2.677  -1.115   5.850  0.00  0.00    -0.071 S 
ATOM      8  C   UNL     1      -2.461  -0.801   4.116  0.00  0.00    +0.118 A 
ATOM      9  N   UNL     1      -2.927   0.113   3.272  0.00  0.00    -0.208 NA
ATOM     10  C   UNL     1      -2.579   0.099   2.003  0.00  0.00    +0.202 A 
ATOM     11  N   UNL     1      -3.071   1.060   1.155  0.00  0.00    -0.304 N 
ATOM     12  C   UNL     1      -4.238   0.790   0.301  0.00  0.00    +0.089 C 
ATOM     13  C   UNL     1      -5.249   1.927   0.487  0.00  0.00    -0.059 C 
ATOM     14  N   UNL     1      -4.591   3.213   0.225  0.00  0.00    +0.387 N 
ATOM     15  C   UNL     1      -3.542   3.451   1.224  0.00  0.00    -0.059 C 
ATOM     16  C   UNL     1      -2.450   2.392   1.079  0.00  0.00    +0.089 C 
ATOM     17  C   UNL     1      -1.348  -3.370   7.206  0.00  0.00    +0.203 C 
ATOM     18  O   UNL     1      -0.731  -4.592   6.770  0.00  0.00    -0.368 OA
ATOM     19  C   UNL     1       0.337  -4.391   5.840  0.00  0.00    +0.068 C 
ATOM     20  C   UNL     1      -0.219  -3.926   4.491  0.00  0.00    +0.071 C 
ATOM     21  C   UNL     1       1.293  -3.329   6.387  0.00  0.00    +0.041 C 
ATOM     22  C   UNL     1       1.097  -5.705   5.650  0.00  0.00    +0.041 C 
ATOM     23  H   UNL     1      -4.180   3.198  -0.696  0.00  0.00    -0.081 HD
ENDROOT
BRANCH   1  24
ATOM     24  C   UNL     1      -1.380  -0.847   0.097  0.00  0.00    +0.158 C 
BRANCH  24  26
ATOM     25  C   UNL     1       0.016   1.337  -0.212  0.00  0.00    +0.040 C 
ATOM     26  C   UNL     1      -0.049  -0.163  -0.077  0.00  0.00    -0.060 C 
ATOM     27  C   UNL     1       1.053  -0.872  -0.112  0.00  0.00    +0.009 C 
ENDBRANCH  24  26
ENDBRANCH   1  24
BRANCH  14  28
ATOM     28  C   UNL     1      -5.585   4.292   0.295  0.00  0.00    +0.018 C 
BRANCH  28  29
ATOM     29  C   UNL     1      -4.939   5.597  -0.093  0.00  0.00    +0.194 C 
ATOM     30  O   UNL     1      -3.765   5.625  -0.398  0.00  0.00    -0.278 OA
ATOM     31  N   UNL     1      -5.664   6.733  -0.101  0.00  0.00    -0.331 N 
ATOM     32  H   UNL     1      -6.603   6.710   0.143  0.00  0.00    +0.145 HD
ATOM     33  H   UNL     1      -5.248   7.572  -0.351  0.00  0.00    +0.145 HD
ENDBRANCH  28  29
ENDBRANCH  14  28
TORSDOF 4
