REMARK  Name = ZINC05086595
REMARK  16 active torsions:
REMARK  status: ('A' for Active; 'I' for Inactive)
REMARK    1  A    between atoms: C_1  and  N_70
REMARK    2  A    between atoms: C_6  and  O_37
REMARK    3  A    between atoms: C_7  and  O_35
REMARK    4  A    between atoms: C_10  and  C_12
REMARK    5  A    between atoms: C_12  and  C_13
REMARK    6  A    between atoms: C_15  and  O_24
REMARK    7  A    between atoms: C_16  and  O_22
REMARK    8  A    between atoms: C_18  and  N_19
REMARK    9  A    between atoms: O_22  and  C_23
REMARK   10  A    between atoms: O_24  and  C_25
REMARK   11  A    between atoms: C_28  and  O_33
REMARK   12  A    between atoms: C_29  and  O_31
REMARK   13  A    between atoms: O_31  and  C_32
REMARK   14  A    between atoms: O_33  and  C_34
REMARK   15  A    between atoms: O_35  and  C_36
REMARK   16  A    between atoms: O_37  and  C_38
REMARK                            x       y       z     vdW  Elec       q    Type
REMARK                         _______ _______ _______ _____ _____    ______ ____
ROOT
ATOM      1  C   UNL     1      -2.483   7.199  -1.197  0.00  0.00    -0.015 A 
ATOM      2  C   UNL     1      -1.405   7.547  -1.990  0.00  0.00    +0.056 A 
ATOM      3  C   UNL     1      -1.222   6.934  -3.219  0.00  0.00    +0.170 A 
ATOM      4  C   UNL     1      -2.125   5.967  -3.652  0.00  0.00    +0.164 A 
ATOM      5  C   UNL     1      -3.203   5.622  -2.852  0.00  0.00    +0.082 A 
ATOM      6  C   UNL     1      -3.376   6.234  -1.624  0.00  0.00    +0.133 A 
ENDROOT
BRANCH   6   7
ATOM      7  N   UNL     1      -4.525   5.861  -0.768  0.00  0.00    +0.057 N 
ATOM      8  O   UNL     1      -5.615   5.653  -1.269  0.00  0.00    -0.126 OA
ATOM      9  O   UNL     1      -4.379   5.761   0.437  0.00  0.00    -0.126 OA
ENDBRANCH   6   7
BRANCH   4  10
ATOM     10  O   UNL     1      -1.950   5.362  -4.857  0.00  0.00    -0.491 OA
ATOM     11  C   UNL     1      -2.916   4.380  -5.236  0.00  0.00    +0.277 C 
ENDBRANCH   4  10
BRANCH   1  12
ATOM     12  C   UNL     1      -2.680   7.867   0.140  0.00  0.00    +0.027 C 
BRANCH  12  22
ATOM     13  C   UNL     1      -2.950   9.720  -2.085  0.00  0.00    -0.095 C 
ATOM     14  C   UNL     1      -2.397  11.541  -0.585  0.00  0.00    -0.074 C 
ATOM     15  C   UNL     1      -2.700  12.063   0.820  0.00  0.00    +0.017 C 
ATOM     16  C   UNL     1      -2.212  11.077   1.850  0.00  0.00    -0.044 A 
ATOM     17  C   UNL     1      -2.072  11.511   3.162  0.00  0.00    +0.053 A 
ATOM     18  C   UNL     1      -1.633  10.640   4.143  0.00  0.00    +0.162 A 
ATOM     19  C   UNL     1      -1.331   9.323   3.811  0.00  0.00    +0.162 A 
ATOM     20  C   UNL     1      -1.473   8.896   2.502  0.00  0.00    +0.051 A 
ATOM     21  C   UNL     1      -1.914   9.774   1.521  0.00  0.00    -0.054 A 
ATOM     22  C   UNL     1      -2.048   9.260   0.111  0.00  0.00    -0.033 C 
ATOM     23  N   UNL     1      -2.911  10.159  -0.672  0.00  0.00    +0.383 N 
ATOM     24  H   UNL     1      -3.863  10.130  -0.287  0.00  0.00    -0.081 HD
BRANCH  19  25
ATOM     25  O   UNL     1      -0.899   8.459   4.768  0.00  0.00    -0.491 OA
ATOM     26  C   UNL     1      -0.609   7.123   4.352  0.00  0.00    +0.277 C 
ENDBRANCH  19  25
BRANCH  18  27
ATOM     27  O   UNL     1      -1.495  11.070   5.426  0.00  0.00    -0.491 OA
ATOM     28  C   UNL     1      -1.823  12.435   5.692  0.00  0.00    +0.277 C 
ENDBRANCH  18  27
ENDBRANCH  12  22
ENDBRANCH   1  12
BRANCH   3  29
ATOM     29  O   UNL     1      -0.163   7.275  -4.000  0.00  0.00    -0.452 OA
BRANCH  29  30
ATOM     30  C   UNL     1       0.729   8.176  -3.508  0.00  0.00    +0.132 A 
ATOM     31  C   UNL     1       0.581   9.525  -3.793  0.00  0.00    +0.050 A 
ATOM     32  C   UNL     1       1.483  10.443  -3.290  0.00  0.00    +0.053 A 
ATOM     33  C   UNL     1       2.544  10.016  -2.508  0.00  0.00    +0.162 A 
ATOM     34  C   UNL     1       2.698   8.663  -2.225  0.00  0.00    +0.165 A 
ATOM     35  C   UNL     1       1.790   7.744  -2.725  0.00  0.00    +0.095 A 
BRANCH  34  36
ATOM     36  O   UNL     1       3.739   8.242  -1.457  0.00  0.00    -0.491 OA
ATOM     37  C   UNL     1       3.834   6.838  -1.207  0.00  0.00    +0.277 C 
ENDBRANCH  34  36
BRANCH  33  38
ATOM     38  O   UNL     1       3.435  10.920  -2.017  0.00  0.00    -0.491 OA
ATOM     39  C   UNL     1       3.215  12.293  -2.348  0.00  0.00    +0.277 C 
ENDBRANCH  33  38
ENDBRANCH  29  30
ENDBRANCH   3  29
TORSDOF 10
