REMARK  Name = ZINC39653610
REMARK  8 active torsions:
REMARK  status: ('A' for Active; 'I' for Inactive)
REMARK    1  A    between atoms: C_1  and  C_2
REMARK    2  A    between atoms: C_2  and  O_3
REMARK    3  A    between atoms: O_3  and  C_4
REMARK    4  A    between atoms: C_7  and  C_10
REMARK    5  A    between atoms: C_10  and  C_11
REMARK    6  A    between atoms: C_11  and  N_12
REMARK    7  A    between atoms: C_13  and  C_15
REMARK    8  A    between atoms: C_26  and  C_28
REMARK                            x       y       z     vdW  Elec       q    Type
REMARK                         _______ _______ _______ _____ _____    ______ ____
ROOT
ATOM      1  C   UNL     1      -2.476 -10.229   2.575  0.00  0.00    +0.100 C 
ATOM      2  C   UNL     1      -1.324 -10.911   1.803  0.00  0.00    +0.121 C 
ATOM      3  N   UNL     1      -0.338 -11.276   2.846  0.00  0.00    -0.296 N 
ATOM      4  C   UNL     1      -1.163 -11.737   3.989  0.00  0.00    +0.115 C 
ATOM      5  C   UNL     1      -2.369 -10.776   4.008  0.00  0.00    -0.004 C 
ATOM      6  C   UNL     1      -2.118  -9.636   4.991  0.00  0.00    -0.010 C 
ATOM      7  C   UNL     1      -2.071 -10.198   6.415  0.00  0.00    -0.082 C 
ATOM      8  N   UNL     1      -3.343 -10.865   6.721  0.00  0.00    +0.379 N 
ATOM      9  C   UNL     1      -3.532 -12.016   5.831  0.00  0.00    -0.082 C 
ATOM     10  C   UNL     1      -3.640 -11.531   4.383  0.00  0.00    -0.010 C 
ATOM     11  C   UNL     1       1.006 -11.205   2.774  0.00  0.00    +0.248 C 
ATOM     12  O   UNL     1       1.537 -10.711   1.798  0.00  0.00    -0.270 OA
ATOM     13  H   UNL     1      -3.333 -11.180   7.680  0.00  0.00    -0.086 HD
ATOM     14  H   UNL     1      -4.102 -10.213   6.593  0.00  0.00    -0.086 HD
ENDROOT
BRANCH  11  15
ATOM     15  C   UNL     1       1.834 -11.727   3.880  0.00  0.00    +0.055 A 
ATOM     16  C   UNL     1       1.426 -12.860   4.587  0.00  0.00    +0.016 A 
ATOM     17  C   UNL     1       2.203 -13.342   5.619  0.00  0.00    +0.021 A 
ATOM     18  C   UNL     1       3.387 -12.706   5.955  0.00  0.00    +0.042 A 
ATOM     19  C   UNL     1       3.798 -11.582   5.259  0.00  0.00    +0.040 A 
ATOM     20  C   UNL     1       3.032 -11.093   4.220  0.00  0.00    +0.054 A 
ATOM     21 CL   UNL     1       3.552  -9.688   3.342  0.00  0.00    -0.083 Cl
ATOM     22 CL   UNL     1       4.359 -13.320   7.256  0.00  0.00    -0.083 Cl
ENDBRANCH  11  15
BRANCH   1  24
ATOM     23  N   UNL     1      -3.375  -7.925   2.606  0.00  0.00    -0.315 N 
ATOM     24  C   UNL     1      -2.297  -8.733   2.569  0.00  0.00    +0.218 C 
ATOM     25  O   UNL     1      -1.183  -8.255   2.532  0.00  0.00    -0.275 OA
ATOM     26  H   UNL     1      -4.266  -8.307   2.636  0.00  0.00    +0.149 HD
BRANCH  23  27
ATOM     27  C   UNL     1      -3.201  -6.470   2.601  0.00  0.00    +0.109 C 
BRANCH  27  28
ATOM     28  C   UNL     1      -4.572  -5.793   2.647  0.00  0.00    +0.054 C 
BRANCH  28  32
ATOM     29  C   UNL     1      -4.066  -1.549   2.632  0.00  0.00    +0.121 A 
ATOM     30  C   UNL     1      -4.188  -2.239   1.434  0.00  0.00    +0.046 A 
ATOM     31  C   UNL     1      -4.352  -3.611   1.442  0.00  0.00    +0.007 A 
ATOM     32  C   UNL     1      -4.393  -4.296   2.642  0.00  0.00    -0.046 A 
ATOM     33  C   UNL     1      -4.272  -3.611   3.836  0.00  0.00    +0.007 A 
ATOM     34  C   UNL     1      -4.102  -2.240   3.834  0.00  0.00    +0.046 A 
BRANCH  29  35
ATOM     35  O   UNL     1      -3.904  -0.200   2.627  0.00  0.00    -0.492 OA
BRANCH  35  37
ATOM     36  C   UNL     1      -3.688   1.951   1.547  0.00  0.00    +0.048 C 
ATOM     37  C   UNL     1      -3.876   0.445   1.352  0.00  0.00    +0.225 C 
ENDBRANCH  35  37
ENDBRANCH  29  35
ENDBRANCH  28  32
ENDBRANCH  27  28
ENDBRANCH  23  27
ENDBRANCH   1  24
TORSDOF 7
