REMARK  Name = ZINC07606553
REMARK  7 active torsions:
REMARK  status: ('A' for Active; 'I' for Inactive)
REMARK    1  A    between atoms: C_1  and  C_2
REMARK    2  A    between atoms: C_3  and  C_11
REMARK    3  A    between atoms: C_7  and  N_8
REMARK    4  A    between atoms: C_11  and  O_13
REMARK    5  A    between atoms: O_13  and  C_14
REMARK    6  A    between atoms: C_14  and  C_15
REMARK    7  A    between atoms: C_22  and  C_24
REMARK                            x       y       z     vdW  Elec       q    Type
REMARK                         _______ _______ _______ _____ _____    ______ ____
ROOT
ATOM      1  C   UNL     1      -2.780   0.294   0.212  0.00  0.00    +0.328 C 
ENDROOT
BRANCH   1   2
ATOM      2  C   UNL     1      -1.401   0.900   0.276  0.00  0.00    +0.256 C 
ATOM      3  O   UNL     1      -1.269   2.105   0.293  0.00  0.00    -0.272 OA
ATOM      4  N   UNL     1      -0.316   0.102   0.315  0.00  0.00    -0.266 N 
ATOM      5  C   UNL     1       0.960   0.662   0.368  0.00  0.00    +0.144 A 
ATOM      6  C   UNL     1       2.076  -0.168   0.408  0.00  0.00    +0.082 A 
ATOM      7  C   UNL     1       3.337   0.402   0.455  0.00  0.00    +0.045 A 
ATOM      8  C   UNL     1       3.438   1.788   0.472  0.00  0.00    +0.063 A 
ATOM      9  C   UNL     1       2.286   2.550   0.436  0.00  0.00    +0.059 A 
ATOM     10  N   UNL     1       1.098   1.978   0.386  0.00  0.00    -0.234 NA
ATOM     11  C   UNL     1       2.388   4.053   0.455  0.00  0.00    +0.067 C 
ATOM     12 CL   UNL     1       4.995   2.553   0.536  0.00  0.00    -0.082 Cl
ATOM     13 CL   UNL     1       1.891  -1.893   0.392  0.00  0.00    -0.080 Cl
ATOM     14  H   UNL     1      -0.422  -0.862   0.302  0.00  0.00    +0.156 HD
ENDBRANCH   1   2
BRANCH   1  15
ATOM     15  O   UNL     1      -3.773   1.353   0.180  0.00  0.00    -0.452 OA
BRANCH  15  16
ATOM     16  C   UNL     1      -5.065   0.979   0.122  0.00  0.00    +0.340 C 
ATOM     17  O   UNL     1      -5.355  -0.201   0.099  0.00  0.00    -0.245 OA
BRANCH  16  20
ATOM     18  C   UNL     1      -7.813   0.169  -0.291  0.00  0.00    +0.047 C 
ATOM     19  C   UNL     1      -7.460   1.623  -0.113  0.00  0.00    -0.006 A 
ATOM     20  C   UNL     1      -6.130   2.002   0.086  0.00  0.00    +0.064 A 
ATOM     21  C   UNL     1      -5.811   3.352   0.245  0.00  0.00    +0.015 A 
ATOM     22  C   UNL     1      -6.811   4.302   0.211  0.00  0.00    +0.003 A 
ATOM     23  C   UNL     1      -8.127   3.920   0.019  0.00  0.00    +0.033 A 
ATOM     24  C   UNL     1      -8.450   2.583  -0.139  0.00  0.00    +0.130 A 
BRANCH  24  25
ATOM     25  N   UNL     1      -9.860   2.184  -0.343  0.00  0.00    +0.057 N 
ATOM     26  O   UNL     1     -10.718   3.035  -0.496  0.00  0.00    -0.126 OA
ATOM     27  O   UNL     1     -10.163   1.004  -0.358  0.00  0.00    -0.126 OA
ENDBRANCH  24  25
ENDBRANCH  16  20
ENDBRANCH  15  16
ENDBRANCH   1  15
TORSDOF 5
