REMARK  Name = ZINC15068494
REMARK  7 active torsions:
REMARK  status: ('A' for Active; 'I' for Inactive)
REMARK    1  A    between atoms: C_4  and  C_7
REMARK    2  A    between atoms: C_7  and  C_8
REMARK    3  A    between atoms: C_8  and  C_26
REMARK    4  A    between atoms: C_13  and  C_14
REMARK    5  A    between atoms: C_13  and  N_60
REMARK    6  A    between atoms: C_19  and  C_20
REMARK    7  A    between atoms: C_26  and  O_27
REMARK                            x       y       z     vdW  Elec       q    Type
REMARK                         _______ _______ _______ _____ _____    ______ ____
ROOT
ATOM      1  C   UNL     1       4.142  -0.948  -1.487  0.00  0.00    -0.005 C 
ATOM      2  C   UNL     1       3.081  -1.789  -2.203  0.00  0.00    -0.009 C 
ATOM      3  C   UNL     1       2.972  -3.154  -1.517  0.00  0.00    -0.078 C 
ATOM      4  C   UNL     1       5.298  -3.065  -0.840  0.00  0.00    -0.078 C 
ATOM      5  C   UNL     1       5.476  -1.699  -1.506  0.00  0.00    -0.009 C 
ATOM      6  N   UNL     1       4.283  -3.835  -1.590  0.00  0.00    +0.382 N 
ATOM      7  H   UNL     1       4.571  -3.896  -2.574  0.00  0.00    -0.081 HD
ENDROOT
BRANCH   1   8
ATOM      8  C   UNL     1       3.711  -0.707  -0.039  0.00  0.00    +0.044 C 
BRANCH   8  12
ATOM      9  C   UNL     1      -0.017   1.378   0.010  0.00  0.00    +0.000 A 
ATOM     10  C   UNL     1       1.171   2.086   0.002  0.00  0.00    +0.000 A 
ATOM     11  C   UNL     1       2.377   1.411  -0.014  0.00  0.00    +0.003 A 
ATOM     12  C   UNL     1       2.396   0.029  -0.022  0.00  0.00    -0.047 A 
ATOM     13  C   UNL     1       1.208  -0.679  -0.014  0.00  0.00    +0.003 A 
ATOM     14  C   UNL     1       0.002  -0.004   0.002  0.00  0.00    +0.000 A 
ENDBRANCH   8  12
ENDBRANCH   1   8
BRANCH   6  15
ATOM     15  C   UNL     1       4.174  -5.200  -1.036  0.00  0.00    -0.040 C 
BRANCH  15  16
ATOM     16  C   UNL     1       2.961  -5.876  -1.623  0.00  0.00    -0.023 A 
ATOM     17  C   UNL     1       1.763  -6.031  -1.013  0.00  0.00    +0.107 A 
ATOM     18  N   UNL     1       0.948  -6.684  -1.868  0.00  0.00    -0.284 N 
ATOM     19  H   UNL     1      -0.003  -6.940  -1.695  0.00  0.00    +0.188 HD
ATOM     20  N   UNL     1       1.669  -6.939  -3.042  0.00  0.00    -0.178 NA
ATOM     21  C   UNL     1       2.874  -6.449  -2.896  0.00  0.00    +0.067 A 
BRANCH  21  22
ATOM     22  C   UNL     1       3.978  -6.497  -3.921  0.00  0.00    +0.040 C 
ATOM     23  C   UNL     1       3.529  -5.768  -5.188  0.00  0.00    +0.010 C 
ATOM     24  C   UNL     1       4.650  -5.817  -6.229  0.00  0.00    +0.001 C 
ATOM     25  C   UNL     1       4.969  -7.275  -6.565  0.00  0.00    +0.000 C 
ATOM     26  C   UNL     1       5.418  -8.005  -5.297  0.00  0.00    +0.001 C 
ATOM     27  C   UNL     1       4.297  -7.955  -4.257  0.00  0.00    +0.010 C 
ENDBRANCH  21  22
ENDBRANCH  15  16
ENDBRANCH   6  15
BRANCH   1  28
ATOM     28  C   UNL     1       4.300   0.394  -2.204  0.00  0.00    +0.163 C 
BRANCH  28  29
ATOM     29  O   UNL     1       3.053   1.092  -2.188  0.00  0.00    -0.394 OA
ATOM     30  H   UNL     1       3.079   1.954  -2.626  0.00  0.00    +0.209 HD
ENDBRANCH  28  29
ENDBRANCH   1  28
TORSDOF 7
