REMARK  Name = ZINC48030443
REMARK  2 active torsions:
REMARK  status: ('A' for Active; 'I' for Inactive)
REMARK    1  A    between atoms: C_11  and  C_13
REMARK    2  A    between atoms: C_19  and  C_21
REMARK                            x       y       z     vdW  Elec       q    Type
REMARK                         _______ _______ _______ _____ _____    ______ ____
ROOT
ATOM      1  C   UNL     1       1.609   2.260  -1.329  0.00  0.00    +0.002 A 
ATOM      2  C   UNL     1       2.885   2.800  -1.248  0.00  0.00    +0.001 A 
ATOM      3  C   UNL     1       3.967   1.956  -1.076  0.00  0.00    +0.017 A 
ATOM      4  C   UNL     1       3.764   0.602  -0.989  0.00  0.00    +0.041 A 
ATOM      5  C   UNL     1       2.479   0.017  -1.068  0.00  0.00    +0.080 A 
ATOM      6  C   UNL     1       1.396   0.909  -1.244  0.00  0.00    +0.029 A 
ATOM      7  N   UNL     1       2.442  -1.329  -0.966  0.00  0.00    -0.225 NA
ATOM      8  C   UNL     1       3.524  -2.055  -0.804  0.00  0.00    +0.166 A 
ATOM      9  S   UNL     1       4.812  -0.816  -0.776  0.00  0.00    -0.052 S 
ATOM     10  N   UNL     1       3.638  -3.429  -0.685  0.00  0.00    -0.257 N 
ATOM     11  C   UNL     1       4.851  -3.993  -0.523  0.00  0.00    +0.305 C 
ATOM     12  O   UNL     1       5.844  -3.295  -0.481  0.00  0.00    -0.265 OA
ATOM     13  H   UNL     1       2.845  -3.986  -0.719  0.00  0.00    +0.157 HD
ENDROOT
BRANCH  11  14
ATOM     14  C   UNL     1       4.974  -5.475  -0.395  0.00  0.00    +0.302 C 
ATOM     15  O   UNL     1       3.982  -6.173  -0.437  0.00  0.00    -0.265 OA
ATOM     16  N   UNL     1       6.188  -6.039  -0.232  0.00  0.00    -0.290 N 
ATOM     17  C   UNL     1       7.477  -5.325  -0.254  0.00  0.00    +0.108 C 
ATOM     18  C   UNL     1       8.441  -6.222   0.562  0.00  0.00    +0.021 C 
ATOM     19  C   UNL     1       7.970  -7.642   0.149  0.00  0.00    +0.024 C 
ATOM     20  C   UNL     1       6.444  -7.468   0.001  0.00  0.00    +0.080 C 
BRANCH  20  21
ATOM     21  C   UNL     1       5.943  -8.288  -1.189  0.00  0.00    +0.010 C 
ATOM     22  C   UNL     1       6.264  -9.767  -0.962  0.00  0.00    +0.005 C 
ATOM     23  C   UNL     1       5.763 -10.587  -2.152  0.00  0.00    +0.000 C 
ATOM     24  C   UNL     1       6.453 -10.106  -3.430  0.00  0.00    +0.000 C 
ATOM     25  C   UNL     1       6.132  -8.627  -3.657  0.00  0.00    +0.000 C 
ATOM     26  C   UNL     1       6.633  -7.807  -2.467  0.00  0.00    +0.005 C 
ENDBRANCH  20  21
ENDBRANCH  11  14
TORSDOF 2
