REMARK  Name = ZINC11869138
REMARK  8 active torsions:
REMARK  status: ('A' for Active; 'I' for Inactive)
REMARK    1  A    between atoms: C_1  and  C_2
REMARK    2  A    between atoms: C_3  and  C_8
REMARK    3  A    between atoms: N_5  and  C_7
REMARK    4  A    between atoms: C_8  and  N_58
REMARK    5  A    between atoms: C_11  and  C_14
REMARK    6  A    between atoms: C_14  and  C_21
REMARK    7  A    between atoms: C_21  and  C_22
REMARK    8  A    between atoms: C_22  and  C_23
REMARK                            x       y       z     vdW  Elec       q    Type
REMARK                         _______ _______ _______ _____ _____    ______ ____
ROOT
ATOM      1  C   UNL     1      -2.755   3.120   1.672  0.00  0.00    +0.115 C 
ATOM      2  C   UNL     1      -3.763   2.203   1.008  0.00  0.00    +0.244 C 
ATOM      3  O   UNL     1      -4.136   1.119   1.402  0.00  0.00    -0.273 OA
ATOM      4  N   UNL     1      -4.158   2.844  -0.109  0.00  0.00    -0.238 N 
ATOM      5  C   UNL     1      -3.546   4.026  -0.243  0.00  0.00    +0.307 C 
ATOM      6  O   UNL     1      -3.739   4.786  -1.171  0.00  0.00    -0.252 OA
ATOM      7  N   UNL     1      -2.693   4.280   0.766  0.00  0.00    -0.285 N 
ATOM      8  H   UNL     1      -4.806   2.492  -0.739  0.00  0.00    +0.159 HD
ATOM      9  H   UNL     1      -2.145   5.073   0.876  0.00  0.00    +0.151 HD
ENDROOT
BRANCH   1  12
ATOM     10  C   UNL     1      -5.168   4.467   4.352  0.00  0.00    -0.078 C 
ATOM     11  C   UNL     1      -4.663   4.104   2.954  0.00  0.00    -0.013 C 
ATOM     12  C   UNL     1      -3.243   3.542   3.060  0.00  0.00    +0.018 C 
ATOM     13  C   UNL     1      -3.250   2.326   3.991  0.00  0.00    -0.013 C 
ATOM     14  C   UNL     1      -3.798   2.741   5.358  0.00  0.00    -0.078 C 
ATOM     15  N   UNL     1      -5.176   3.250   5.191  0.00  0.00    +0.382 N 
ATOM     16  H   UNL     1      -5.742   2.530   4.728  0.00  0.00    -0.081 HD
BRANCH  15  17
ATOM     17  C   UNL     1      -5.766   3.551   6.511  0.00  0.00    -0.040 C 
BRANCH  17  20
ATOM     18  C   UNL     1      -8.155   1.601   5.779  0.00  0.00    +0.068 C 
ATOM     19  C   UNL     1      -7.146   1.390   6.879  0.00  0.00    +0.061 A 
ATOM     20  C   UNL     1      -6.093   2.251   7.202  0.00  0.00    -0.024 A 
ATOM     21  C   UNL     1      -5.414   1.709   8.239  0.00  0.00    +0.110 A 
ATOM     22  N   UNL     1      -6.023   0.550   8.568  0.00  0.00    -0.274 N 
ATOM     23  N   UNL     1      -7.106   0.370   7.697  0.00  0.00    -0.177 NA
ATOM     24  C   UNL     1      -5.619  -0.361   9.641  0.00  0.00    +0.172 C 
ENDBRANCH  17  20
ENDBRANCH  15  17
ENDBRANCH   1  12
BRANCH   1  25
ATOM     25  C   UNL     1      -1.388   2.439   1.768  0.00  0.00    +0.040 C 
BRANCH  25  26
ATOM     26  C   UNL     1      -0.844   2.188   0.360  0.00  0.00    +0.038 C 
BRANCH  26  27
ATOM     27  C   UNL     1       0.502   1.517   0.455  0.00  0.00    -0.047 A 
ATOM     28  C   UNL     1       1.653   2.280   0.507  0.00  0.00    +0.003 A 
ATOM     29  C   UNL     1       2.888   1.665   0.587  0.00  0.00    +0.000 A 
ATOM     30  C   UNL     1       2.972   0.285   0.615  0.00  0.00    +0.000 A 
ATOM     31  C   UNL     1       1.821  -0.479   0.563  0.00  0.00    +0.000 A 
ATOM     32  C   UNL     1       0.586   0.137   0.483  0.00  0.00    +0.003 A 
ENDBRANCH  26  27
ENDBRANCH  25  26
ENDBRANCH   1  25
TORSDOF 6
