REMARK  Name = ZINC44442028
REMARK  5 active torsions:
REMARK  status: ('A' for Active; 'I' for Inactive)
REMARK    1  A    between atoms: C_4  and  C_7
REMARK    2  A    between atoms: C_9  and  C_12
REMARK    3  A    between atoms: N_14  and  C_15
REMARK    4  A    between atoms: C_15  and  C_16
REMARK    5  A    between atoms: C_19  and  C_22
REMARK                            x       y       z     vdW  Elec       q    Type
REMARK                         _______ _______ _______ _____ _____    ______ ____
ROOT
ATOM      1  C   UNL     1       4.794  -6.181  -0.101  0.00  0.00    +0.108 C 
ENDROOT
BRANCH   1   2
ATOM      2  C   UNL     1       3.489  -6.980  -0.099  0.00  0.00    +0.006 C 
ATOM      3  C   UNL     1       2.745  -6.739   1.216  0.00  0.00    +0.006 C 
ATOM      4  C   UNL     1       3.621  -7.190   2.387  0.00  0.00    +0.011 C 
ATOM      5  C   UNL     1       3.936  -8.680   2.245  0.00  0.00    +0.055 C 
ATOM      6  C   UNL     1       4.679  -8.921   0.929  0.00  0.00    +0.011 C 
ATOM      7  C   UNL     1       3.804  -8.470  -0.241  0.00  0.00    +0.006 C 
BRANCH   5   8
ATOM      8  C   UNL     1       4.798  -9.124   3.398  0.00  0.00    +0.111 A 
ATOM      9  N   UNL     1       6.153  -9.010   3.447  0.00  0.00    -0.342 N 
ATOM     10  H   UNL     1       6.724  -8.635   2.758  0.00  0.00    +0.167 HD
ATOM     11  C   UNL     1       6.565  -9.526   4.659  0.00  0.00    +0.066 A 
ATOM     12  C   UNL     1       7.800  -9.684   5.273  0.00  0.00    +0.028 A 
ATOM     13  C   UNL     1       7.872 -10.254   6.526  0.00  0.00    +0.002 A 
ATOM     14  C   UNL     1       6.719 -10.670   7.177  0.00  0.00    +0.002 A 
ATOM     15  C   UNL     1       5.495 -10.522   6.588  0.00  0.00    +0.030 A 
ATOM     16  C   UNL     1       5.398  -9.947   5.318  0.00  0.00    +0.089 A 
ATOM     17  N   UNL     1       4.356  -9.667   4.494  0.00  0.00    -0.232 NA
ENDBRANCH   5   8
ENDBRANCH   1   2
BRANCH   1  20
ATOM     18  C   UNL     1       5.490  -3.846  -0.083  0.00  0.00    +0.263 C 
ATOM     19  O   UNL     1       6.647  -4.221  -0.096  0.00  0.00    -0.269 OA
ATOM     20  N   UNL     1       4.489  -4.748  -0.085  0.00  0.00    -0.310 N 
ATOM     21  H   UNL     1       3.566  -4.449  -0.075  0.00  0.00    +0.149 HD
BRANCH  18  24
ATOM     22  C   UNL     1       3.696  -0.685  -0.038  0.00  0.00    +0.109 A 
ATOM     23  N   UNL     1       3.926  -1.986  -0.053  0.00  0.00    -0.234 NA
ATOM     24  C   UNL     1       5.183  -2.405  -0.067  0.00  0.00    +0.133 A 
ATOM     25  C   UNL     1       6.194  -1.480  -0.066  0.00  0.00    +0.080 A 
ATOM     26  S   UNL     1       5.352  -0.022  -0.052  0.00  0.00    -0.075 S 
BRANCH  22  30
ATOM     27  C   UNL     1      -0.017   1.379   0.010  0.00  0.00    +0.000 A 
ATOM     28  C   UNL     1       1.168   2.093   0.002  0.00  0.00    +0.001 A 
ATOM     29  C   UNL     1       2.377   1.429  -0.013  0.00  0.00    +0.010 A 
ATOM     30  C   UNL     1       2.403   0.034  -0.021  0.00  0.00    +0.007 A 
ATOM     31  C   UNL     1       1.204  -0.680  -0.013  0.00  0.00    +0.010 A 
ATOM     32  C   UNL     1       0.002  -0.004   0.002  0.00  0.00    +0.001 A 
ENDBRANCH  22  30
ENDBRANCH  18  24
ENDBRANCH   1  20
TORSDOF 5
