REMARK  Name = ZINC40049683
REMARK  7 active torsions:
REMARK  status: ('A' for Active; 'I' for Inactive)
REMARK    1  A    between atoms: C_1  and  C_2
REMARK    2  A    between atoms: C_5  and  C_18
REMARK    3  A    between atoms: C_6  and  C_17
REMARK    4  A    between atoms: N_7  and  C_8
REMARK    5  A    between atoms: C_18  and  C_20
REMARK    6  A    between atoms: C_20  and  S_21
REMARK    7  A    between atoms: S_21  and  C_22
REMARK                            x       y       z     vdW  Elec       q    Type
REMARK                         _______ _______ _______ _____ _____    ______ ____
ROOT
ATOM      1  C   UNL     1       0.059   1.560   0.108  0.00  0.00    +0.029 C 
ATOM      2  C   UNL     1       0.027   0.031   0.050  0.00  0.00    +0.080 C 
ATOM      3  C   UNL     1       0.766  -0.476  -1.204  0.00  0.00    +0.062 C 
ATOM      4  C   UNL     1       1.896  -1.309  -0.640  0.00  0.00    +0.015 C 
ATOM      5  C   UNL     1       1.814  -1.281   0.706  0.00  0.00    +0.015 C 
ATOM      6  N   UNL     1       0.778  -0.542   1.175  0.00  0.00    -0.300 N 
ATOM      7  C   UNL     1       2.782  -2.005   1.607  0.00  0.00    +0.061 C 
ENDROOT
BRANCH   6   8
ATOM      8  C   UNL     1       0.469  -0.351   2.526  0.00  0.00    +0.038 A 
ATOM      9  C   UNL     1       1.333   0.369   3.341  0.00  0.00    +0.027 A 
ATOM     10  C   UNL     1       1.030   0.557   4.676  0.00  0.00    +0.051 A 
ATOM     11  C   UNL     1      -0.137   0.028   5.205  0.00  0.00    +0.166 A 
ATOM     12  C   UNL     1      -1.005  -0.694   4.390  0.00  0.00    +0.168 A 
ATOM     13  C   UNL     1      -0.703  -0.878   3.051  0.00  0.00    +0.073 A 
ATOM     14  O   UNL     1      -2.068  -1.104   5.142  0.00  0.00    -0.453 OA
ATOM     15  C   UNL     1      -1.644  -0.977   6.511  0.00  0.00    +0.466 C 
ATOM     16  O   UNL     1      -0.657   0.070   6.467  0.00  0.00    -0.453 OA
ENDBRANCH   6   8
BRANCH   4  17
ATOM     17  C   UNL     1       2.863  -1.994  -1.389  0.00  0.00    +0.171 C 
ATOM     18  O   UNL     1       3.786  -2.550  -0.826  0.00  0.00    -0.291 OA
BRANCH  17  19
ATOM     19  C   UNL     1       2.759  -2.041  -2.891  0.00  0.00    +0.156 C 
BRANCH  19  20
ATOM     20  S   UNL     1       4.148  -2.994  -3.565  0.00  0.00    -0.076 S 
BRANCH  20  21
ATOM     21  C   UNL     1       3.885  -2.957  -5.307  0.00  0.00    +0.210 A 
ATOM     22  N   UNL     1       2.893  -2.353  -5.915  0.00  0.00    -0.144 NA
ATOM     23  H   UNL     1       2.491  -2.249  -8.006  0.00  0.00    +0.192 HD
ATOM     24  N   UNL     1       3.064  -2.571  -7.292  0.00  0.00    -0.246 N 
ATOM     25  C   UNL     1       4.182  -3.314  -7.426  0.00  0.00    +0.209 A 
ATOM     26  N   UNL     1       4.669  -3.536  -6.224  0.00  0.00    -0.188 NA
ATOM     27  N   UNL     1       4.723  -3.761  -8.617  0.00  0.00    -0.328 N 
ATOM     28  H   UNL     1       4.291  -3.543  -9.458  0.00  0.00    +0.145 HD
ATOM     29  H   UNL     1       5.534  -4.293  -8.612  0.00  0.00    +0.145 HD
ENDBRANCH  20  21
ENDBRANCH  19  20
ENDBRANCH  17  19
ENDBRANCH   4  17
TORSDOF 5
