REMARK  Name = ZINC36203276
REMARK  14 active torsions:
REMARK  status: ('A' for Active; 'I' for Inactive)
REMARK    1  A    between atoms: C_1  and  C_2
REMARK    2  A    between atoms: C_7  and  C_8
REMARK    3  A    between atoms: C_8  and  N_9
REMARK    4  A    between atoms: N_9  and  C_10
REMARK    5  A    between atoms: N_9  and  C_34
REMARK    6  A    between atoms: C_10  and  C_11
REMARK    7  A    between atoms: C_14  and  C_16
REMARK    8  A    between atoms: C_16  and  C_17
REMARK    9  A    between atoms: C_16  and  C_25
REMARK   10  A    between atoms: C_16  and  O_33
REMARK   11  A    between atoms: C_20  and  O_23
REMARK   12  A    between atoms: O_23  and  C_24
REMARK   13  A    between atoms: C_28  and  O_31
REMARK   14  A    between atoms: O_31  and  C_32
REMARK                            x       y       z     vdW  Elec       q    Type
REMARK                         _______ _______ _______ _____ _____    ______ ____
ROOT
ATOM      1  C   UNL     1      -3.038   1.187   4.559  0.00  0.00    +0.089 A 
ATOM      2  C   UNL     1      -4.009   0.893   5.442  0.00  0.00    +0.043 A 
ATOM      3  C   UNL     1      -4.916   1.978   5.429  0.00  0.00    +0.048 A 
ATOM      4  C   UNL     1      -4.445   2.869   4.539  0.00  0.00    +0.146 A 
ATOM      5  O   UNL     1      -3.304   2.387   4.019  0.00  0.00    -0.463 OA
ENDROOT
BRANCH   1   6
ATOM      6  C   UNL     1      -1.850   0.319   4.235  0.00  0.00    -0.002 C 
BRANCH   6   7
ATOM      7  N   UNL     1      -2.187  -0.578   3.122  0.00  0.00    +0.389 N 
ATOM      8  H   UNL     1      -3.018  -1.103   3.352  0.00  0.00    -0.080 HD
BRANCH   7   9
ATOM      9  C   UNL     1      -2.430   0.216   1.910  0.00  0.00    -0.068 C 
ATOM     10  C   UNL     1      -3.854   0.234   1.350  0.00  0.00    -0.017 C 
ATOM     11  C   UNL     1      -2.755  -0.542   0.621  0.00  0.00    -0.017 C 
ENDBRANCH   7   9
BRANCH   7  12
ATOM     12  C   UNL     1      -1.073  -1.505   2.884  0.00  0.00    -0.042 C 
BRANCH  12  19
ATOM     13  C   UNL     1      -2.861  -3.745   3.248  0.00  0.00    +0.044 C 
ATOM     14  C   UNL     1      -1.767  -3.484   4.250  0.00  0.00    -0.049 A 
ATOM     15  C   UNL     1      -1.615  -4.319   5.341  0.00  0.00    +0.003 A 
ATOM     16  C   UNL     1      -0.611  -4.080   6.261  0.00  0.00    +0.000 A 
ATOM     17  C   UNL     1       0.241  -3.005   6.090  0.00  0.00    +0.000 A 
ATOM     18  C   UNL     1       0.090  -2.170   4.999  0.00  0.00    +0.002 A 
ATOM     19  C   UNL     1      -0.911  -2.412   4.076  0.00  0.00    -0.061 A 
ENDBRANCH  12  19
ENDBRANCH   7  12
ENDBRANCH   6   7
ENDBRANCH   1   6
BRANCH   4  20
ATOM     20  C   UNL     1      -5.086   4.187   4.188  0.00  0.00    +0.174 C 
BRANCH  20  21
ATOM     21  C   UNL     1      -4.019   5.174   3.788  0.00  0.00    -0.004 A 
ATOM     22  C   UNL     1      -3.860   6.346   4.504  0.00  0.00    +0.011 A 
ATOM     23  C   UNL     1      -2.883   7.252   4.139  0.00  0.00    +0.046 A 
ATOM     24  C   UNL     1      -2.061   6.985   3.054  0.00  0.00    +0.120 A 
ATOM     25  C   UNL     1      -2.222   5.808   2.338  0.00  0.00    +0.046 A 
ATOM     26  C   UNL     1      -3.197   4.902   2.710  0.00  0.00    +0.011 A 
BRANCH  24  27
ATOM     27  O   UNL     1      -1.099   7.875   2.693  0.00  0.00    -0.495 OA
ATOM     28  C   UNL     1      -0.290   7.534   1.566  0.00  0.00    +0.277 C 
ENDBRANCH  24  27
ENDBRANCH  20  21
BRANCH  20  29
ATOM     29  C   UNL     1      -6.043   3.991   3.041  0.00  0.00    -0.004 A 
ATOM     30  C   UNL     1      -5.676   3.211   1.961  0.00  0.00    +0.011 A 
ATOM     31  C   UNL     1      -6.551   3.029   0.908  0.00  0.00    +0.046 A 
ATOM     32  C   UNL     1      -7.801   3.631   0.936  0.00  0.00    +0.120 A 
ATOM     33  C   UNL     1      -8.168   4.413   2.021  0.00  0.00    +0.046 A 
ATOM     34  C   UNL     1      -7.291   4.587   3.074  0.00  0.00    +0.011 A 
BRANCH  32  35
ATOM     35  O   UNL     1      -8.665   3.454  -0.099  0.00  0.00    -0.495 OA
ATOM     36  C   UNL     1      -9.934   4.103  -0.003  0.00  0.00    +0.277 C 
ENDBRANCH  32  35
ENDBRANCH  20  29
BRANCH  20  37
ATOM     37  O   UNL     1      -5.797   4.688   5.322  0.00  0.00    -0.372 OA
ATOM     38  H   UNL     1      -6.500   4.103   5.635  0.00  0.00    +0.212 HD
ENDBRANCH  20  37
ENDBRANCH   4  20
TORSDOF 11
