REMARK  Name = ZINC13279086
REMARK  6 active torsions:
REMARK  status: ('A' for Active; 'I' for Inactive)
REMARK    1  A    between atoms: C_3  and  N_9
REMARK    2  A    between atoms: C_6  and  C_7
REMARK    3  A    between atoms: C_13  and  N_16
REMARK    4  A    between atoms: N_16  and  C_17
REMARK    5  A    between atoms: C_17  and  C_18
REMARK    6  A    between atoms: C_18  and  C_19
REMARK                            x       y       z     vdW  Elec       q    Type
REMARK                         _______ _______ _______ _____ _____    ______ ____
ROOT
ATOM      1  N   UNL     1       3.087  -3.141   9.964  0.00  0.00    -0.195 N 
ATOM      2  C   UNL     1       3.886  -4.102   9.460  0.00  0.00    +0.292 A 
ATOM      3  O   UNL     1       4.342  -4.968  10.190  0.00  0.00    -0.264 OA
ATOM      4  C   UNL     1       4.191  -4.101   8.091  0.00  0.00    +0.129 A 
ATOM      5  C   UNL     1       3.661  -3.109   7.286  0.00  0.00    +0.071 A 
ATOM      6  C   UNL     1       2.833  -2.120   7.859  0.00  0.00    +0.158 A 
ATOM      7  N   UNL     1       2.561  -2.146   9.134  0.00  0.00    -0.170 NA
ATOM      8 CL   UNL     1       5.219  -5.328   7.417  0.00  0.00    -0.076 Cl
ENDROOT
BRANCH   1  11
ATOM      9  C   UNL     1       3.503  -3.270  13.610  0.00  0.00    +0.017 A 
ATOM     10  C   UNL     1       3.800  -3.273  12.265  0.00  0.00    +0.029 A 
ATOM     11  C   UNL     1       2.782  -3.139  11.326  0.00  0.00    +0.069 A 
ATOM     12  C   UNL     1       1.462  -2.997  11.741  0.00  0.00    +0.029 A 
ATOM     13  C   UNL     1       1.157  -2.999  13.084  0.00  0.00    +0.017 A 
ATOM     14  C   UNL     1       2.177  -3.133  14.030  0.00  0.00    +0.063 A 
BRANCH  14  15
ATOM     15  C   UNL     1       1.855  -3.129  15.470  0.00  0.00    +0.387 C 
ATOM     16  O   UNL     1       2.742  -3.245  16.291  0.00  0.00    -0.241 OA
ATOM     17  O   UNL     1       0.576  -2.997  15.874  0.00  0.00    -0.241 OA
ENDBRANCH  14  15
ENDBRANCH   1  11
BRANCH   5  18
ATOM     18  N   UNL     1       3.946  -3.083   5.931  0.00  0.00    -0.341 N 
ATOM     19  H   UNL     1       4.518  -3.763   5.542  0.00  0.00    +0.146 HD
BRANCH  18  20
ATOM     20  C   UNL     1       3.381  -2.029   5.084  0.00  0.00    +0.106 C 
BRANCH  20  21
ATOM     21  C   UNL     1       3.847  -2.230   3.640  0.00  0.00    +0.054 C 
BRANCH  21  22
ATOM     22  C   UNL     1       3.266  -1.146   2.770  0.00  0.00    -0.041 A 
ATOM     23  C   UNL     1       3.959   0.036   2.585  0.00  0.00    +0.053 A 
ATOM     24  C   UNL     1       3.428   1.036   1.784  0.00  0.00    +0.164 A 
ATOM     25  C   UNL     1       2.198   0.845   1.165  0.00  0.00    +0.180 A 
ATOM     26  C   UNL     1       1.507  -0.343   1.355  0.00  0.00    +0.086 A 
ATOM     27  C   UNL     1       2.042  -1.335   2.156  0.00  0.00    +0.027 A 
ATOM     28 CL   UNL     1      -0.031  -0.584   0.586  0.00  0.00    -0.080 Cl
ATOM     29  O   UNL     1       1.661   1.811   0.370  0.00  0.00    -0.483 OA
ATOM     30  C   UNL     1       2.203   3.130   0.504  0.00  0.00    +0.270 C 
ATOM     31  C   UNL     1       3.734   3.021   0.512  0.00  0.00    +0.270 C 
ATOM     32  O   UNL     1       4.119   2.196   1.617  0.00  0.00    -0.485 OA
ENDBRANCH  21  22
ENDBRANCH  20  21
ENDBRANCH  18  20
ENDBRANCH   5  18
TORSDOF 6
