REMARK  Name = ZINC05601838
REMARK  8 active torsions:
REMARK  status: ('A' for Active; 'I' for Inactive)
REMARK    1  A    between atoms: C_1  and  C_2
REMARK    2  A    between atoms: C_2  and  N_3
REMARK    3  A    between atoms: C_4  and  C_29
REMARK    4  A    between atoms: C_10  and  C_12
REMARK    5  A    between atoms: N_14  and  N_15
REMARK    6  A    between atoms: N_15  and  C_16
REMARK    7  A    between atoms: C_16  and  N_18
REMARK    8  A    between atoms: N_18  and  C_19
REMARK                            x       y       z     vdW  Elec       q    Type
REMARK                         _______ _______ _______ _____ _____    ______ ____
ROOT
ATOM      1  C   UNL     1      -7.982  -0.634   0.170  0.00  0.00    +0.260 C 
ATOM      2  O   UNL     1      -8.697  -0.432   1.132  0.00  0.00    -0.269 OA
ATOM      3  N   UNL     1      -6.753  -0.083   0.116  0.00  0.00    -0.231 N 
ATOM      4  H   UNL     1      -6.183  -0.244  -0.652  0.00  0.00    +0.173 HD
ENDROOT
BRANCH   1  12
ATOM      5  N   UNL     1     -10.035  -3.889  -3.897  0.00  0.00    -0.328 N 
ATOM      6  C   UNL     1     -11.242  -4.137  -3.320  0.00  0.00    +0.108 A 
ATOM      7  N   UNL     1     -11.323  -3.531  -2.172  0.00  0.00    -0.233 NA
ATOM      8  C   UNL     1     -10.171  -2.852  -1.934  0.00  0.00    +0.090 A 
ATOM      9  C   UNL     1      -9.329  -3.073  -3.039  0.00  0.00    +0.069 A 
ATOM     10  C   UNL     1      -8.064  -2.497  -3.080  0.00  0.00    +0.029 A 
ATOM     11  C   UNL     1      -7.634  -1.715  -2.048  0.00  0.00    +0.015 A 
ATOM     12  C   UNL     1      -8.460  -1.483  -0.940  0.00  0.00    +0.040 A 
ATOM     13  C   UNL     1      -9.727  -2.056  -0.880  0.00  0.00    +0.043 A 
ATOM     14  C   UNL     1     -12.328  -4.990  -3.925  0.00  0.00    +0.086 C 
BRANCH   5  16
ATOM     15  C   UNL     1      -8.858  -5.734  -4.990  0.00  0.00    +0.027 C 
ATOM     16  C   UNL     1      -9.571  -4.395  -5.191  0.00  0.00    +0.120 C 
ENDBRANCH   5  16
ENDBRANCH   1  12
BRANCH   3  17
ATOM     17  N   UNL     1      -6.300   0.722   1.169  0.00  0.00    -0.246 N 
ATOM     18  H   UNL     1      -6.871   0.883   1.937  0.00  0.00    +0.172 HD
BRANCH  17  19
ATOM     19  C   UNL     1      -5.071   1.273   1.115  0.00  0.00    +0.147 C 
ATOM     20  S   UNL     1      -4.518   2.257   2.402  0.00  0.00    -0.017 S 
BRANCH  19  21
ATOM     21  N   UNL     1      -4.279   1.049   0.049  0.00  0.00    -0.320 N 
ATOM     22  H   UNL     1      -4.619   0.555  -0.714  0.00  0.00    +0.148 HD
BRANCH  21  23
ATOM     23  C   UNL     1      -2.903   1.553   0.040  0.00  0.00    +0.034 C 
ATOM     24  C   UNL     1      -2.150   1.000   1.252  0.00  0.00    +0.029 C 
ATOM     25  C   UNL     1      -0.713   1.526   1.243  0.00  0.00    -0.008 C 
ATOM     26  C   UNL     1      -0.729   3.054   1.306  0.00  0.00    +0.007 C 
ATOM     27  C   UNL     1      -1.482   3.607   0.094  0.00  0.00    -0.008 C 
ATOM     28  C   UNL     1      -2.919   3.081   0.103  0.00  0.00    +0.029 C 
ATOM     29  C   UNL     1      -0.782   3.157  -1.190  0.00  0.00    +0.007 C 
ATOM     30  C   UNL     1      -0.766   1.628  -1.253  0.00  0.00    -0.008 C 
ATOM     31  C   UNL     1      -0.013   1.076  -0.041  0.00  0.00    +0.007 C 
ATOM     32  C   UNL     1      -2.203   1.103  -1.244  0.00  0.00    +0.029 C 
ENDBRANCH  21  23
ENDBRANCH  19  21
ENDBRANCH  17  19
ENDBRANCH   3  17
TORSDOF 6
