REMARK  Name = ZINC01217511
REMARK  15 active torsions:
REMARK  status: ('A' for Active; 'I' for Inactive)
REMARK    1  A    between atoms: C_1  and  C_2
REMARK    2  A    between atoms: C_2  and  C_3
REMARK    3  A    between atoms: C_2  and  C_4
REMARK    4  A    between atoms: C_6  and  C_28
REMARK    5  A    between atoms: C_7  and  S_13
REMARK    6  A    between atoms: C_8  and  C_10
REMARK    7  A    between atoms: C_10  and  C_11
REMARK    8  A    between atoms: C_10  and  C_12
REMARK    9  A    between atoms: S_13  and  N_16
REMARK   10  A    between atoms: N_16  and  C_17
REMARK   11  A    between atoms: C_17  and  C_18
REMARK   12  A    between atoms: C_21  and  S_24
REMARK   13  A    between atoms: S_24  and  N_27
REMARK   14  A    between atoms: C_28  and  C_29
REMARK   15  A    between atoms: C_28  and  C_30
REMARK                            x       y       z     vdW  Elec       q    Type
REMARK                         _______ _______ _______ _____ _____    ______ ____
ROOT
ATOM      1  S   UNL     1       0.476   4.546   0.853  0.00  0.00    +0.059 S 
ATOM      2  O   UNL     1       0.607   3.974  -0.441  0.00  0.00    -0.153 OA
ATOM      3  O   UNL     1      -0.263   3.919   1.892  0.00  0.00    -0.153 OA
ENDROOT
BRANCH   1   7
ATOM      4  C   UNL     1      -1.336   8.653   0.274  0.00  0.00    -0.044 A 
ATOM      5  C   UNL     1      -1.628   7.923   1.411  0.00  0.00    +0.009 A 
ATOM      6  C   UNL     1      -1.074   6.669   1.588  0.00  0.00    -0.018 A 
ATOM      7  C   UNL     1      -0.230   6.145   0.628  0.00  0.00    +0.112 A 
ATOM      8  C   UNL     1       0.066   6.877  -0.507  0.00  0.00    -0.018 A 
ATOM      9  C   UNL     1      -0.491   8.129  -0.686  0.00  0.00    +0.009 A 
BRANCH   4  11
ATOM     10  C   UNL     1      -0.822  11.059  -0.034  0.00  0.00    +0.012 C 
ATOM     11  C   UNL     1      -1.940  10.021   0.082  0.00  0.00    +0.013 C 
ATOM     12  C   UNL     1      -2.781  10.032  -1.196  0.00  0.00    +0.012 C 
ENDBRANCH   4  11
BRANCH   8  13
ATOM     13  C   UNL     1       0.991   6.307  -1.551  0.00  0.00    +0.015 C 
ATOM     14  C   UNL     1       0.200   6.012  -2.827  0.00  0.00    +0.012 C 
ATOM     15  C   UNL     1       2.096   7.319  -1.860  0.00  0.00    +0.012 C 
ENDBRANCH   8  13
BRANCH   6  16
ATOM     16  C   UNL     1      -1.391   5.873   2.828  0.00  0.00    +0.015 C 
ATOM     17  C   UNL     1      -1.657   6.829   3.993  0.00  0.00    +0.012 C 
ATOM     18  C   UNL     1      -2.633   5.015   2.579  0.00  0.00    +0.012 C 
ENDBRANCH   6  16
ENDBRANCH   1   7
BRANCH   1  19
ATOM     19  N   UNL     1       2.012   4.766   1.431  0.00  0.00    -0.186 NA
ATOM     20  H   UNL     1       2.775   4.495   0.896  0.00  0.00    +0.148 HD
BRANCH  19  21
ATOM     21  C   UNL     1       2.219   5.369   2.750  0.00  0.00    +0.141 C 
BRANCH  21  22
ATOM     22  C   UNL     1       3.638   5.127   3.196  0.00  0.00    -0.032 A 
ATOM     23  C   UNL     1       4.628   6.038   2.879  0.00  0.00    +0.007 A 
ATOM     24  C   UNL     1       5.929   5.816   3.289  0.00  0.00    +0.029 A 
ATOM     25  C   UNL     1       6.241   4.682   4.015  0.00  0.00    +0.105 A 
ATOM     26  C   UNL     1       5.252   3.771   4.332  0.00  0.00    +0.029 A 
ATOM     27  C   UNL     1       3.950   3.993   3.923  0.00  0.00    +0.007 A 
BRANCH  25  28
ATOM     28  S   UNL     1       7.900   4.398   4.536  0.00  0.00    +0.056 S 
ATOM     29  O   UNL     1       8.031   2.997   4.731  0.00  0.00    -0.153 OA
ATOM     30  O   UNL     1       8.736   5.125   3.645  0.00  0.00    -0.153 OA
BRANCH  28  31
ATOM     31  N   UNL     1       8.073   5.101   6.026  0.00  0.00    -0.204 NA
ATOM     32  H   UNL     1       8.698   4.730   6.668  0.00  0.00    +0.144 HD
ATOM     33  H   UNL     1       7.548   5.884   6.256  0.00  0.00    +0.144 HD
ENDBRANCH  28  31
ENDBRANCH  25  28
ENDBRANCH  21  22
ENDBRANCH  19  21
ENDBRANCH   1  19
TORSDOF 9
