REMARK  Name = ZINC40709633
REMARK  7 active torsions:
REMARK  status: ('A' for Active; 'I' for Inactive)
REMARK    1  A    between atoms: C_4  and  C_7
REMARK    2  A    between atoms: C_7  and  N_8
REMARK    3  A    between atoms: N_8  and  C_9
REMARK    4  A    between atoms: C_9  and  C_10
REMARK    5  A    between atoms: C_17  and  N_34
REMARK    6  A    between atoms: C_18  and  O_22
REMARK    7  A    between atoms: O_22  and  C_23
REMARK                            x       y       z     vdW  Elec       q    Type
REMARK                         _______ _______ _______ _____ _____    ______ ____
ROOT
ATOM      1  N   UNL     1       4.205  -0.655   1.275  0.00  0.00    -0.305 N 
ATOM      2  C   UNL     1       5.019   0.177   2.033  0.00  0.00    +0.150 A 
ATOM      3  C   UNL     1       4.465   1.034   2.988  0.00  0.00    +0.128 A 
ATOM      4  C   UNL     1       5.327   1.848   3.721  0.00  0.00    +0.246 A 
ATOM      5  N   UNL     1       6.634   1.780   3.486  0.00  0.00    -0.199 NA
ATOM      6  C   UNL     1       7.117   0.958   2.576  0.00  0.00    +0.227 A 
ATOM      7  N   UNL     1       6.338   0.168   1.865  0.00  0.00    -0.219 NA
ENDROOT
BRANCH   3   8
ATOM      8  N   UNL     1       3.079   1.073   3.203  0.00  0.00    -0.351 N 
ATOM      9  H   UNL     1       2.485   0.553   2.639  0.00  0.00    +0.143 HD
ATOM     10  H   UNL     1       2.714   1.621   3.916  0.00  0.00    +0.143 HD
ENDBRANCH   3   8
BRANCH   1  11
ATOM     11  C   UNL     1       3.773  -0.238  -0.061  0.00  0.00    +0.142 C 
BRANCH  11  15
ATOM     12  C   UNL     1       0.088   1.903   0.236  0.00  0.00    +0.000 A 
ATOM     13  C   UNL     1       1.290   2.581   0.313  0.00  0.00    +0.000 A 
ATOM     14  C   UNL     1       2.482   1.889   0.217  0.00  0.00    +0.005 A 
ATOM     15  C   UNL     1       2.473   0.517   0.044  0.00  0.00    -0.030 A 
ATOM     16  C   UNL     1       1.271  -0.162  -0.032  0.00  0.00    +0.005 A 
ATOM     17  C   UNL     1       0.079   0.531   0.063  0.00  0.00    +0.000 A 
ENDBRANCH  11  15
ENDBRANCH   1  11
BRANCH   1  18
ATOM     18  C   UNL     1       3.780  -1.950   1.811  0.00  0.00    +0.142 C 
BRANCH  18  19
ATOM     19  C   UNL     1       4.722  -3.026   1.336  0.00  0.00    -0.030 A 
ATOM     20  C   UNL     1       4.527  -3.622   0.104  0.00  0.00    +0.005 A 
ATOM     21  C   UNL     1       5.391  -4.608  -0.332  0.00  0.00    +0.000 A 
ATOM     22  C   UNL     1       6.452  -4.998   0.464  0.00  0.00    +0.000 A 
ATOM     23  C   UNL     1       6.649  -4.401   1.695  0.00  0.00    +0.000 A 
ATOM     24  C   UNL     1       5.787  -3.412   2.129  0.00  0.00    +0.005 A 
ENDBRANCH  18  19
ENDBRANCH   1  18
BRANCH   4  25
ATOM     25  O   UNL     1       4.839   2.697   4.660  0.00  0.00    -0.434 OA
BRANCH  25  26
ATOM     26  C   UNL     1       5.711   3.542   5.269  0.00  0.00    +0.156 A 
ATOM     27  C   UNL     1       6.289   3.195   6.469  0.00  0.00    +0.049 A 
ATOM     28  C   UNL     1       7.184   4.050   7.105  0.00  0.00    +0.019 A 
ATOM     29  C   UNL     1       7.512   5.254   6.557  0.00  0.00    +0.027 A 
ATOM     30  C   UNL     1       6.942   5.644   5.334  0.00  0.00    +0.018 A 
ATOM     31  C   UNL     1       6.034   4.779   4.674  0.00  0.00    +0.114 A 
ATOM     32  N   UNL     1       5.494   5.145   3.508  0.00  0.00    -0.251 NA
ATOM     33  C   UNL     1       5.790   6.294   2.950  0.00  0.00    +0.111 A 
ATOM     34  C   UNL     1       6.680   7.188   3.542  0.00  0.00    +0.020 A 
ATOM     35  C   UNL     1       7.258   6.881   4.741  0.00  0.00    +0.013 A 
ATOM     36 BR   UNL     1       8.730   6.398   7.443  0.00  0.00    -0.050 Br
ENDBRANCH  25  26
ENDBRANCH   4  25
TORSDOF 7
