REMARK  Name = ZINC62060424
REMARK  6 active torsions:
REMARK  status: ('A' for Active; 'I' for Inactive)
REMARK    1  A    between atoms: C_1  and  C_2
REMARK    2  A    between atoms: C_5  and  C_8
REMARK    3  A    between atoms: C_9  and  C_10
REMARK    4  A    between atoms: C_15  and  C_18
REMARK    5  A    between atoms: C_19  and  C_33
REMARK    6  A    between atoms: C_24  and  C_26
REMARK                            x       y       z     vdW  Elec       q    Type
REMARK                         _______ _______ _______ _____ _____    ______ ____
ROOT
ATOM      1  C   UNL     1       0.094  -6.389   1.135  0.00  0.00    +0.243 C 
ATOM      2  O   UNL     1       0.097  -6.992   0.077  0.00  0.00    -0.270 OA
ATOM      3  N   UNL     1       0.109  -7.070   2.298  0.00  0.00    -0.261 N 
ATOM      4  C   UNL     1       0.128  -8.457   2.291  0.00  0.00    +0.165 A 
ATOM      5  N   UNL     1       0.139  -9.298   3.309  0.00  0.00    -0.224 NA
ATOM      6  C   UNL     1       0.156 -10.610   3.118  0.00  0.00    +0.089 A 
ATOM      7  C   UNL     1       0.163 -11.101   1.840  0.00  0.00    +0.077 A 
ATOM      8  S   UNL     1       0.135  -9.580   0.900  0.00  0.00    -0.060 S 
ATOM      9  H   UNL     1       0.107  -6.589   3.141  0.00  0.00    +0.157 HD
ENDROOT
BRANCH   6  10
ATOM     10  C   UNL     1       0.169 -11.532   4.273  0.00  0.00    +0.062 A 
ATOM     11  C   UNL     1       0.159 -11.255   5.614  0.00  0.00    +0.057 A 
ATOM     12  N   UNL     1       0.173 -12.245   6.480  0.00  0.00    -0.229 NA
ATOM     13  C   UNL     1       0.197 -13.507   6.085  0.00  0.00    +0.165 A 
ATOM     14  S   UNL     1       0.193 -13.320   4.307  0.00  0.00    -0.050 S 
ATOM     15  N   UNL     1       0.215 -14.667   6.848  0.00  0.00    -0.261 N 
ATOM     16  C   UNL     1       0.209 -14.589   8.193  0.00  0.00    +0.251 C 
ATOM     17  O   UNL     1       0.188 -13.502   8.739  0.00  0.00    -0.270 OA
ATOM     18  C   UNL     1       0.134  -9.827   6.094  0.00  0.00    +0.067 C 
ATOM     19  H   UNL     1       0.231 -15.533   6.412  0.00  0.00    +0.157 HD
BRANCH  16  20
ATOM     20  C   UNL     1       0.228 -15.823   9.005  0.00  0.00    +0.055 A 
ATOM     21  C   UNL     1       0.258 -17.072   8.381  0.00  0.00    +0.014 A 
ATOM     22  C   UNL     1       0.276 -18.220   9.144  0.00  0.00    +0.001 A 
ATOM     23  C   UNL     1       0.265 -18.138  10.526  0.00  0.00    +0.001 A 
ATOM     24  C   UNL     1       0.235 -16.905  11.152  0.00  0.00    +0.021 A 
ATOM     25  C   UNL     1       0.223 -15.746  10.400  0.00  0.00    +0.053 A 
ATOM     26 CL   UNL     1       0.193 -14.198  11.186  0.00  0.00    -0.083 Cl
ENDBRANCH  16  20
ENDBRANCH   6  10
BRANCH   1  28
ATOM     27  C   UNL     1       0.060  -4.246  -0.021  0.00  0.00    +0.013 C 
ATOM     28  C   UNL     1       0.075  -4.926   1.143  0.00  0.00    +0.068 C 
BRANCH  27  33
ATOM     29  C   UNL     1      -0.018   1.503   0.010  0.00  0.00    +0.044 C 
ATOM     30  C   UNL     1       0.002  -0.004   0.002  0.00  0.00    -0.050 A 
ATOM     31  C   UNL     1       0.006  -0.686  -1.202  0.00  0.00    +0.004 A 
ATOM     32  C   UNL     1       0.024  -2.064  -1.218  0.00  0.00    +0.008 A 
ATOM     33  C   UNL     1       0.040  -2.774  -0.013  0.00  0.00    -0.025 A 
ATOM     34  C   UNL     1       0.037  -2.078   1.200  0.00  0.00    +0.008 A 
ATOM     35  C   UNL     1       0.023  -0.699   1.199  0.00  0.00    +0.004 A 
ENDBRANCH  27  33
ENDBRANCH   1  28
TORSDOF 4
