REMARK  Name = ZINC36719404
REMARK  8 active torsions:
REMARK  status: ('A' for Active; 'I' for Inactive)
REMARK    1  A    between atoms: C_1  and  C_2
REMARK    2  A    between atoms: C_7  and  C_8
REMARK    3  A    between atoms: C_11  and  C_12
REMARK    4  A    between atoms: C_12  and  C_13
REMARK    5  A    between atoms: N_15  and  C_16
REMARK    6  A    between atoms: C_16  and  C_17
REMARK    7  A    between atoms: C_17  and  C_18
REMARK    8  A    between atoms: C_18  and  N_19
REMARK                            x       y       z     vdW  Elec       q    Type
REMARK                         _______ _______ _______ _____ _____    ______ ____
ROOT
ATOM      1  C   UNL     1       1.434  -2.653  -4.222  0.00  0.00    +0.217 C 
ATOM      2  O   UNL     1       2.356  -2.682  -3.435  0.00  0.00    -0.275 OA
ATOM      3  N   UNL     1       1.670  -2.426  -5.529  0.00  0.00    -0.315 N 
ATOM      4  H   UNL     1       0.932  -2.403  -6.158  0.00  0.00    +0.149 HD
ENDROOT
BRANCH   1   5
ATOM      5  C   UNL     1       0.023  -2.872  -3.738  0.00  0.00    +0.134 C 
BRANCH   5  16
ATOM      6  C   UNL     1      -0.018   1.503   0.010  0.00  0.00    +0.044 C 
ATOM      7  C   UNL     1       0.002  -0.004   0.002  0.00  0.00    -0.047 A 
ATOM      8  C   UNL     1       0.006  -0.683  -1.196  0.00  0.00    +0.015 A 
ATOM      9  C   UNL     1       0.025  -2.077  -1.198  0.00  0.00    +0.024 A 
ATOM     10  C   UNL     1       0.040  -2.784   0.017  0.00  0.00    +0.135 A 
ATOM     11  C   UNL     1       0.036  -2.080   1.214  0.00  0.00    +0.050 A 
ATOM     12  C   UNL     1       0.023  -0.701   1.201  0.00  0.00    -0.044 A 
ATOM     13  C   UNL     1       0.025   0.056   2.504  0.00  0.00    +0.044 C 
ATOM     14  O   UNL     1       0.056  -4.098  -0.286  0.00  0.00    -0.463 OA
ATOM     15  C   UNL     1       0.053  -4.284  -1.617  0.00  0.00    +0.200 A 
ATOM     16  C   UNL     1       0.034  -3.102  -2.248  0.00  0.00    +0.007 A 
ENDBRANCH   5  16
ENDBRANCH   1   5
BRANCH   3  17
ATOM     17  C   UNL     1       3.041  -2.214  -6.000  0.00  0.00    +0.106 C 
BRANCH  17  18
ATOM     18  C   UNL     1       3.030  -1.980  -7.512  0.00  0.00    +0.038 C 
BRANCH  18  19
ATOM     19  C   UNL     1       4.462  -1.758  -8.003  0.00  0.00    +0.119 C 
BRANCH  19  20
ATOM     20  N   UNL     1       4.452  -1.534  -9.451  0.00  0.00    -0.224 N 
ATOM     21  C   UNL     1       4.553  -2.517 -10.372  0.00  0.00    +0.246 C 
ATOM     22  O   UNL     1       4.665  -3.707 -10.169  0.00  0.00    -0.273 OA
ATOM     23  C   UNL     1       4.497  -1.818 -11.707  0.00  0.00    +0.113 C 
ATOM     24  C   UNL     1       3.304  -2.311 -12.537  0.00  0.00    +0.035 C 
ATOM     25  C   UNL     1       3.826  -2.284 -13.996  0.00  0.00    +0.003 C 
ATOM     26  C   UNL     1       5.301  -2.736 -13.843  0.00  0.00    +0.003 C 
ATOM     27  C   UNL     1       5.764  -2.078 -12.524  0.00  0.00    +0.035 C 
ATOM     28  N   UNL     1       4.359  -0.399 -11.372  0.00  0.00    -0.285 N 
ATOM     29  C   UNL     1       4.336  -0.330 -10.026  0.00  0.00    +0.309 C 
ATOM     30  O   UNL     1       4.227   0.709  -9.404  0.00  0.00    -0.252 OA
ATOM     31  H   UNL     1       4.293   0.342 -11.994  0.00  0.00    +0.151 HD
ENDBRANCH  19  20
ENDBRANCH  18  19
ENDBRANCH  17  18
ENDBRANCH   3  17
TORSDOF 6
