REMARK  Name = ZINC01134261
REMARK  8 active torsions:
REMARK  status: ('A' for Active; 'I' for Inactive)
REMARK    1  A    between atoms: N_9  and  C_12
REMARK    2  A    between atoms: C_12  and  C_13
REMARK    3  A    between atoms: C_13  and  C_14
REMARK    4  A    between atoms: C_14  and  C_15
REMARK    5  A    between atoms: N_17  and  C_18
REMARK    6  A    between atoms: C_19  and  C_26
REMARK    7  A    between atoms: N_28  and  C_29
REMARK    8  A    between atoms: C_29  and  C_30
REMARK                            x       y       z     vdW  Elec       q    Type
REMARK                         _______ _______ _______ _____ _____    ______ ____
ROOT
ATOM      1  C   UNL     1      -2.257   2.498  -3.496  0.00  0.00    +0.218 C 
ATOM      2  O   UNL     1      -3.300   3.079  -3.285  0.00  0.00    -0.275 OA
ATOM      3  N   UNL     1      -1.504   2.068  -2.463  0.00  0.00    -0.279 N 
ATOM      4  H   UNL     1      -0.670   1.603  -2.632  0.00  0.00    +0.155 HD
ENDROOT
BRANCH   3   5
ATOM      5  C   UNL     1      -1.923   2.290  -1.160  0.00  0.00    +0.084 A 
ATOM      6  C   UNL     1      -1.294   1.929   0.019  0.00  0.00    +0.069 A 
ATOM      7  C   UNL     1      -1.949   2.292   1.275  0.00  0.00    -0.023 A 
ATOM      8  C   UNL     1      -3.119   2.944   1.141  0.00  0.00    -0.004 A 
ATOM      9  S   UNL     1      -3.360   3.085  -0.613  0.00  0.00    -0.077 S 
ATOM     10  C   UNL     1      -3.732   3.280   2.473  0.00  0.00    +0.043 C 
ATOM     11  C   UNL     1      -2.998   2.368   3.481  0.00  0.00    +0.010 C 
ATOM     12  C   UNL     1      -1.654   2.128   2.766  0.00  0.00    +0.037 C 
BRANCH   6  13
ATOM     13  C   UNL     1      -0.014   1.213   0.009  0.00  0.00    +0.247 C 
ATOM     14  O   UNL     1       0.002  -0.004   0.002  0.00  0.00    -0.270 OA
ATOM     15  N   UNL     1       1.143   1.903   0.001  0.00  0.00    -0.309 N 
ATOM     16  H   UNL     1       1.130   2.873   0.007  0.00  0.00    +0.149 HD
BRANCH  15  17
ATOM     17  C   UNL     1       2.422   1.188  -0.015  0.00  0.00    +0.136 C 
BRANCH  17  18
ATOM     18  C   UNL     1       3.571   2.197  -0.020  0.00  0.00    +0.135 C 
ATOM     19  C   UNL     1       4.926   1.469  -0.163  0.00  0.00    +0.035 C 
ATOM     20  C   UNL     1       5.884   2.278   0.740  0.00  0.00    +0.031 C 
ATOM     21  C   UNL     1       4.995   3.399   1.322  0.00  0.00    +0.160 C 
ATOM     22  O   UNL     1       3.650   2.877   1.252  0.00  0.00    -0.375 OA
ENDBRANCH  17  18
ENDBRANCH  15  17
ENDBRANCH   6  13
ENDBRANCH   3   5
BRANCH   1  23
ATOM     23  C   UNL     1      -1.802   2.256  -4.912  0.00  0.00    +0.097 C 
BRANCH  23  24
ATOM     24  C   UNL     1      -2.830   2.838  -5.884  0.00  0.00    +0.029 C 
BRANCH  24  25
ATOM     25  C   UNL     1      -2.368   2.593  -7.322  0.00  0.00    +0.117 C 
BRANCH  25  34
ATOM     26  C   UNL     1      -6.090   5.498 -11.159  0.00  0.00    +0.001 A 
ATOM     27  C   UNL     1      -6.764   4.291 -11.170  0.00  0.00    +0.001 A 
ATOM     28  C   UNL     1      -6.305   3.223 -10.416  0.00  0.00    +0.014 A 
ATOM     29  C   UNL     1      -5.162   3.367  -9.646  0.00  0.00    +0.049 A 
ATOM     30  C   UNL     1      -4.474   4.597  -9.635  0.00  0.00    +0.049 A 
ATOM     31  C   UNL     1      -4.946   5.657 -10.394  0.00  0.00    +0.014 A 
ATOM     32  C   UNL     1      -3.322   4.409  -8.728  0.00  0.00    +0.254 C 
ATOM     33  O   UNL     1      -2.489   5.250  -8.457  0.00  0.00    -0.270 OA
ATOM     34  N   UNL     1      -3.352   3.151  -8.253  0.00  0.00    -0.234 N 
ATOM     35  C   UNL     1      -4.401   2.471  -8.749  0.00  0.00    +0.254 C 
ATOM     36  O   UNL     1      -4.679   1.315  -8.501  0.00  0.00    -0.270 OA
ENDBRANCH  25  34
ENDBRANCH  24  25
ENDBRANCH  23  24
ENDBRANCH   1  23
TORSDOF 8
