REMARK  Name = ZINC46816036
REMARK  8 active torsions:
REMARK  status: ('A' for Active; 'I' for Inactive)
REMARK    1  A    between atoms: C_1  and  C_2
REMARK    2  A    between atoms: C_5  and  N_24
REMARK    3  A    between atoms: C_6  and  N_9
REMARK    4  A    between atoms: C_7  and  C_8
REMARK    5  A    between atoms: C_10  and  C_12
REMARK    6  A    between atoms: C_12  and  C_14
REMARK    7  A    between atoms: C_12  and  N_15
REMARK    8  A    between atoms: N_15  and  C_16
REMARK                            x       y       z     vdW  Elec       q    Type
REMARK                         _______ _______ _______ _____ _____    ______ ____
ROOT
ATOM      1  N   UNL     1      -0.322  -2.454   2.536  0.00  0.00    -0.282 N 
ATOM      2  C   UNL     1       0.080  -3.714   2.799  0.00  0.00    +0.237 C 
ATOM      3  O   UNL     1       0.506  -4.413   1.905  0.00  0.00    -0.273 OA
ATOM      4  H   UNL     1      -0.738  -1.923   3.233  0.00  0.00    +0.155 HD
ENDROOT
BRANCH   1  10
ATOM      5  C   UNL     1      -0.973  -2.779  -2.326  0.00  0.00    +0.044 C 
ATOM      6  C   UNL     1      -0.446  -2.051  -1.116  0.00  0.00    -0.046 A 
ATOM      7  C   UNL     1       0.218  -0.847  -1.269  0.00  0.00    +0.006 A 
ATOM      8  C   UNL     1       0.702  -0.176  -0.162  0.00  0.00    +0.035 A 
ATOM      9  C   UNL     1       0.525  -0.706   1.101  0.00  0.00    +0.148 A 
ATOM     10  C   UNL     1      -0.141  -1.915   1.258  0.00  0.00    +0.067 A 
ATOM     11  C   UNL     1      -0.632  -2.583   0.144  0.00  0.00    -0.024 A 
ATOM     12  C   UNL     1      -1.360  -3.892   0.310  0.00  0.00    +0.046 C 
BRANCH   9  13
ATOM     13  N   UNL     1       1.045   0.012   2.286  0.00  0.00    +0.058 N 
ATOM     14  O   UNL     1       1.677   1.033   2.145  0.00  0.00    -0.126 OA
ATOM     15  O   UNL     1       0.839  -0.422   3.396  0.00  0.00    -0.126 OA
ENDBRANCH   9  13
ENDBRANCH   1  10
BRANCH   2  16
ATOM     16  C   UNL     1      -0.000  -4.252   4.204  0.00  0.00    +0.154 C 
ATOM     17  C   UNL     1       0.858  -3.389   5.131  0.00  0.00    +0.038 C 
BRANCH  16  18
ATOM     18  N   UNL     1       0.492  -5.632   4.227  0.00  0.00    -0.333 N 
ATOM     19  H   UNL     1       1.117  -5.935   3.550  0.00  0.00    +0.147 HD
BRANCH  18  20
ATOM     20  C   UNL     1       0.061  -6.512   5.225  0.00  0.00    +0.031 A 
ATOM     21  C   UNL     1      -0.838  -6.080   6.191  0.00  0.00    +0.026 A 
ATOM     22  C   UNL     1      -1.263  -6.950   7.177  0.00  0.00    +0.043 A 
ATOM     23  C   UNL     1      -0.793  -8.252   7.202  0.00  0.00    +0.159 A 
ATOM     24  C   UNL     1       0.105  -8.686   6.239  0.00  0.00    +0.160 A 
ATOM     25  C   UNL     1       0.528  -7.819   5.247  0.00  0.00    +0.064 A 
ATOM     26  F   UNL     1       0.563  -9.956   6.266  0.00  0.00    -0.202 F 
ATOM     27  F   UNL     1      -1.210  -9.100   8.168  0.00  0.00    -0.202 F 
ENDBRANCH  18  20
ENDBRANCH  16  18
ENDBRANCH   2  16
TORSDOF 5
