REMARK  Name = ZINC41585539
REMARK  7 active torsions:
REMARK  status: ('A' for Active; 'I' for Inactive)
REMARK    1  A    between atoms: C_1  and  C_2
REMARK    2  A    between atoms: C_4  and  O_36
REMARK    3  A    between atoms: C_5  and  C_22
REMARK    4  A    between atoms: C_11  and  C_12
REMARK    5  A    between atoms: C_16  and  N_18
REMARK    6  A    between atoms: C_22  and  N_23
REMARK    7  A    between atoms: N_26  and  C_29
REMARK                            x       y       z     vdW  Elec       q    Type
REMARK                         _______ _______ _______ _____ _____    ______ ____
ROOT
ATOM      1  C   UNL     1      -0.465   1.819   0.201  0.00  0.00    +0.045 C 
ATOM      2  C   UNL     1      -0.338   0.323   0.073  0.00  0.00    -0.033 A 
ATOM      3  C   UNL     1      -0.348  -0.262  -1.162  0.00  0.00    +0.050 A 
ATOM      4  C   UNL     1      -0.230  -1.644  -1.282  0.00  0.00    +0.122 A 
ATOM      5  C   UNL     1      -0.101  -2.441  -0.156  0.00  0.00    +0.020 A 
ATOM      6  C   UNL     1      -0.089  -1.863   1.107  0.00  0.00    +0.145 A 
ATOM      7  C   UNL     1      -0.203  -0.467   1.215  0.00  0.00    +0.071 A 
ATOM      8  C   UNL     1      -0.152  -0.157   2.656  0.00  0.00    +0.232 C 
ATOM      9  O   UNL     1      -0.222   0.938   3.186  0.00  0.00    -0.283 OA
ATOM     10  C   UNL     1       0.002  -1.466   3.310  0.00  0.00    +0.176 C 
ATOM     11  C   UNL     1       0.096  -1.689   4.644  0.00  0.00    +0.058 C 
ATOM     12  O   UNL     1       0.022  -2.408   2.338  0.00  0.00    -0.451 OA
ENDROOT
BRANCH  11  13
ATOM     13  C   UNL     1       0.136  -3.066   5.158  0.00  0.00    -0.019 A 
ATOM     14  C   UNL     1       0.214  -4.146   4.271  0.00  0.00    +0.008 A 
ATOM     15  C   UNL     1       0.252  -5.434   4.761  0.00  0.00    +0.003 A 
ATOM     16  C   UNL     1       0.213  -5.660   6.126  0.00  0.00    +0.033 A 
ATOM     17  C   UNL     1       0.136  -4.598   7.010  0.00  0.00    +0.127 A 
ATOM     18  C   UNL     1       0.103  -3.304   6.536  0.00  0.00    +0.040 A 
BRANCH  17  19
ATOM     19  N   UNL     1       0.095  -4.852   8.468  0.00  0.00    +0.056 N 
ATOM     20  O   UNL     1       0.128  -5.986   8.885  0.00  0.00    -0.126 OA
ATOM     21  O   UNL     1       0.027  -3.925   9.241  0.00  0.00    -0.126 OA
ENDBRANCH  17  19
ENDBRANCH  11  13
BRANCH   4  22
ATOM     22  O   UNL     1      -0.241  -2.215  -2.513  0.00  0.00    -0.506 OA
ATOM     23  H   UNL     1       0.634  -2.302  -2.915  0.00  0.00    +0.292 HD
ENDBRANCH   4  22
BRANCH   5  24
ATOM     24  C   UNL     1       0.026  -3.936  -0.301  0.00  0.00    -0.035 C 
BRANCH  24  25
ATOM     25  N   UNL     1       1.444  -4.298  -0.419  0.00  0.00    +0.385 N 
ATOM     26  C   UNL     1       1.992  -3.729  -1.657  0.00  0.00    -0.059 C 
ATOM     27  C   UNL     1       3.497  -4.008  -1.724  0.00  0.00    +0.086 C 
ATOM     28  N   UNL     1       3.710  -5.456  -1.575  0.00  0.00    -0.333 N 
ATOM     29  C   UNL     1       3.059  -6.140  -0.447  0.00  0.00    +0.086 C 
ATOM     30  C   UNL     1       1.574  -5.760  -0.440  0.00  0.00    -0.059 C 
ATOM     31  H   UNL     1       1.951  -3.928   0.371  0.00  0.00    -0.081 HD
BRANCH  28  32
ATOM     32  C   UNL     1       4.509  -6.163  -2.479  0.00  0.00    +0.030 A 
ATOM     33  C   UNL     1       5.215  -5.482  -3.462  0.00  0.00    +0.026 A 
ATOM     34  C   UNL     1       6.004  -6.181  -4.354  0.00  0.00    +0.040 A 
ATOM     35  C   UNL     1       6.091  -7.561  -4.269  0.00  0.00    +0.124 A 
ATOM     36  C   UNL     1       5.387  -8.242  -3.290  0.00  0.00    +0.040 A 
ATOM     37  C   UNL     1       4.601  -7.546  -2.393  0.00  0.00    +0.026 A 
ATOM     38  F   UNL     1       6.863  -8.243  -5.143  0.00  0.00    -0.205 F 
ENDBRANCH  28  32
ENDBRANCH  24  25
ENDBRANCH   5  24
TORSDOF 6
