REMARK  Name = ZINC35393011
REMARK  6 active torsions:
REMARK  status: ('A' for Active; 'I' for Inactive)
REMARK    1  A    between atoms: C_1  and  N_2
REMARK    2  A    between atoms: C_4  and  C_11
REMARK    3  A    between atoms: C_11  and  C_13
REMARK    4  A    between atoms: C_11  and  C_26
REMARK    5  A    between atoms: C_13  and  C_14
REMARK    6  A    between atoms: N_16  and  C_17
REMARK                            x       y       z     vdW  Elec       q    Type
REMARK                         _______ _______ _______ _____ _____    ______ ____
ROOT
ATOM      1  C   UNL     1       0.039  -3.258  -1.721  0.00  0.00    +0.060 C 
ENDROOT
BRANCH   1   5
ATOM      2  C   UNL     1      -0.018   1.461   0.010  0.00  0.00    +0.149 C 
ATOM      3  N   UNL     1       0.002  -0.004   0.002  0.00  0.00    -0.349 N 
ATOM      4  C   UNL     1       0.008  -0.784  -1.122  0.00  0.00    +0.090 A 
ATOM      5  C   UNL     1       0.027  -2.082  -0.779  0.00  0.00    -0.014 A 
ATOM      6  C   UNL     1       0.034  -2.138   0.685  0.00  0.00    +0.004 A 
ATOM      7  C   UNL     1       0.024  -0.801   1.125  0.00  0.00    +0.049 A 
ATOM      8  C   UNL     1       0.032  -0.533   2.489  0.00  0.00    +0.026 A 
ATOM      9  C   UNL     1       0.055  -1.574   3.391  0.00  0.00    +0.002 A 
ATOM     10  C   UNL     1       0.069  -2.891   2.952  0.00  0.00    +0.001 A 
ATOM     11  C   UNL     1       0.051  -3.177   1.616  0.00  0.00    +0.010 A 
ENDBRANCH   1   5
BRANCH   1  12
ATOM     12  C   UNL     1       1.265  -3.190  -2.595  0.00  0.00    -0.039 A 
ATOM     13  C   UNL     1       1.468  -2.096  -3.416  0.00  0.00    +0.004 A 
ATOM     14  C   UNL     1       2.593  -2.034  -4.217  0.00  0.00    +0.000 A 
ATOM     15  C   UNL     1       3.514  -3.064  -4.197  0.00  0.00    +0.000 A 
ATOM     16  C   UNL     1       3.311  -4.157  -3.376  0.00  0.00    +0.000 A 
ATOM     17  C   UNL     1       2.188  -4.218  -2.571  0.00  0.00    +0.004 A 
ENDBRANCH   1  12
BRANCH   1  18
ATOM     18  C   UNL     1      -1.215  -3.222  -2.598  0.00  0.00    +0.108 C 
BRANCH  18  19
ATOM     19  C   UNL     1      -1.266  -4.461  -3.453  0.00  0.00    +0.215 C 
ATOM     20  O   UNL     1      -0.386  -5.292  -3.370  0.00  0.00    -0.276 OA
ATOM     21  N   UNL     1      -2.289  -4.647  -4.311  0.00  0.00    -0.304 N 
ATOM     22  H   UNL     1      -2.992  -3.982  -4.377  0.00  0.00    +0.149 HD
BRANCH  21  23
ATOM     23  C   UNL     1      -2.338  -5.852  -5.143  0.00  0.00    +0.159 C 
ATOM     24  C   UNL     1      -3.787  -6.144  -5.538  0.00  0.00    +0.032 C 
ATOM     25  C   UNL     1      -3.972  -7.618  -5.852  0.00  0.00    +0.004 C 
ATOM     26  C   UNL     1      -3.229  -8.079  -7.092  0.00  0.00    +0.019 C 
ATOM     27  C   UNL     1      -1.716  -8.015  -6.877  0.00  0.00    +0.104 C 
ATOM     28  N   UNL     1      -1.250  -6.658  -7.209  0.00  0.00    -0.314 N 
ATOM     29  C   UNL     1      -1.526  -5.634  -6.402  0.00  0.00    +0.233 C 
ATOM     30  O   UNL     1      -1.130  -4.522  -6.681  0.00  0.00    -0.274 OA
ATOM     31  H   UNL     1      -0.735  -6.510  -8.018  0.00  0.00    +0.149 HD
ENDBRANCH  21  23
ENDBRANCH  18  19
ENDBRANCH   1  18
TORSDOF 5
