REMARK  Name = ZINC08298211
REMARK  9 active torsions:
REMARK  status: ('A' for Active; 'I' for Inactive)
REMARK    1  A    between atoms: C_1  and  C_2
REMARK    2  A    between atoms: C_2  and  C_3
REMARK    3  A    between atoms: C_2  and  C_4
REMARK    4  A    between atoms: C_2  and  O_30
REMARK    5  A    between atoms: N_6  and  C_9
REMARK    6  A    between atoms: C_9  and  C_10
REMARK    7  A    between atoms: C_18  and  C_20
REMARK    8  A    between atoms: N_22  and  C_23
REMARK    9  A    between atoms: C_23  and  C_24
REMARK                            x       y       z     vdW  Elec       q    Type
REMARK                         _______ _______ _______ _____ _____    ______ ____
ROOT
ATOM      1  C   UNL     1      -2.865   1.571   0.104  0.00  0.00    -0.046 C 
ATOM      2  C   UNL     1      -2.201   1.073  -1.183  0.00  0.00    -0.010 C 
ATOM      3  C   UNL     1      -0.760   1.597  -1.230  0.00  0.00    -0.004 C 
ATOM      4  C   UNL     1      -0.013   1.086   0.008  0.00  0.00    -0.015 C 
ATOM      5  C   UNL     1      -0.735   1.582   1.264  0.00  0.00    -0.078 C 
ATOM      6  C   UNL     1      -1.498   3.569   0.103  0.00  0.00    -0.065 C 
ATOM      7  C   UNL     1      -0.794   3.129  -1.184  0.00  0.00    +0.061 C 
ATOM      8  N   UNL     1      -1.919   2.391   0.890  0.00  0.00    +0.383 N 
ATOM      9  H   UNL     1      -2.387   2.712   1.746  0.00  0.00    -0.081 HD
ENDROOT
BRANCH   7  10
ATOM     10  C   UNL     1      -1.547   3.654  -2.379  0.00  0.00    +0.215 C 
ATOM     11  O   UNL     1      -2.012   2.882  -3.190  0.00  0.00    -0.276 OA
ATOM     12  N   UNL     1      -1.704   4.982  -2.546  0.00  0.00    -0.311 N 
ATOM     13  H   UNL     1      -1.332   5.600  -1.897  0.00  0.00    +0.149 HD
BRANCH  12  14
ATOM     14  C   UNL     1      -2.436   5.493  -3.708  0.00  0.00    +0.139 C 
BRANCH  14  15
ATOM     15  C   UNL     1      -2.468   6.999  -3.660  0.00  0.00    -0.030 A 
ATOM     16  C   UNL     1      -3.506   7.648  -3.018  0.00  0.00    +0.005 A 
ATOM     17  C   UNL     1      -3.533   9.029  -2.970  0.00  0.00    +0.000 A 
ATOM     18  C   UNL     1      -2.527   9.761  -3.572  0.00  0.00    +0.000 A 
ATOM     19  C   UNL     1      -1.492   9.113  -4.218  0.00  0.00    +0.000 A 
ATOM     20  C   UNL     1      -1.462   7.731  -4.262  0.00  0.00    +0.005 A 
ENDBRANCH  14  15
ENDBRANCH  12  14
ENDBRANCH   7  10
BRANCH   1  21
ATOM     21  C   UNL     1      -4.086   2.423  -0.248  0.00  0.00    +0.130 C 
BRANCH  21  24
ATOM     22  C   UNL     1      -5.734   3.955   2.549  0.00  0.00    +0.114 A 
ATOM     23  C   UNL     1      -5.087   4.065   1.365  0.00  0.00    +0.136 A 
ATOM     24  N   UNL     1      -4.788   2.802   0.980  0.00  0.00    -0.253 N 
ATOM     25  N   UNL     1      -5.222   1.992   1.882  0.00  0.00    -0.065 NA
ATOM     26  N   UNL     1      -5.791   2.648   2.831  0.00  0.00    -0.132 NA
BRANCH  22  28
ATOM     27  C   UNL     1      -6.927   4.512   4.651  0.00  0.00    +0.048 C 
ATOM     28  C   UNL     1      -6.277   5.082   3.388  0.00  0.00    +0.105 C 
ATOM     29  C   UNL     1      -5.135   6.021   3.782  0.00  0.00    +0.048 C 
BRANCH  28  30
ATOM     30  O   UNL     1      -7.252   5.808   2.637  0.00  0.00    -0.383 OA
ATOM     31  H   UNL     1      -6.910   6.199   1.821  0.00  0.00    +0.211 HD
ENDBRANCH  28  30
ENDBRANCH  22  28
ENDBRANCH  21  24
ENDBRANCH   1  21
TORSDOF 7
