REMARK  Name = ZINC13506244
REMARK  10 active torsions:
REMARK  status: ('A' for Active; 'I' for Inactive)
REMARK    1  A    between atoms: C_1  and  C_2
REMARK    2  A    between atoms: C_5  and  C_8
REMARK    3  A    between atoms: C_8  and  C_10
REMARK    4  A    between atoms: C_8  and  N_18
REMARK    5  A    between atoms: N_12  and  C_13
REMARK    6  A    between atoms: N_18  and  C_19
REMARK    7  A    between atoms: C_24  and  C_25
REMARK    8  A    between atoms: C_26  and  C_28
REMARK    9  A    between atoms: C_28  and  N_29
REMARK   10  A    between atoms: C_30  and  C_32
REMARK                            x       y       z     vdW  Elec       q    Type
REMARK                         _______ _______ _______ _____ _____    ______ ____
ROOT
ATOM      1  N   UNL     1      -5.447   2.367   0.272  0.00  0.00    -0.254 N 
ATOM      2  C   UNL     1      -4.390   1.883  -0.410  0.00  0.00    +0.238 C 
ATOM      3  O   UNL     1      -4.566   1.242  -1.424  0.00  0.00    -0.274 OA
ENDROOT
BRANCH   1   4
ATOM      4  C   UNL     1      -5.245   3.107   1.442  0.00  0.00    +0.040 A 
ATOM      5  C   UNL     1      -5.006   4.473   1.369  0.00  0.00    +0.024 A 
ATOM      6  C   UNL     1      -4.807   5.201   2.526  0.00  0.00    +0.002 A 
ATOM      7  C   UNL     1      -4.845   4.570   3.756  0.00  0.00    +0.000 A 
ATOM      8  C   UNL     1      -5.083   3.210   3.833  0.00  0.00    +0.005 A 
ATOM      9  C   UNL     1      -5.288   2.478   2.680  0.00  0.00    -0.029 A 
ATOM     10  C   UNL     1      -5.553   0.997   2.764  0.00  0.00    +0.045 C 
ENDBRANCH   1   4
BRANCH   1  11
ATOM     11  C   UNL     1      -6.807   2.118  -0.211  0.00  0.00    +0.197 C 
BRANCH  11  16
ATOM     12  C   UNL     1     -10.618   4.132   3.638  0.00  0.00    +0.044 C 
ATOM     13  C   UNL     1      -9.624   3.607   2.634  0.00  0.00    -0.050 A 
ATOM     14  C   UNL     1      -9.594   2.258   2.332  0.00  0.00    +0.004 A 
ATOM     15  C   UNL     1      -8.683   1.776   1.411  0.00  0.00    +0.006 A 
ATOM     16  C   UNL     1      -7.801   2.643   0.793  0.00  0.00    -0.018 A 
ATOM     17  C   UNL     1      -7.827   3.991   1.099  0.00  0.00    +0.006 A 
ATOM     18  C   UNL     1      -8.742   4.473   2.016  0.00  0.00    +0.004 A 
ENDBRANCH  11  16
BRANCH  11  19
ATOM     19  C   UNL     1      -7.008   2.818  -1.530  0.00  0.00    +0.239 C 
ATOM     20  O   UNL     1      -6.103   3.462  -2.019  0.00  0.00    -0.273 OA
ATOM     21  N   UNL     1      -8.192   2.729  -2.167  0.00  0.00    -0.311 N 
ATOM     22  H   UNL     1      -8.915   2.214  -1.777  0.00  0.00    +0.149 HD
BRANCH  21  23
ATOM     23  C   UNL     1      -8.387   3.410  -3.450  0.00  0.00    +0.073 C 
ATOM     24  C   UNL     1      -8.870   4.855  -3.213  0.00  0.00    +0.022 C 
ATOM     25  C   UNL     1      -9.882   5.111  -4.358  0.00  0.00    +0.002 C 
ATOM     26  C   UNL     1     -10.605   3.747  -4.485  0.00  0.00    +0.002 C 
ATOM     27  C   UNL     1      -9.490   2.705  -4.259  0.00  0.00    +0.022 C 
ENDBRANCH  21  23
ENDBRANCH  11  19
ENDBRANCH   1  11
BRANCH   2  28
ATOM     28  C   UNL     1      -2.991   2.139   0.087  0.00  0.00    +0.201 C 
BRANCH  28  29
ATOM     29  N   UNL     1      -2.027   1.514  -0.822  0.00  0.00    -0.302 N 
ATOM     30  C   UNL     1      -0.706   1.613  -0.576  0.00  0.00    +0.251 C 
ATOM     31  O   UNL     1      -0.313   2.222   0.402  0.00  0.00    -0.270 OA
ATOM     32  H   UNL     1      -2.340   1.029  -1.602  0.00  0.00    +0.150 HD
BRANCH  30  33
ATOM     33  C   UNL     1       0.258   0.988  -1.486  0.00  0.00    +0.074 A 
ATOM     34  C   UNL     1       1.642   0.976  -1.419  0.00  0.00    +0.021 A 
ATOM     35  C   UNL     1       2.311   0.312  -2.417  0.00  0.00    +0.008 A 
ATOM     36  C   UNL     1       1.600  -0.290  -3.405  0.00  0.00    +0.046 A 
ATOM     37  S   UNL     1      -0.044   0.050  -2.973  0.00  0.00    -0.092 S 
ENDBRANCH  30  33
ENDBRANCH  28  29
ENDBRANCH   2  28
TORSDOF 8
