REMARK  Name = ZINC67239893
REMARK  6 active torsions:
REMARK  status: ('A' for Active; 'I' for Inactive)
REMARK    1  A    between atoms: C_4  and  C_7
REMARK    2  A    between atoms: C_14  and  S_21
REMARK    3  A    between atoms: N_15  and  C_18
REMARK    4  A    between atoms: S_21  and  C_22
REMARK    5  A    between atoms: C_22  and  C_23
REMARK    6  A    between atoms: N_25  and  C_26
REMARK                            x       y       z     vdW  Elec       q    Type
REMARK                         _______ _______ _______ _____ _____    ______ ____
ROOT
ATOM      1  C   UNL     1       3.140  -0.765   0.405  0.00  0.00    +0.026 A 
ATOM      2  C   UNL     1       4.029  -0.442  -0.575  0.00  0.00    +0.093 A 
ATOM      3  N   UNL     1       5.133  -1.226  -0.464  0.00  0.00    -0.355 N 
ATOM      4  H   UNL     1       5.906  -1.183  -1.048  0.00  0.00    +0.166 HD
ATOM      5  C   UNL     1       4.993  -2.090   0.601  0.00  0.00    +0.131 A 
ATOM      6  C   UNL     1       3.751  -1.837   1.193  0.00  0.00    +0.104 A 
ATOM      7  N   UNL     1       3.364  -2.546   2.267  0.00  0.00    -0.221 NA
ATOM      8  C   UNL     1       4.140  -3.476   2.776  0.00  0.00    +0.173 A 
ATOM      9  N   UNL     1       5.363  -3.762   2.242  0.00  0.00    -0.283 N 
ATOM     10  C   UNL     1       5.810  -3.093   1.157  0.00  0.00    +0.279 A 
ATOM     11  O   UNL     1       6.904  -3.343   0.677  0.00  0.00    -0.265 OA
ENDROOT
BRANCH   1  15
ATOM     12  C   UNL     1      -0.666   1.013   1.059  0.00  0.00    +0.000 A 
ATOM     13  C   UNL     1       0.450   1.814   0.899  0.00  0.00    +0.001 A 
ATOM     14  C   UNL     1       1.688   1.243   0.687  0.00  0.00    +0.008 A 
ATOM     15  C   UNL     1       1.813  -0.145   0.633  0.00  0.00    -0.014 A 
ATOM     16  C   UNL     1       0.684  -0.947   0.795  0.00  0.00    +0.008 A 
ATOM     17  C   UNL     1      -0.549  -0.364   1.006  0.00  0.00    +0.001 A 
ENDBRANCH   1  15
BRANCH   9  18
ATOM     18  C   UNL     1       6.194  -4.808   2.845  0.00  0.00    +0.093 C 
ATOM     19  C   UNL     1       6.829  -5.835   1.905  0.00  0.00    +0.027 C 
ATOM     20  C   UNL     1       5.662  -6.242   2.806  0.00  0.00    +0.027 C 
ENDBRANCH   9  18
BRANCH   8  21
ATOM     21  S   UNL     1       3.587  -4.378   4.186  0.00  0.00    -0.078 S 
BRANCH  21  22
ATOM     22  C   UNL     1       1.952  -3.678   4.540  0.00  0.00    +0.173 C 
BRANCH  22  23
ATOM     23  C   UNL     1       1.359  -4.369   5.741  0.00  0.00    +0.227 C 
ATOM     24  O   UNL     1       1.979  -5.248   6.302  0.00  0.00    -0.275 OA
ATOM     25  N   UNL     1       0.140  -4.011   6.191  0.00  0.00    -0.285 N 
ATOM     26  H   UNL     1      -0.388  -3.363   5.699  0.00  0.00    +0.155 HD
BRANCH  25  27
ATOM     27  C   UNL     1      -0.364  -4.575   7.368  0.00  0.00    +0.034 A 
ATOM     28  C   UNL     1      -1.725  -4.828   7.491  0.00  0.00    +0.023 A 
ATOM     29  C   UNL     1      -2.220  -5.385   8.654  0.00  0.00    +0.003 A 
ATOM     30  C   UNL     1      -1.363  -5.691   9.696  0.00  0.00    +0.015 A 
ATOM     31  C   UNL     1      -0.008  -5.440   9.577  0.00  0.00    +0.020 A 
ATOM     32  C   UNL     1       0.495  -4.889   8.413  0.00  0.00    +0.038 A 
ATOM     33 BR   UNL     1       1.160  -5.859  11.004  0.00  0.00    -0.050 Br
ENDBRANCH  25  27
ENDBRANCH  22  23
ENDBRANCH  21  22
ENDBRANCH   8  21
TORSDOF 6
