REMARK  Name = ZINC29720682
REMARK  7 active torsions:
REMARK  status: ('A' for Active; 'I' for Inactive)
REMARK    1  A    between atoms: C_4  and  N_7
REMARK    2  A    between atoms: C_10  and  C_32
REMARK    3  A    between atoms: C_11  and  N_12
REMARK    4  A    between atoms: C_13  and  C_15
REMARK    5  A    between atoms: C_15  and  N_16
REMARK    6  A    between atoms: C_19  and  N_22
REMARK    7  A    between atoms: C_23  and  C_25
REMARK                            x       y       z     vdW  Elec       q    Type
REMARK                         _______ _______ _______ _____ _____    ______ ____
ROOT
ATOM      1  N   UNL     1      -1.091   2.200  -4.738  0.00  0.00    -0.272 N 
ATOM      2  C   UNL     1      -2.139   2.619  -5.477  0.00  0.00    +0.202 C 
ATOM      3  O   UNL     1      -3.158   2.984  -4.931  0.00  0.00    -0.278 OA
ATOM      4  H   UNL     1      -0.161   1.884  -5.233  0.00  0.00    +0.156 HD
ENDROOT
BRANCH   1   9
ATOM      5  N   UNL     1      -2.289   1.816  -2.636  0.00  0.00    -0.300 N 
ATOM      6  C   UNL     1      -2.022   1.899  -1.296  0.00  0.00    +0.030 A 
ATOM      7  C   UNL     1      -0.749   2.306  -1.127  0.00  0.00    -0.007 A 
ATOM      8  C   UNL     1      -0.175   2.490  -2.458  0.00  0.00    +0.095 A 
ATOM      9  C   UNL     1      -1.187   2.169  -3.355  0.00  0.00    +0.128 A 
ATOM     10  C   UNL     1      -0.086   2.518   0.208  0.00  0.00    +0.038 C 
ATOM     11  C   UNL     1      -1.177   2.597   1.284  0.00  0.00    +0.005 C 
ATOM     12  C   UNL     1      -2.135   1.413   1.122  0.00  0.00    +0.006 C 
ATOM     13  C   UNL     1      -2.963   1.594  -0.155  0.00  0.00    +0.054 C 
BRANCH   5  17
ATOM     14  C   UNL     1      -5.941   0.654  -4.275  0.00  0.00    +0.000 A 
ATOM     15  C   UNL     1      -4.809  -0.109  -4.500  0.00  0.00    +0.002 A 
ATOM     16  C   UNL     1      -3.598   0.274  -3.958  0.00  0.00    +0.026 A 
ATOM     17  C   UNL     1      -3.517   1.426  -3.187  0.00  0.00    +0.048 A 
ATOM     18  C   UNL     1      -4.655   2.186  -2.958  0.00  0.00    +0.026 A 
ATOM     19  C   UNL     1      -5.863   1.801  -3.507  0.00  0.00    +0.002 A 
ENDBRANCH   5  17
BRANCH   8  20
ATOM     20  C   UNL     1       1.155   2.916  -2.773  0.00  0.00    +0.103 C 
ATOM     21  N   UNL     1       2.211   3.253  -3.023  0.00  0.00    -0.191 NA
ENDBRANCH   8  20
ENDBRANCH   1   9
BRANCH   2  22
ATOM     22  C   UNL     1      -2.043   2.632  -6.981  0.00  0.00    +0.019 C 
BRANCH  22  23
ATOM     23  N   UNL     1      -3.305   3.126  -7.547  0.00  0.00    +0.386 N 
ATOM     24  C   UNL     1      -4.406   2.194  -7.271  0.00  0.00    -0.076 C 
ATOM     25  C   UNL     1      -5.726   2.806  -7.746  0.00  0.00    +0.004 C 
ATOM     26  C   UNL     1      -5.639   3.091  -9.248  0.00  0.00    +0.070 C 
ATOM     27  C   UNL     1      -4.455   4.025  -9.514  0.00  0.00    +0.004 C 
ATOM     28  C   UNL     1      -3.172   3.378  -8.988  0.00  0.00    -0.076 C 
ATOM     29  H   UNL     1      -3.545   4.082  -7.060  0.00  0.00    -0.081 HD
BRANCH  26  30
ATOM     30  N   UNL     1      -6.878   3.731  -9.697  0.00  0.00    -0.309 N 
ATOM     31  C   UNL     1      -7.940   2.976 -10.040  0.00  0.00    +0.244 C 
ATOM     32  O   UNL     1      -7.870   1.764  -9.976  0.00  0.00    -0.270 OA
ATOM     33  H   UNL     1      -6.941   4.827  -9.754  0.00  0.00    +0.149 HD
BRANCH  31  34
ATOM     34  C   UNL     1      -9.190   3.621 -10.493  0.00  0.00    +0.037 A 
ATOM     35  C   UNL     1      -9.274   5.013 -10.561  0.00  0.00    +0.016 A 
ATOM     36  C   UNL     1     -10.441   5.609 -10.991  0.00  0.00    +0.039 A 
ATOM     37  C   UNL     1     -11.532   4.830 -11.342  0.00  0.00    +0.123 A 
ATOM     38  C   UNL     1     -11.455   3.447 -11.270  0.00  0.00    +0.039 A 
ATOM     39  C   UNL     1     -10.292   2.841 -10.848  0.00  0.00    +0.016 A 
ATOM     40  F   UNL     1     -12.675   5.420 -11.757  0.00  0.00    -0.205 F 
ENDBRANCH  31  34
ENDBRANCH  26  30
ENDBRANCH  22  23
ENDBRANCH   2  22
TORSDOF 7
