REMARK  Name = ZINC04998404
REMARK  8 active torsions:
REMARK  status: ('A' for Active; 'I' for Inactive)
REMARK    1  A    between atoms: C_1  and  C_2
REMARK    2  A    between atoms: C_7  and  C_8
REMARK    3  A    between atoms: C_10  and  C_13
REMARK    4  A    between atoms: C_13  and  N_14
REMARK    5  A    between atoms: N_14  and  S_15
REMARK    6  A    between atoms: S_15  and  C_18
REMARK    7  A    between atoms: C_21  and  N_24
REMARK    8  A    between atoms: C_25  and  C_27
REMARK                            x       y       z     vdW  Elec       q    Type
REMARK                         _______ _______ _______ _____ _____    ______ ____
ROOT
ATOM      1  N   UNL     1       1.345  -0.038   6.659  0.00  0.00    -0.181 NA
ATOM      2  H   UNL     1       2.055  -0.008   5.999  0.00  0.00    +0.149 HD
ENDROOT
BRANCH   1   3
ATOM      3  S   UNL     1       1.709   0.036   8.272  0.00  0.00    +0.059 S 
ATOM      4  O   UNL     1       3.125   0.112   8.366  0.00  0.00    -0.153 OA
ATOM      5  O   UNL     1       0.854   1.022   8.836  0.00  0.00    -0.153 OA
BRANCH   3   6
ATOM      6  C   UNL     1       1.239  -1.505   8.985  0.00  0.00    +0.105 A 
ATOM      7  C   UNL     1      -0.040  -1.673   9.485  0.00  0.00    +0.030 A 
ATOM      8  C   UNL     1      -0.411  -2.880  10.044  0.00  0.00    +0.025 A 
ATOM      9  C   UNL     1       0.500  -3.926  10.103  0.00  0.00    +0.033 A 
ATOM     10  C   UNL     1       1.783  -3.754   9.600  0.00  0.00    +0.025 A 
ATOM     11  C   UNL     1       2.147  -2.546   9.037  0.00  0.00    +0.030 A 
BRANCH   9  12
ATOM     12  N   UNL     1       0.127  -5.150  10.669  0.00  0.00    -0.286 N 
ATOM     13  C   UNL     1      -1.129  -5.611  10.510  0.00  0.00    +0.214 C 
ATOM     14  O   UNL     1      -1.960  -4.926   9.951  0.00  0.00    -0.276 OA
ATOM     15  C   UNL     1      -1.502  -6.976  11.026  0.00  0.00    +0.109 C 
ATOM     16  H   UNL     1       0.773  -5.666  11.176  0.00  0.00    +0.155 HD
ENDBRANCH   9  12
ENDBRANCH   3   6
ENDBRANCH   1   3
BRANCH   1  17
ATOM     17  C   UNL     1      -0.051  -0.150   6.227  0.00  0.00    +0.204 C 
BRANCH  17  20
ATOM     18  C   UNL     1      -0.183  -0.069   2.601  0.00  0.00    +0.202 A 
ATOM     19  N   UNL     1      -0.046  -0.693   3.785  0.00  0.00    -0.190 NA
ATOM     20  C   UNL     1      -0.149   0.167   4.757  0.00  0.00    +0.243 A 
ATOM     21  O   UNL     1      -0.357   1.381   4.231  0.00  0.00    -0.336 OA
ATOM     22  N   UNL     1      -0.371   1.209   2.821  0.00  0.00    -0.056 NA
BRANCH  18  29
ATOM     23  C   UNL     1       1.914  -1.976   2.025  0.00  0.00    +0.044 C 
ATOM     24  C   UNL     1       0.881  -1.638   0.982  0.00  0.00    -0.040 A 
ATOM     25  C   UNL     1       0.927  -2.244  -0.258  0.00  0.00    +0.004 A 
ATOM     26  C   UNL     1      -0.020  -1.934  -1.217  0.00  0.00    +0.000 A 
ATOM     27  C   UNL     1      -1.018  -1.017  -0.940  0.00  0.00    +0.001 A 
ATOM     28  C   UNL     1      -1.073  -0.406   0.296  0.00  0.00    +0.012 A 
ATOM     29  C   UNL     1      -0.125  -0.718   1.268  0.00  0.00    +0.025 A 
ENDBRANCH  18  29
ENDBRANCH  17  20
ENDBRANCH   1  17
TORSDOF 6
