REMARK  Name = ZINC66349142
REMARK  4 active torsions:
REMARK  status: ('A' for Active; 'I' for Inactive)
REMARK    1  A    between atoms: C_1  and  C_2
REMARK    2  A    between atoms: N_11  and  C_12
REMARK    3  A    between atoms: C_12  and  C_14
REMARK    4  A    between atoms: C_12  and  C_21
REMARK                            x       y       z     vdW  Elec       q    Type
REMARK                         _______ _______ _______ _____ _____    ______ ____
ROOT
ATOM      1  C   UNL     1       3.077   0.789   3.721  0.00  0.00    +0.136 C 
ENDROOT
BRANCH   1  11
ATOM      2  C   UNL     1      -0.028   1.527   0.018  0.00  0.00    +0.030 C 
ATOM      3  C   UNL     1      -0.005  -0.003   0.007  0.00  0.00    +0.100 C 
ATOM      4  C   UNL     1      -1.431  -0.542   0.162  0.00  0.00    +0.182 C 
ATOM      5  O   UNL     1      -1.383  -1.960   0.337  0.00  0.00    -0.376 OA
ATOM      6  C   UNL     1      -0.694  -2.381   1.517  0.00  0.00    +0.179 C 
ATOM      7  C   UNL     1       0.771  -1.936   1.432  0.00  0.00    +0.137 C 
ATOM      8  N   UNL     1       0.802  -0.495   1.135  0.00  0.00    -0.278 N 
ATOM      9  C   UNL     1       1.548   0.350   1.875  0.00  0.00    +0.303 C 
ATOM     10  O   UNL     1       1.494   1.547   1.670  0.00  0.00    -0.253 OA
ATOM     11  N   UNL     1       2.353  -0.133   2.843  0.00  0.00    -0.288 N 
ATOM     12  H   UNL     1       2.452  -1.091   2.958  0.00  0.00    +0.151 HD
ENDBRANCH   1  11
BRANCH   1  13
ATOM     13  C   UNL     1       4.308   0.107   4.260  0.00  0.00    -0.023 A 
ATOM     14  C   UNL     1       4.252  -1.221   4.638  0.00  0.00    +0.007 A 
ATOM     15  C   UNL     1       5.380  -1.848   5.133  0.00  0.00    +0.020 A 
ATOM     16  C   UNL     1       6.566  -1.145   5.250  0.00  0.00    +0.041 A 
ATOM     17  C   UNL     1       6.621   0.185   4.872  0.00  0.00    +0.020 A 
ATOM     18  C   UNL     1       5.494   0.809   4.372  0.00  0.00    +0.007 A 
ATOM     19 CL   UNL     1       7.983  -1.930   5.872  0.00  0.00    -0.084 Cl
ENDBRANCH   1  13
BRANCH   1  20
ATOM     20  C   UNL     1       2.186   1.197   4.866  0.00  0.00    -0.016 A 
ATOM     21  C   UNL     1       2.180   2.503   5.319  0.00  0.00    +0.013 A 
ATOM     22  C   UNL     1       1.367   2.837   6.351  0.00  0.00    +0.045 A 
ATOM     23  S   UNL     1       0.573   1.280   6.714  0.00  0.00    -0.105 S 
ATOM     24  C   UNL     1       1.374   0.290   5.463  0.00  0.00    +0.051 A 
ENDBRANCH   1  20
TORSDOF 3
