REMARK  Name = ZINC12659849
REMARK  8 active torsions:
REMARK  status: ('A' for Active; 'I' for Inactive)
REMARK    1  A    between atoms: C_1  and  C_2
REMARK    2  A    between atoms: C_3  and  C_30
REMARK    3  A    between atoms: C_4  and  N_13
REMARK    4  A    between atoms: N_5  and  C_7
REMARK    5  A    between atoms: N_22  and  C_23
REMARK    6  A    between atoms: C_23  and  C_24
REMARK    7  A    between atoms: C_30  and  C_32
REMARK    8  A    between atoms: C_30  and  O_38
REMARK                            x       y       z     vdW  Elec       q    Type
REMARK                         _______ _______ _______ _____ _____    ______ ____
ROOT
ATOM      1  C   UNL     1       0.876   1.135  -0.006  0.00  0.00    +0.065 C 
ATOM      2  C   UNL     1       0.271  -0.243  -0.092  0.00  0.00    +0.039 A 
ATOM      3  C   UNL     1       0.464  -1.155  -1.134  0.00  0.00    +0.046 A 
ATOM      4  C   UNL     1      -0.248  -2.279  -0.841  0.00  0.00    +0.133 A 
ATOM      5  N   UNL     1      -0.868  -2.070   0.352  0.00  0.00    -0.240 N 
ATOM      6  N   UNL     1      -0.518  -0.789   0.797  0.00  0.00    -0.295 N 
ATOM      7  H   UNL     1      -0.813  -0.375   1.624  0.00  0.00    +0.187 HD
ENDROOT
BRANCH   4   8
ATOM      8  N   UNL     1      -0.328  -3.430  -1.621  0.00  0.00    -0.269 N 
ATOM      9  C   UNL     1       0.092  -4.641  -1.109  0.00  0.00    +0.202 A 
ATOM     10  N   UNL     1       0.562  -4.825   0.099  0.00  0.00    -0.214 NA
ATOM     11  C   UNL     1       0.879  -6.135   0.271  0.00  0.00    +0.091 A 
ATOM     12  C   UNL     1       1.406  -6.862   1.342  0.00  0.00    +0.030 A 
ATOM     13  C   UNL     1       1.621  -8.216   1.208  0.00  0.00    +0.002 A 
ATOM     14  C   UNL     1       1.320  -8.863   0.019  0.00  0.00    +0.002 A 
ATOM     15  C   UNL     1       0.800  -8.159  -1.047  0.00  0.00    +0.028 A 
ATOM     16  C   UNL     1       0.576  -6.795  -0.931  0.00  0.00    +0.070 A 
ATOM     17  N   UNL     1       0.074  -5.828  -1.786  0.00  0.00    -0.307 N 
ATOM     18  H   UNL     1      -0.678  -3.381  -2.525  0.00  0.00    +0.156 HD
BRANCH  17  19
ATOM     19  C   UNL     1      -0.387  -6.038  -3.160  0.00  0.00    +0.160 C 
BRANCH  19  20
ATOM     20  C   UNL     1       0.768  -5.857  -4.111  0.00  0.00    -0.028 A 
ATOM     21  C   UNL     1       1.044  -4.608  -4.634  0.00  0.00    +0.005 A 
ATOM     22  C   UNL     1       2.104  -4.443  -5.506  0.00  0.00    +0.000 A 
ATOM     23  C   UNL     1       2.888  -5.527  -5.854  0.00  0.00    +0.000 A 
ATOM     24  C   UNL     1       2.612  -6.776  -5.330  0.00  0.00    +0.000 A 
ATOM     25  C   UNL     1       1.555  -6.941  -4.455  0.00  0.00    +0.005 A 
ENDBRANCH  19  20
ENDBRANCH  17  19
ENDBRANCH   4   8
BRANCH   5  26
ATOM     26  C   UNL     1      -1.702  -2.977   1.020  0.00  0.00    +0.065 A 
ATOM     27  C   UNL     1      -2.688  -3.660   0.320  0.00  0.00    +0.028 A 
ATOM     28  C   UNL     1      -3.508  -4.553   0.981  0.00  0.00    +0.002 A 
ATOM     29  C   UNL     1      -3.348  -4.769   2.337  0.00  0.00    +0.000 A 
ATOM     30  C   UNL     1      -2.367  -4.090   3.037  0.00  0.00    +0.002 A 
ATOM     31  C   UNL     1      -1.540  -3.200   2.381  0.00  0.00    +0.028 A 
ENDBRANCH   5  26
BRANCH   3  32
ATOM     32  C   UNL     1       1.308  -0.934  -2.362  0.00  0.00    +0.180 C 
BRANCH  32  33
ATOM     33  C   UNL     1       0.603   0.021  -3.291  0.00  0.00    -0.012 A 
ATOM     34  C   UNL     1       0.916   1.372  -3.290  0.00  0.00    +0.026 A 
ATOM     35  C   UNL     1       0.249   2.218  -4.156  0.00  0.00    +0.111 A 
ATOM     36  N   UNL     1      -0.675   1.754  -4.974  0.00  0.00    -0.263 NA
ATOM     37  C   UNL     1      -0.998   0.476  -5.002  0.00  0.00    +0.111 A 
ATOM     38  C   UNL     1      -0.369  -0.431  -4.170  0.00  0.00    +0.026 A 
ENDBRANCH  32  33
BRANCH  32  39
ATOM     39  O   UNL     1       2.570  -0.384  -1.980  0.00  0.00    -0.382 OA
ATOM     40  H   UNL     1       2.506   0.465  -1.522  0.00  0.00    +0.211 HD
ENDBRANCH  32  39
ENDBRANCH   3  32
TORSDOF 7
