REMARK  Name = ZINC19941402
REMARK  10 active torsions:
REMARK  status: ('A' for Active; 'I' for Inactive)
REMARK    1  A    between atoms: C_1  and  C_2
REMARK    2  A    between atoms: C_2  and  C_3
REMARK    3  A    between atoms: C_10  and  C_15
REMARK    4  A    between atoms: C_15  and  C_17
REMARK    5  A    between atoms: C_15  and  N_29
REMARK    6  A    between atoms: N_21  and  C_22
REMARK    7  A    between atoms: C_22  and  C_23
REMARK    8  A    between atoms: N_32  and  C_35
REMARK    9  A    between atoms: C_39  and  C_42
REMARK   10  A    between atoms: C_40  and  C_41
REMARK                            x       y       z     vdW  Elec       q    Type
REMARK                         _______ _______ _______ _____ _____    ______ ____
ROOT
ATOM      1  C   UNL     1       1.926   6.393  -1.845  0.00  0.00    +0.162 C 
ENDROOT
BRANCH   1   9
ATOM      2  C   UNL     1      -2.377   3.024  -4.748  0.00  0.00    -0.047 A 
ATOM      3  C   UNL     1      -3.288   4.056  -4.927  0.00  0.00    +0.005 A 
ATOM      4  C   UNL     1      -3.009   5.327  -4.473  0.00  0.00    +0.026 A 
ATOM      5  C   UNL     1      -1.802   5.581  -3.831  0.00  0.00    +0.049 A 
ATOM      6  C   UNL     1      -0.880   4.533  -3.652  0.00  0.00    -0.001 A 
ATOM      7  C   UNL     1      -1.185   3.250  -4.120  0.00  0.00    +0.013 A 
ATOM      8  C   UNL     1       0.391   4.811  -2.981  0.00  0.00    +0.021 A 
ATOM      9  C   UNL     1       0.630   6.073  -2.545  0.00  0.00    +0.042 A 
ATOM     10  C   UNL     1      -0.328   7.089  -2.749  0.00  0.00    +0.254 A 
ATOM     11  O   UNL     1      -0.091   8.217  -2.354  0.00  0.00    -0.268 OA
ATOM     12  N   UNL     1      -1.496   6.844  -3.369  0.00  0.00    -0.322 N 
ATOM     13  H   UNL     1      -2.212   7.668  -3.505  0.00  0.00    +0.169 HD
BRANCH   2  15
ATOM     14  C   UNL     1      -3.425   0.857  -4.154  0.00  0.00    +0.009 C 
ATOM     15  C   UNL     1      -2.705   1.642  -5.252  0.00  0.00    +0.032 C 
ENDBRANCH   2  15
ENDBRANCH   1   9
BRANCH   1  16
ATOM     16  N   UNL     1       2.653   7.418  -2.605  0.00  0.00    -0.286 NA
ATOM     17  C   UNL     1       2.863   6.992  -3.996  0.00  0.00    +0.104 C 
ATOM     18  C   UNL     1       3.551   8.117  -4.773  0.00  0.00    +0.120 C 
ATOM     19  N   UNL     1       4.830   8.445  -4.126  0.00  0.00    -0.327 N 
ATOM     20  C   UNL     1       4.619   8.871  -2.735  0.00  0.00    +0.120 C 
ATOM     21  C   UNL     1       3.931   7.746  -1.958  0.00  0.00    +0.104 C 
BRANCH  19  22
ATOM     22  C   UNL     1       5.521   9.419  -4.849  0.00  0.00    +0.033 A 
ATOM     23  C   UNL     1       4.984  10.693  -4.991  0.00  0.00    +0.023 A 
ATOM     24  C   UNL     1       5.670  11.654  -5.706  0.00  0.00    +0.002 A 
ATOM     25  C   UNL     1       6.891  11.351  -6.280  0.00  0.00    +0.004 A 
ATOM     26  C   UNL     1       7.428  10.085  -6.141  0.00  0.00    -0.046 A 
ATOM     27  C   UNL     1       6.750   9.120  -5.422  0.00  0.00    -0.027 A 
ATOM     28  C   UNL     1       7.340   7.742  -5.266  0.00  0.00    +0.046 C 
ATOM     29  C   UNL     1       8.759   9.759  -6.769  0.00  0.00    +0.044 C 
ENDBRANCH  19  22
ENDBRANCH   1  16
BRANCH   1  30
ATOM     30  C   UNL     1       2.767   5.146  -1.752  0.00  0.00    +0.173 A 
ATOM     31  N   UNL     1       3.388   4.545  -2.737  0.00  0.00    -0.111 NA
ATOM     32  N   UNL     1       3.996   3.516  -2.256  0.00  0.00    -0.023 NA
ATOM     33  N   UNL     1       3.784   3.449  -0.988  0.00  0.00    -0.044 NA
ATOM     34  N   UNL     1       3.026   4.433  -0.640  0.00  0.00    -0.223 N 
BRANCH  34  35
ATOM     35  C   UNL     1       2.542   4.723   0.712  0.00  0.00    +0.182 C 
BRANCH  35  36
ATOM     36  C   UNL     1       1.291   3.926   0.980  0.00  0.00    -0.026 A 
ATOM     37  C   UNL     1       1.385   2.623   1.431  0.00  0.00    +0.005 A 
ATOM     38  C   UNL     1       0.237   1.892   1.677  0.00  0.00    +0.000 A 
ATOM     39  C   UNL     1      -1.004   2.463   1.466  0.00  0.00    +0.000 A 
ATOM     40  C   UNL     1      -1.097   3.768   1.021  0.00  0.00    +0.000 A 
ATOM     41  C   UNL     1       0.050   4.499   0.776  0.00  0.00    +0.005 A 
ENDBRANCH  35  36
ENDBRANCH  34  35
ENDBRANCH   1  30
TORSDOF 7
