REMARK  Name = ZINC11104984
REMARK  12 active torsions:
REMARK  status: ('A' for Active; 'I' for Inactive)
REMARK    1  A    between atoms: C_1  and  O_2
REMARK    2  A    between atoms: O_2  and  C_3
REMARK    3  A    between atoms: C_6  and  C_9
REMARK    4  A    between atoms: C_9  and  C_10
REMARK    5  A    between atoms: C_9  and  N_18
REMARK    6  A    between atoms: C_13  and  O_16
REMARK    7  A    between atoms: O_16  and  C_17
REMARK    8  A    between atoms: C_19  and  C_21
REMARK    9  A    between atoms: C_21  and  N_63
REMARK   10  A    between atoms: C_24  and  N_27
REMARK   11  A    between atoms: N_27  and  S_28
REMARK   12  A    between atoms: S_28  and  C_31
REMARK                            x       y       z     vdW  Elec       q    Type
REMARK                         _______ _______ _______ _____ _____    ______ ____
ROOT
ATOM      1  N   UNL     1       6.992   2.702  -4.817  0.00  0.00    -0.306 N 
ATOM      2  C   UNL     1       5.840   2.217  -4.315  0.00  0.00    +0.197 C 
ATOM      3  O   UNL     1       4.825   2.878  -4.380  0.00  0.00    -0.278 OA
ATOM      4  H   UNL     1       7.804   2.173  -4.765  0.00  0.00    +0.150 HD
ENDROOT
BRANCH   1   5
ATOM      5  C   UNL     1       7.020   4.027  -5.441  0.00  0.00    +0.133 C 
BRANCH   5   9
ATOM      6  C   UNL     1       7.556   7.009  -2.426  0.00  0.00    +0.120 A 
ATOM      7  C   UNL     1       6.681   7.234  -3.479  0.00  0.00    +0.046 A 
ATOM      8  C   UNL     1       6.509   6.269  -4.452  0.00  0.00    +0.009 A 
ATOM      9  C   UNL     1       7.209   5.079  -4.378  0.00  0.00    -0.023 A 
ATOM     10  C   UNL     1       8.077   4.849  -3.326  0.00  0.00    +0.009 A 
ATOM     11  C   UNL     1       8.257   5.814  -2.354  0.00  0.00    +0.046 A 
BRANCH   6  13
ATOM     12  C   UNL     1       8.643   7.657  -0.414  0.00  0.00    +0.277 C 
ATOM     13  O   UNL     1       7.726   7.957  -1.468  0.00  0.00    -0.495 OA
ENDBRANCH   6  13
ENDBRANCH   5   9
BRANCH   5  14
ATOM     14  C   UNL     1       8.160   4.097  -6.424  0.00  0.00    -0.023 A 
ATOM     15  C   UNL     1       9.377   3.520  -6.111  0.00  0.00    +0.009 A 
ATOM     16  C   UNL     1      10.422   3.577  -7.012  0.00  0.00    +0.046 A 
ATOM     17  C   UNL     1      10.253   4.223  -8.228  0.00  0.00    +0.120 A 
ATOM     18  C   UNL     1       9.033   4.806  -8.538  0.00  0.00    +0.046 A 
ATOM     19  C   UNL     1       7.989   4.741  -7.635  0.00  0.00    +0.009 A 
BRANCH  17  20
ATOM     20  O   UNL     1      11.281   4.285  -9.115  0.00  0.00    -0.495 OA
ATOM     21  C   UNL     1      12.509   3.664  -8.729  0.00  0.00    +0.277 C 
ENDBRANCH  17  20
ENDBRANCH   5  14
ENDBRANCH   1   5
BRANCH   2  22
ATOM     22  C   UNL     1       5.811   0.854  -3.674  0.00  0.00    +0.019 C 
BRANCH  22  28
ATOM     23  C   UNL     1       3.625   0.317  -4.564  0.00  0.00    -0.077 C 
ATOM     24  C   UNL     1       2.160   0.090  -4.185  0.00  0.00    +0.002 C 
ATOM     25  C   UNL     1       2.054  -1.153  -3.297  0.00  0.00    +0.073 C 
ATOM     26  C   UNL     1       2.934  -0.961  -2.058  0.00  0.00    +0.002 C 
ATOM     27  C   UNL     1       4.377  -0.703  -2.499  0.00  0.00    -0.077 C 
ATOM     28  N   UNL     1       4.414   0.519  -3.330  0.00  0.00    +0.385 N 
ATOM     29  H   UNL     1       4.006   1.296  -2.797  0.00  0.00    -0.081 HD
BRANCH  25  30
ATOM     30  N   UNL     1       0.662  -1.342  -2.883  0.00  0.00    -0.192 NA
ATOM     31  H   UNL     1       0.098  -0.572  -2.711  0.00  0.00    +0.148 HD
BRANCH  30  32
ATOM     32  S   UNL     1       0.051  -2.872  -2.709  0.00  0.00    +0.027 S 
ATOM     33  O   UNL     1       0.376  -3.533  -3.924  0.00  0.00    -0.158 OA
ATOM     34  O   UNL     1      -1.305  -2.679  -2.330  0.00  0.00    -0.158 OA
ATOM     35  C   UNL     1       0.987  -3.595  -1.334  0.00  0.00    +0.214 C 
ENDBRANCH  30  32
ENDBRANCH  25  30
ENDBRANCH  22  28
ENDBRANCH   2  22
TORSDOF 9
