REMARK  Name = ZINC44606405
REMARK  13 active torsions:
REMARK  status: ('A' for Active; 'I' for Inactive)
REMARK    1  A    between atoms: C_1  and  C_2
REMARK    2  A    between atoms: C_3  and  C_4
REMARK    3  A    between atoms: C_5  and  C_6
REMARK    4  A    between atoms: C_7  and  C_8
REMARK    5  A    between atoms: N_10  and  C_11
REMARK    6  A    between atoms: C_11  and  C_13
REMARK    7  A    between atoms: C_11  and  C_17
REMARK    8  A    between atoms: C_13  and  C_15
REMARK    9  A    between atoms: C_13  and  N_16
REMARK   10  A    between atoms: C_17  and  O_19
REMARK   11  A    between atoms: O_19  and  C_20
REMARK   12  A    between atoms: C_20  and  C_22
REMARK   13  A    between atoms: C_20  and  C_33
REMARK                            x       y       z     vdW  Elec       q    Type
REMARK                         _______ _______ _______ _____ _____    ______ ____
ROOT
ATOM      1  C   UNK A   2     -10.475  -5.708  -0.409  0.00  0.00    +0.238 C 
ENDROOT
BRANCH   1   2
ATOM      2  C   UNK A   2     -11.776  -5.343   0.258  0.00  0.00    +0.020 A 
ATOM      3  C   UNK A   2     -12.155  -4.117   0.650  0.00  0.00    +0.091 A 
ATOM      4  N   UNK A   2     -13.401  -4.173   1.215  0.00  0.00    -0.360 N 
ATOM      5  H   UNK A   2     -13.885  -3.412   1.573  0.00  0.00    +0.165 HD
ATOM      6  C   UNK A   2     -13.865  -5.469   1.199  0.00  0.00    +0.048 A 
ATOM      7  C   UNK A   2     -12.870  -6.258   0.594  0.00  0.00    +0.006 A 
ATOM      8  C   UNK A   2     -13.069  -7.631   0.436  0.00  0.00    +0.012 A 
ATOM      9  C   UNK A   2     -14.233  -8.202   0.868  0.00  0.00    +0.021 A 
ATOM     10  C   UNK A   2     -15.220  -7.427   1.464  0.00  0.00    +0.043 A 
ATOM     11  C   UNK A   2     -15.040  -6.070   1.636  0.00  0.00    +0.046 A 
ATOM     12 CL   UNK A   2     -16.691  -8.174   2.005  0.00  0.00    -0.083 Cl
ENDBRANCH   1   2
BRANCH   1  13
ATOM     13  C   UNK A   2     -10.664  -5.716  -1.927  0.00  0.00    +0.205 C 
ATOM     14  C   UNK A   2      -9.371  -6.101  -2.581  0.00  0.00    +0.238 C 
ATOM     15  O   UNK A   2      -9.063  -7.274  -2.615  0.00  0.00    -0.274 OA
ATOM     16  N   GLY A   1      -8.543  -5.205  -3.128  0.00  0.00    -0.305 N 
ATOM     17  CA  GLY A   1      -8.821  -3.776  -3.136  0.00  0.00    +0.200 C 
ATOM     18  C   GLY A   1     -10.277  -3.502  -2.911  0.00  0.00    +0.231 C 
ATOM     19  O   GLY A   1     -10.725  -2.425  -3.242  0.00  0.00    -0.274 OA
ATOM     20  N   UNK A   2     -11.102  -4.397  -2.360  0.00  0.00    -0.299 N 
ATOM     21  H   GLY A   1      -7.722  -5.521  -3.536  0.00  0.00    +0.149 HD
ATOM     22  H   UNK A   2     -12.034  -4.156  -2.244  0.00  0.00    +0.150 HD
ENDBRANCH   1  13
BRANCH   1  23
ATOM     23  O   UNK A   2      -9.475  -4.750  -0.059  0.00  0.00    -0.453 OA
BRANCH  23  24
ATOM     24  C   UNK A   2      -8.205  -5.183  -0.010  0.00  0.00    +0.327 C 
ATOM     25  O   UNK A   2      -7.952  -6.339  -0.256  0.00  0.00    -0.249 OA
BRANCH  24  26
ATOM     26  C   UNK A   2      -7.096  -4.229   0.353  0.00  0.00    +0.167 C 
BRANCH  26  29
ATOM     27  C   UNK A   2      -4.670  -4.261   0.127  0.00  0.00    +0.237 C 
ATOM     28  O   UNK A   2      -4.701  -3.057  -0.050  0.00  0.00    -0.271 OA
ATOM     29  N   UNK A   2      -5.816  -4.940   0.336  0.00  0.00    -0.300 N 
ATOM     30  H   UNK A   2      -5.792  -5.900   0.477  0.00  0.00    +0.150 HD
BRANCH  27  32
ATOM     31  C   UNK A   2      -2.293  -4.288  -0.221  0.00  0.00    +0.005 C 
ATOM     32  C   UNK A   2      -3.432  -4.948   0.111  0.00  0.00    +0.067 C 
BRANCH  31  34
ATOM     33  C   UNK A   2      -1.223  -2.263  -0.925  0.00  0.00    -0.000 C 
ATOM     34  C   UNK A   2      -2.362  -2.970  -0.719  0.00  0.00    +0.000 C 
BRANCH  33  37
ATOM     35  C   UNK A   2      -0.247   1.206  -2.178  0.00  0.00    +0.035 C 
ATOM     36  C   UNK A   2      -0.173  -0.201  -1.645  0.00  0.00    -0.030 C 
ATOM     37  C   UNK A   2      -1.294  -0.898  -1.442  0.00  0.00    -0.005 C 
ENDBRANCH  33  37
ENDBRANCH  31  34
ENDBRANCH  27  32
ENDBRANCH  26  29
BRANCH  26  38
ATOM     38  C   UNK A   2      -7.348  -3.663   1.752  0.00  0.00    -0.047 C 
ATOM     39  C   UNK A   2      -6.222  -2.694   2.119  0.00  0.00    -0.012 C 
BRANCH  38  40
ATOM     40  N   UNK A   2      -7.386  -4.762   2.725  0.00  0.00    +0.381 N 
ATOM     41  H   UNK A   2      -6.503  -5.252   2.714  0.00  0.00    -0.090 HD
ATOM     42  H   UNK A   2      -7.551  -4.389   3.648  0.00  0.00    -0.090 HD
ATOM     43  H   UNK A   2      -8.128  -5.401   2.483  0.00  0.00    -0.090 HD
ENDBRANCH  38  40
ENDBRANCH  26  38
ENDBRANCH  24  26
ENDBRANCH  23  24
ENDBRANCH   1  23
TORSDOF 11
