REMARK  Name = ZINC58533709
REMARK  5 active torsions:
REMARK  status: ('A' for Active; 'I' for Inactive)
REMARK    1  A    between atoms: C_3  and  C_6
REMARK    2  A    between atoms: C_8  and  C_12
REMARK    3  A    between atoms: N_14  and  C_15
REMARK    4  A    between atoms: C_19  and  C_21
REMARK    5  A    between atoms: N_23  and  C_24
REMARK                            x       y       z     vdW  Elec       q    Type
REMARK                         _______ _______ _______ _____ _____    ______ ____
ROOT
ATOM      1  C   UNL     1       7.008  -0.720   0.508  0.00  0.00    +0.268 C 
ATOM      2  O   UNL     1       7.012  -1.817   1.032  0.00  0.00    -0.268 OA
ATOM      3  N   UNL     1       8.124  -0.251  -0.084  0.00  0.00    -0.280 N 
ATOM      4  H   UNL     1       8.103   0.594  -0.559  0.00  0.00    +0.155 HD
ENDROOT
BRANCH   3   5
ATOM      5  C   UNL     1       9.314  -0.984  -0.012  0.00  0.00    +0.035 A 
ATOM      6  C   UNL     1       9.277  -2.374  -0.036  0.00  0.00    +0.025 A 
ATOM      7  C   UNL     1      10.449  -3.103   0.034  0.00  0.00    +0.022 A 
ATOM      8  C   UNL     1      11.666  -2.455   0.129  0.00  0.00    +0.053 A 
ATOM      9  C   UNL     1      11.713  -1.059   0.154  0.00  0.00    +0.057 A 
ATOM     10  C   UNL     1      10.530  -0.324   0.077  0.00  0.00    +0.037 A 
ATOM     11 CL   UNL     1      13.135  -3.376   0.217  0.00  0.00    -0.083 Cl
BRANCH   9  12
ATOM     12  C   UNL     1      13.013  -0.363   0.256  0.00  0.00    +0.246 C 
ATOM     13  O   UNL     1      14.043  -1.006   0.318  0.00  0.00    -0.270 OA
ATOM     14  N   UNL     1      13.056   0.984   0.280  0.00  0.00    -0.308 N 
ATOM     15  H   UNL     1      12.234   1.496   0.230  0.00  0.00    +0.149 HD
BRANCH  14  16
ATOM     16  C   UNL     1      14.345   1.674   0.381  0.00  0.00    +0.073 C 
ATOM     17  C   UNL     1      14.438   2.858   1.345  0.00  0.00    +0.024 C 
ATOM     18  C   UNL     1      14.427   3.100  -0.166  0.00  0.00    +0.024 C 
ENDBRANCH  14  16
ENDBRANCH   9  12
ENDBRANCH   3   5
BRANCH   1  21
ATOM     19  C   UNL     1       3.711   0.806   0.866  0.00  0.00    +0.101 A 
ATOM     20  C   UNL     1       4.542  -0.257   1.099  0.00  0.00    +0.065 A 
ATOM     21  C   UNL     1       5.779   0.100   0.521  0.00  0.00    +0.148 A 
ATOM     22  N   UNL     1       5.636   1.301  -0.006  0.00  0.00    -0.169 NA
ATOM     23  N   UNL     1       4.440   1.732   0.176  0.00  0.00    -0.273 N 
ATOM     24  H   UNL     1       4.105   2.590  -0.128  0.00  0.00    +0.189 HD
BRANCH  19  27
ATOM     25  C   UNL     1       0.231   1.674   1.592  0.00  0.00    +0.042 A 
ATOM     26  C   UNL     1       1.484   1.987   1.028  0.00  0.00    +0.051 A 
ATOM     27  C   UNL     1       2.300   0.925   1.273  0.00  0.00    +0.152 A 
ATOM     28  O   UNL     1       1.592   0.001   1.953  0.00  0.00    -0.461 OA
ATOM     29  C   UNL     1       0.342   0.451   2.147  0.00  0.00    +0.196 A 
ENDBRANCH  19  27
ENDBRANCH   1  21
TORSDOF 5
