REMARK  Name = ZINC06671578
REMARK  8 active torsions:
REMARK  status: ('A' for Active; 'I' for Inactive)
REMARK    1  A    between atoms: C_1  and  C_2
REMARK    2  A    between atoms: C_2  and  C_3
REMARK    3  A    between atoms: C_3  and  C_5
REMARK    4  A    between atoms: C_3  and  N_6
REMARK    5  A    between atoms: C_11  and  C_14
REMARK    6  A    between atoms: C_14  and  C_15
REMARK    7  A    between atoms: N_17  and  C_18
REMARK    8  A    between atoms: C_20  and  N_25
REMARK                            x       y       z     vdW  Elec       q    Type
REMARK                         _______ _______ _______ _____ _____    ______ ____
ROOT
ATOM      1  C   UNL     1      -3.949   7.854   0.319  0.00  0.00    +0.219 C 
ATOM      2  O   UNL     1      -3.426   8.266   1.333  0.00  0.00    -0.275 OA
ATOM      3  N   UNL     1      -4.309   8.716  -0.652  0.00  0.00    -0.284 N 
ATOM      4  H   UNL     1      -4.668   8.382  -1.489  0.00  0.00    +0.155 HD
ENDROOT
BRANCH   3   5
ATOM      5  C   UNL     1      -4.167  10.094  -0.452  0.00  0.00    +0.054 A 
ATOM      6  C   UNL     1      -3.101  10.583   0.291  0.00  0.00    +0.057 A 
ATOM      7  C   UNL     1      -2.963  11.944   0.486  0.00  0.00    +0.128 A 
ATOM      8  C   UNL     1      -3.885  12.819  -0.059  0.00  0.00    +0.034 A 
ATOM      9  C   UNL     1      -4.949  12.336  -0.799  0.00  0.00    +0.024 A 
ATOM     10  C   UNL     1      -5.090  10.976  -1.002  0.00  0.00    +0.062 A 
ATOM     11 CL   UNL     1      -6.421  10.370  -1.938  0.00  0.00    -0.082 Cl
BRANCH   7  12
ATOM     12  N   UNL     1      -1.827  12.466   1.278  0.00  0.00    +0.056 N 
ATOM     13  O   UNL     1      -1.014  11.695   1.757  0.00  0.00    -0.126 OA
ATOM     14  O   UNL     1      -1.705  13.665   1.450  0.00  0.00    -0.126 OA
ENDBRANCH   7  12
ENDBRANCH   3   5
BRANCH   1  15
ATOM     15  C   UNL     1      -4.195   6.377   0.145  0.00  0.00    +0.120 C 
BRANCH  15  21
ATOM     16  N   UNL     1      -0.604   3.061   1.320  0.00  0.00    -0.260 NA
ATOM     17  C   UNL     1      -1.698   3.769   1.332  0.00  0.00    +0.157 C 
ATOM     18  N   UNL     1      -3.004   3.321   1.284  0.00  0.00    -0.264 N 
ATOM     19  C   UNL     1      -4.035   4.148   1.303  0.00  0.00    +0.232 C 
ATOM     20  O   UNL     1      -5.180   3.751   1.261  0.00  0.00    -0.274 OA
ATOM     21  C   UNL     1      -3.696   5.628   1.382  0.00  0.00    +0.149 C 
ATOM     22  S   UNL     1      -1.862   5.545   1.423  0.00  0.00    -0.077 S 
ATOM     23  H   UNL     1      -3.170   2.367   1.235  0.00  0.00    +0.157 HD
BRANCH  16  24
ATOM     24  C   UNL     1      -0.677   1.600   1.247  0.00  0.00    +0.104 C 
ATOM     25  C   UNL     1      -0.008   0.993   2.482  0.00  0.00    +0.032 C 
BRANCH  24  27
ATOM     26  C   UNL     1      -0.700   1.621  -1.252  0.00  0.00    +0.006 C 
ATOM     27  C   UNL     1       0.043   1.116  -0.013  0.00  0.00    +0.023 C 
ENDBRANCH  24  27
ENDBRANCH  16  24
ENDBRANCH  15  21
ENDBRANCH   1  15
TORSDOF 6
