REMARK  Name = ZINC12498348
REMARK  8 active torsions:
REMARK  status: ('A' for Active; 'I' for Inactive)
REMARK    1  A    between atoms: C_1  and  C_2
REMARK    2  A    between atoms: C_7  and  C_8
REMARK    3  A    between atoms: N_16  and  C_19
REMARK    4  A    between atoms: C_28  and  C_29
REMARK    5  A    between atoms: C_28  and  C_36
REMARK    6  A    between atoms: C_29  and  C_30
REMARK    7  A    between atoms: C_36  and  O_38
REMARK    8  A    between atoms: O_38  and  C_39
REMARK                            x       y       z     vdW  Elec       q    Type
REMARK                         _______ _______ _______ _____ _____    ______ ____
ROOT
ATOM      1  C   UNL     1       2.613   1.118  -0.291  0.00  0.00    -0.026 C 
ATOM      2  C   UNL     1       3.155   0.703  -1.596  0.00  0.00    +0.077 C 
ATOM      3  C   UNL     1       4.117  -0.478  -1.190  0.00  0.00    +0.086 C 
ATOM      4  C   UNL     1       4.419  -0.947  -2.578  0.00  0.00    +0.229 C 
ATOM      5  O   UNL     1       4.622  -2.088  -2.936  0.00  0.00    -0.275 OA
ATOM      6  N   UNL     1       4.420   0.174  -3.361  0.00  0.00    -0.210 N 
ATOM      7  C   UNL     1       3.834   1.252  -2.744  0.00  0.00    +0.229 C 
ATOM      8  O   UNL     1       3.878   2.413  -3.089  0.00  0.00    -0.275 OA
ATOM      9  C   UNL     1       3.167  -1.240  -0.281  0.00  0.00    +0.048 C 
ATOM     10  N   UNL     1       2.319  -0.198   0.358  0.00  0.00    +0.396 N 
ATOM     11  H   UNL     1       1.327  -0.433   0.231  0.00  0.00    -0.083 HD
ATOM     12  H   UNL     1       2.533  -0.145   1.361  0.00  0.00    -0.083 HD
ENDROOT
BRANCH   6  13
ATOM     13  C   UNL     1       4.961   0.218  -4.655  0.00  0.00    +0.048 A 
ATOM     14  C   UNL     1       5.536  -0.919  -5.206  0.00  0.00    +0.028 A 
ATOM     15  C   UNL     1       6.069  -0.877  -6.480  0.00  0.00    +0.051 A 
ATOM     16  C   UNL     1       6.032   0.299  -7.211  0.00  0.00    +0.166 A 
ATOM     17  C   UNL     1       5.455   1.442  -6.660  0.00  0.00    +0.168 A 
ATOM     18  C   UNL     1       4.916   1.397  -5.386  0.00  0.00    +0.073 A 
ATOM     19  O   UNL     1       5.542   2.456  -7.570  0.00  0.00    -0.453 OA
ATOM     20  C   UNL     1       5.807   1.818  -8.833  0.00  0.00    +0.466 C 
ATOM     21  O   UNL     1       6.479   0.599  -8.466  0.00  0.00    -0.453 OA
ENDBRANCH   6  13
BRANCH   1  28
ATOM     22  C   UNL     1       1.437   2.469   1.976  0.00  0.00    +0.044 C 
ATOM     23  C   UNL     1       0.793   2.576   0.618  0.00  0.00    -0.049 A 
ATOM     24  C   UNL     1      -0.360   3.321   0.457  0.00  0.00    +0.003 A 
ATOM     25  C   UNL     1      -0.951   3.419  -0.789  0.00  0.00    +0.000 A 
ATOM     26  C   UNL     1      -0.386   2.776  -1.874  0.00  0.00    +0.000 A 
ATOM     27  C   UNL     1       0.764   2.027  -1.712  0.00  0.00    +0.002 A 
ATOM     28  C   UNL     1       1.355   1.930  -0.467  0.00  0.00    -0.058 A 
ENDBRANCH   1  28
BRANCH   9  29
ATOM     29  C   UNL     1       3.942  -2.001   0.763  0.00  0.00    +0.297 C 
ATOM     30  O   UNL     1       5.072  -2.363   0.532  0.00  0.00    -0.252 OA
BRANCH  29  31
ATOM     31  O   UNL     1       3.379  -2.277   1.949  0.00  0.00    -0.469 OA
ATOM     32  C   UNL     1       4.185  -3.013   2.907  0.00  0.00    +0.280 C 
ENDBRANCH  29  31
ENDBRANCH   9  29
BRANCH   9  33
ATOM     33  C   UNL     1       2.303  -2.199  -1.103  0.00  0.00    +0.034 C 
BRANCH  33  34
ATOM     34  C   UNL     1       1.295  -2.864  -0.203  0.00  0.00    -0.048 A 
ATOM     35  C   UNL     1       1.636  -4.013   0.487  0.00  0.00    +0.003 A 
ATOM     36  C   UNL     1       0.713  -4.621   1.317  0.00  0.00    +0.000 A 
ATOM     37  C   UNL     1      -0.555  -4.086   1.449  0.00  0.00    +0.000 A 
ATOM     38  C   UNL     1      -0.898  -2.940   0.756  0.00  0.00    +0.000 A 
ATOM     39  C   UNL     1       0.027  -2.329  -0.070  0.00  0.00    +0.003 A 
ENDBRANCH  33  34
ENDBRANCH   9  33
TORSDOF 6
