REMARK  Name = ZINC14479651
REMARK  9 active torsions:
REMARK  status: ('A' for Active; 'I' for Inactive)
REMARK    1  A    between atoms: C_1  and  C_2
REMARK    2  A    between atoms: C_2  and  C_3
REMARK    3  A    between atoms: C_3  and  C_4
REMARK    4  A    between atoms: N_6  and  C_7
REMARK    5  A    between atoms: C_20  and  C_23
REMARK    6  A    between atoms: C_26  and  O_31
REMARK    7  A    between atoms: C_27  and  O_29
REMARK    8  A    between atoms: O_29  and  C_30
REMARK    9  A    between atoms: O_31  and  C_32
REMARK                            x       y       z     vdW  Elec       q    Type
REMARK                         _______ _______ _______ _____ _____    ______ ____
ROOT
ATOM      1  C   UNL     1       6.424  -0.195  -0.170  0.00  0.00    +0.039 A 
ATOM      2  C   UNL     1       7.228  -0.037   0.948  0.00  0.00    +0.025 A 
ATOM      3  C   UNL     1       6.777   0.705   2.023  0.00  0.00    +0.023 A 
ATOM      4  C   UNL     1       5.526   1.287   1.980  0.00  0.00    +0.062 A 
ATOM      5  C   UNL     1       4.712   1.132   0.858  0.00  0.00    +0.052 A 
ATOM      6  C   UNL     1       5.158   0.389  -0.220  0.00  0.00    +0.003 A 
ATOM      7  C   UNL     1       4.334   0.177  -1.455  0.00  0.00    +0.050 C 
ATOM      8  C   UNL     1       3.830  -1.247  -1.522  0.00  0.00    -0.023 C 
ATOM      9  C   UNL     1       2.601  -1.277  -1.972  0.00  0.00    -0.030 C 
ATOM     10  C   UNL     1       2.111   0.124  -2.279  0.00  0.00    +0.033 C 
ATOM     11  C   UNL     1       3.048   1.031  -1.431  0.00  0.00    +0.029 C 
ATOM     12  C   UNL     1       2.501   1.063  -0.002  0.00  0.00    +0.105 C 
ATOM     13  N   UNL     1       3.458   1.745   0.870  0.00  0.00    -0.335 N 
ATOM     14 CL   UNL     1       4.962   2.218   3.332  0.00  0.00    -0.082 Cl
ATOM     15  H   UNL     1       3.532   2.723   0.632  0.00  0.00    +0.147 HD
ENDROOT
BRANCH  12  16
ATOM     16  C   UNL     1       1.189   1.804   0.017  0.00  0.00    -0.023 A 
ATOM     17  C   UNL     1       1.177   3.186   0.015  0.00  0.00    +0.009 A 
ATOM     18  C   UNL     1      -0.025   3.870   0.033  0.00  0.00    +0.050 A 
ATOM     19  C   UNL     1      -1.220   3.170   0.051  0.00  0.00    +0.162 A 
ATOM     20  C   UNL     1      -1.208   1.778   0.048  0.00  0.00    +0.162 A 
ATOM     21  C   UNL     1      -0.001   1.099   0.035  0.00  0.00    +0.055 A 
BRANCH  20  22
ATOM     22  O   UNL     1      -2.379   1.087   0.060  0.00  0.00    -0.491 OA
ATOM     23  C   UNL     1      -2.290  -0.339   0.061  0.00  0.00    +0.277 C 
ENDBRANCH  20  22
BRANCH  19  24
ATOM     24  O   UNL     1      -2.403   3.841   0.068  0.00  0.00    -0.491 OA
ATOM     25  C   UNL     1      -2.339   5.269   0.065  0.00  0.00    +0.277 C 
ENDBRANCH  19  24
ENDBRANCH  12  16
BRANCH   1  28
ATOM     26  C   UNL     1       7.819  -1.901  -1.067  0.00  0.00    +0.217 C 
ATOM     27  O   UNL     1       8.186  -2.176   0.055  0.00  0.00    -0.275 OA
ATOM     28  N   UNL     1       6.885  -0.947  -1.256  0.00  0.00    -0.285 N 
ATOM     29  H   UNL     1       6.533  -0.782  -2.145  0.00  0.00    +0.155 HD
BRANCH  26  30
ATOM     30  C   UNL     1       8.406  -2.624  -2.252  0.00  0.00    +0.096 C 
BRANCH  30  32
ATOM     31  C   UNL     1      10.030  -4.383  -2.967  0.00  0.00    +0.004 C 
ATOM     32  C   UNL     1       9.434  -3.648  -1.765  0.00  0.00    +0.006 C 
ENDBRANCH  30  32
ENDBRANCH  26  30
ENDBRANCH   1  28
TORSDOF 6
