REMARK  Name = ZINC20830486
REMARK  7 active torsions:
REMARK  status: ('A' for Active; 'I' for Inactive)
REMARK    1  A    between atoms: C_6  and  C_7
REMARK    2  A    between atoms: C_10  and  S_13
REMARK    3  A    between atoms: N_11  and  N_12
REMARK    4  A    between atoms: S_13  and  C_14
REMARK    5  A    between atoms: C_14  and  C_15
REMARK    6  A    between atoms: N_17  and  C_18
REMARK    7  A    between atoms: N_17  and  C_24
REMARK                            x       y       z     vdW  Elec       q    Type
REMARK                         _______ _______ _______ _____ _____    ______ ____
ROOT
ATOM      1  S   UNL     1      -1.492  -3.601  -0.349  0.00  0.00    -0.075 S 
ENDROOT
BRANCH   1   5
ATOM      2  C   UNL     1      -0.031  -0.008   0.125  0.00  0.00    +0.182 A 
ATOM      3  N   UNL     1       1.004  -0.776   0.376  0.00  0.00    -0.127 NA
ATOM      4  N   UNL     1       0.673  -2.012   0.257  0.00  0.00    -0.121 NA
ATOM      5  C   UNL     1      -0.595  -2.109  -0.076  0.00  0.00    +0.209 A 
ATOM      6  N   UNL     1      -1.088  -0.839  -0.166  0.00  0.00    -0.224 N 
BRANCH   2  12
ATOM      7  C   UNL     1      -1.277   2.148   0.173  0.00  0.00    +0.013 A 
ATOM      8  C   UNL     1      -1.295   3.527   0.206  0.00  0.00    +0.016 A 
ATOM      9  C   UNL     1      -0.106   4.238   0.213  0.00  0.00    +0.018 A 
ATOM     10  C   UNL     1       1.106   3.570   0.192  0.00  0.00    +0.016 A 
ATOM     11  C   UNL     1       1.137   2.192   0.163  0.00  0.00    +0.013 A 
ATOM     12  C   UNL     1      -0.057   1.470   0.156  0.00  0.00    +0.021 A 
ATOM     13 BR   UNL     1      -0.140   6.128   0.251  0.00  0.00    -0.050 Br
ENDBRANCH   2  12
BRANCH   6  14
ATOM     14  N   UNL     1      -2.365  -0.470  -0.482  0.00  0.00    -0.295 N 
ATOM     15  H   UNL     1      -3.123  -1.239  -0.695  0.00  0.00    +0.163 HD
ATOM     16  H   UNL     1      -2.635   0.595  -0.523  0.00  0.00    +0.163 HD
ENDBRANCH   6  14
ENDBRANCH   1   5
BRANCH   1  17
ATOM     17  C   UNL     1      -0.185  -4.815  -0.039  0.00  0.00    +0.173 C 
BRANCH  17  18
ATOM     18  C   UNL     1      -0.738  -6.205  -0.220  0.00  0.00    +0.226 C 
ATOM     19  O   UNL     1      -1.921  -6.364  -0.429  0.00  0.00    -0.275 OA
ATOM     20  N   UNL     1       0.084  -7.271  -0.148  0.00  0.00    -0.295 N 
BRANCH  20  21
ATOM     21  C   UNL     1       1.491  -7.089   0.217  0.00  0.00    +0.076 C 
ATOM     22  C   UNL     1       2.380  -7.503  -0.957  0.00  0.00    +0.022 C 
ATOM     23  C   UNL     1       3.849  -7.312  -0.575  0.00  0.00    +0.002 C 
ATOM     24  C   UNL     1       4.177  -8.179   0.643  0.00  0.00    +0.000 C 
ATOM     25  C   UNL     1       3.287  -7.764   1.817  0.00  0.00    +0.002 C 
ATOM     26  C   UNL     1       1.818  -7.955   1.435  0.00  0.00    +0.022 C 
ENDBRANCH  20  21
BRANCH  20  27
ATOM     27  C   UNL     1      -0.430  -8.613  -0.435  0.00  0.00    +0.076 C 
ATOM     28  C   UNL     1      -0.969  -8.656  -1.867  0.00  0.00    +0.022 C 
ATOM     29  C   UNL     1      -1.506 -10.057  -2.167  0.00  0.00    +0.002 C 
ATOM     30  C   UNL     1      -2.633 -10.392  -1.188  0.00  0.00    +0.000 C 
ATOM     31  C   UNL     1      -2.094 -10.348   0.244  0.00  0.00    +0.002 C 
ATOM     32  C   UNL     1      -1.557  -8.947   0.544  0.00  0.00    +0.022 C 
ENDBRANCH  20  27
ENDBRANCH  17  18
ENDBRANCH   1  17
TORSDOF 7
