REMARK  Name = ZINC59410949
REMARK  11 active torsions:
REMARK  status: ('A' for Active; 'I' for Inactive)
REMARK    1  A    between atoms: C_1  and  C_2
REMARK    2  A    between atoms: C_5  and  C_35
REMARK    3  A    between atoms: N_8  and  C_10
REMARK    4  A    between atoms: C_10  and  C_11
REMARK    5  A    between atoms: C_14  and  C_17
REMARK    6  A    between atoms: C_17  and  N_18
REMARK    7  A    between atoms: C_19  and  C_21
REMARK    8  A    between atoms: C_21  and  C_22
REMARK    9  A    between atoms: C_22  and  N_23
REMARK   10  A    between atoms: N_23  and  S_24
REMARK   11  A    between atoms: S_24  and  C_27
REMARK                            x       y       z     vdW  Elec       q    Type
REMARK                         _______ _______ _______ _____ _____    ______ ____
ROOT
ATOM      1  N   UNL     1       7.205  -0.064   0.580  0.00  0.00    -0.311 N 
ATOM      2  C   UNL     1       8.415   0.422   0.237  0.00  0.00    +0.215 C 
ATOM      3  O   UNL     1       9.372   0.229   0.956  0.00  0.00    -0.276 OA
ATOM      4  H   UNL     1       6.440   0.090   0.004  0.00  0.00    +0.149 HD
ENDROOT
BRANCH   1   5
ATOM      5  C   UNL     1       7.047  -0.825   1.821  0.00  0.00    +0.139 C 
BRANCH   5   9
ATOM      6  C   UNL     1       2.971  -2.034   2.241  0.00  0.00    -0.064 A 
ATOM      7  C   UNL     1       3.870  -2.852   1.582  0.00  0.00    +0.002 A 
ATOM      8  C   UNL     1       5.189  -2.460   1.446  0.00  0.00    +0.005 A 
ATOM      9  C   UNL     1       5.609  -1.252   1.969  0.00  0.00    -0.030 A 
ATOM     10  C   UNL     1       4.710  -0.434   2.628  0.00  0.00    +0.005 A 
ATOM     11  C   UNL     1       3.390  -0.823   2.760  0.00  0.00    +0.002 A 
BRANCH   6  12
ATOM     12  C   UNL     1       1.534  -2.461   2.390  0.00  0.00    -0.043 C 
BRANCH  12  18
ATOM     13  C   UNL     1      -0.019   1.526   0.010  0.00  0.00    +0.005 C 
ATOM     14  C   UNL     1       0.002  -0.004   0.002  0.00  0.00    -0.031 C 
ATOM     15  C   UNL     1      -1.434  -0.535   0.015  0.00  0.00    +0.003 C 
ATOM     16  C   UNL     1      -1.402  -2.064   0.086  0.00  0.00    -0.031 C 
ATOM     17  C   UNL     1      -0.613  -2.496   1.324  0.00  0.00    -0.075 C 
ATOM     18  N   UNL     1       0.758  -1.980   1.239  0.00  0.00    +0.383 N 
ATOM     19  C   UNL     1       0.740  -0.512   1.242  0.00  0.00    -0.075 C 
ATOM     20  C   UNL     1      -2.832  -2.602   0.177  0.00  0.00    +0.005 C 
ATOM     21  H   UNL     1       1.188  -2.307   0.386  0.00  0.00    -0.081 HD
ENDBRANCH  12  18
ENDBRANCH   6  12
ENDBRANCH   5   9
ENDBRANCH   1   5
BRANCH   2  22
ATOM     22  C   UNL     1       8.578   1.205  -1.040  0.00  0.00    +0.112 C 
BRANCH  22  23
ATOM     23  C   UNL     1      10.038   1.638  -1.190  0.00  0.00    +0.115 C 
BRANCH  23  24
ATOM     24  N   UNL     1      10.196   2.399  -2.432  0.00  0.00    -0.189 NA
ATOM     25  H   UNL     1       9.502   2.373  -3.109  0.00  0.00    +0.148 HD
BRANCH  24  26
ATOM     26  S   UNL     1      11.561   3.305  -2.679  0.00  0.00    +0.059 S 
ATOM     27  O   UNL     1      11.430   3.893  -3.966  0.00  0.00    -0.153 OA
ATOM     28  O   UNL     1      11.753   4.080  -1.504  0.00  0.00    -0.153 OA
BRANCH  26  29
ATOM     29  C   UNL     1      12.919   2.186  -2.772  0.00  0.00    +0.108 A 
ATOM     30  C   UNL     1      13.602   1.833  -1.624  0.00  0.00    +0.031 A 
ATOM     31  C   UNL     1      14.668   0.955  -1.694  0.00  0.00    +0.043 A 
ATOM     32  C   UNL     1      15.051   0.429  -2.915  0.00  0.00    +0.159 A 
ATOM     33  C   UNL     1      14.365   0.783  -4.067  0.00  0.00    +0.160 A 
ATOM     34  C   UNL     1      13.296   1.658  -3.993  0.00  0.00    +0.069 A 
ATOM     35  F   UNL     1      14.738   0.270  -5.260  0.00  0.00    -0.202 F 
ATOM     36  F   UNL     1      16.093  -0.428  -2.985  0.00  0.00    -0.202 F 
ENDBRANCH  26  29
ENDBRANCH  24  26
ENDBRANCH  23  24
ENDBRANCH  22  23
ENDBRANCH   2  22
TORSDOF 9
