REMARK  Name = ZINC39623595
REMARK  6 active torsions:
REMARK  status: ('A' for Active; 'I' for Inactive)
REMARK    1  A    between atoms: C_4  and  C_7
REMARK    2  A    between atoms: C_7  and  C_8
REMARK    3  A    between atoms: C_8  and  C_9
REMARK    4  A    between atoms: C_9  and  N_10
REMARK    5  A    between atoms: C_11  and  C_13
REMARK    6  A    between atoms: C_24  and  C_26
REMARK                            x       y       z     vdW  Elec       q    Type
REMARK                         _______ _______ _______ _____ _____    ______ ____
ROOT
ATOM      1  C   UNL     1       7.525  -2.816   4.673  0.00  0.00    +0.100 C 
ATOM      2  C   UNL     1       6.460  -3.693   5.368  0.00  0.00    +0.121 C 
ATOM      3  N   UNL     1       6.914  -5.085   5.138  0.00  0.00    -0.296 N 
ATOM      4  C   UNL     1       8.387  -5.023   5.291  0.00  0.00    +0.115 C 
ATOM      5  C   UNL     1       8.789  -3.690   4.628  0.00  0.00    -0.004 C 
ATOM      6  C   UNL     1       9.917  -3.029   5.414  0.00  0.00    -0.010 C 
ATOM      7  C   UNL     1      11.180  -3.888   5.306  0.00  0.00    -0.082 C 
ATOM      8  N   UNL     1      11.558  -4.031   3.895  0.00  0.00    +0.379 N 
ATOM      9  C   UNL     1      10.508  -4.751   3.166  0.00  0.00    -0.082 C 
ATOM     10  C   UNL     1       9.216  -3.929   3.183  0.00  0.00    -0.010 C 
ATOM     11  C   UNL     1       6.158  -6.164   4.854  0.00  0.00    +0.247 C 
ATOM     12  O   UNL     1       6.672  -7.264   4.778  0.00  0.00    -0.270 OA
ATOM     13  H   UNL     1      11.683  -3.116   3.487  0.00  0.00    -0.086 HD
ATOM     14  H   UNL     1      12.424  -4.545   3.831  0.00  0.00    -0.086 HD
ENDROOT
BRANCH  11  15
ATOM     15  C   UNL     1       4.705  -6.012   4.634  0.00  0.00    +0.045 A 
ATOM     16  C   UNL     1       3.923  -5.313   5.562  0.00  0.00    +0.014 A 
ATOM     17  C   UNL     1       2.568  -5.169   5.359  0.00  0.00    +0.001 A 
ATOM     18  C   UNL     1       1.964  -5.713   4.236  0.00  0.00    +0.012 A 
ATOM     19  C   UNL     1       2.722  -6.410   3.303  0.00  0.00    +0.031 A 
ATOM     20  C   UNL     1       4.105  -6.560   3.493  0.00  0.00    +0.006 A 
ATOM     21  C   UNL     1       4.662  -7.332   2.354  0.00  0.00    -0.006 A 
ATOM     22  C   UNL     1       5.952  -7.752   2.063  0.00  0.00    +0.009 A 
ATOM     23  C   UNL     1       6.202  -8.475   0.906  0.00  0.00    +0.001 A 
ATOM     24  C   UNL     1       5.173  -8.781   0.037  0.00  0.00    +0.001 A 
ATOM     25  C   UNL     1       3.879  -8.369   0.314  0.00  0.00    +0.012 A 
ATOM     26  C   UNL     1       3.616  -7.645   1.470  0.00  0.00    +0.030 A 
ATOM     27  C   UNL     1       2.363  -7.088   2.034  0.00  0.00    +0.194 C 
ATOM     28  O   UNL     1       1.254  -7.162   1.544  0.00  0.00    -0.287 OA
ENDBRANCH  11  15
BRANCH   1  30
ATOM     29  N   UNL     1       7.483  -1.301   2.718  0.00  0.00    -0.315 N 
ATOM     30  C   UNL     1       7.083  -2.460   3.277  0.00  0.00    +0.218 C 
ATOM     31  O   UNL     1       6.368  -3.218   2.656  0.00  0.00    -0.275 OA
ATOM     32  H   UNL     1       8.055  -0.695   3.215  0.00  0.00    +0.149 HD
BRANCH  29  33
ATOM     33  C   UNL     1       7.053  -0.956   1.361  0.00  0.00    +0.104 C 
BRANCH  33  34
ATOM     34  C   UNL     1       7.642   0.401   0.969  0.00  0.00    +0.023 C 
BRANCH  34  35
ATOM     35  C   UNL     1       7.194   0.762  -0.448  0.00  0.00    +0.036 C 
BRANCH  35  39
ATOM     36  C   UNL     1       8.836   4.550  -1.543  0.00  0.00    +0.000 A 
ATOM     37  C   UNL     1       9.538   3.389  -1.810  0.00  0.00    +0.000 A 
ATOM     38  C   UNL     1       9.006   2.164  -1.456  0.00  0.00    +0.003 A 
ATOM     39  C   UNL     1       7.773   2.099  -0.834  0.00  0.00    -0.047 A 
ATOM     40  C   UNL     1       7.072   3.260  -0.566  0.00  0.00    +0.003 A 
ATOM     41  C   UNL     1       7.603   4.485  -0.921  0.00  0.00    +0.000 A 
ENDBRANCH  35  39
ENDBRANCH  34  35
ENDBRANCH  33  34
ENDBRANCH  29  33
ENDBRANCH   1  30
TORSDOF 6
