REMARK  Name = ZINC34792063
REMARK  11 active torsions:
REMARK  status: ('A' for Active; 'I' for Inactive)
REMARK    1  A    between atoms: C_1  and  N_2
REMARK    2  A    between atoms: C_5  and  C_10
REMARK    3  A    between atoms: N_19  and  C_21
REMARK    4  A    between atoms: C_21  and  C_22
REMARK    5  A    between atoms: N_24  and  C_25
REMARK    6  A    between atoms: N_24  and  C_30
REMARK    7  A    between atoms: C_25  and  C_26
REMARK    8  A    between atoms: C_26  and  N_27
REMARK    9  A    between atoms: N_27  and  C_28
REMARK   10  A    between atoms: N_27  and  C_29
REMARK   11  A    between atoms: C_30  and  C_31
REMARK                            x       y       z     vdW  Elec       q    Type
REMARK                         _______ _______ _______ _____ _____    ______ ____
ROOT
ATOM      1  C   UNL     1      -0.018   1.461   0.010  0.00  0.00    +0.139 C 
ATOM      2  N   UNL     1       0.002  -0.004   0.002  0.00  0.00    -0.260 N 
ATOM      3  C   UNL     1      -1.193  -0.666   0.004  0.00  0.00    +0.042 C 
ATOM      4  C   UNL     1      -1.245  -2.013  -0.003  0.00  0.00    +0.058 C 
ATOM      5  C   UNL     1       0.068  -2.769  -0.014  0.00  0.00    +0.142 C 
ATOM      6  N   UNL     1       1.301  -1.964  -0.016  0.00  0.00    -0.288 N 
ATOM      7  C   UNL     1       1.191  -0.621  -0.013  0.00  0.00    +0.307 C 
ATOM      8  O   UNL     1       2.203   0.052  -0.018  0.00  0.00    -0.252 OA
ATOM      9  C   UNL     1      -2.585  -2.452   0.002  0.00  0.00    +0.247 C 
ATOM     10  O   UNL     1      -2.927  -3.620  -0.003  0.00  0.00    -0.270 OA
ATOM     11  N   UNL     1      -3.437  -1.411   0.012  0.00  0.00    -0.283 N 
ATOM     12  C   UNL     1      -2.626  -0.184   0.015  0.00  0.00    +0.160 C 
ATOM     13  H   UNL     1       2.172  -2.391  -0.023  0.00  0.00    +0.151 HD
ENDROOT
BRANCH   5  14
ATOM     14  C   UNL     1       0.100  -3.664   1.198  0.00  0.00    -0.022 A 
ATOM     15  C   UNL     1       0.423  -3.139   2.435  0.00  0.00    +0.008 A 
ATOM     16  C   UNL     1       0.452  -3.958   3.548  0.00  0.00    +0.038 A 
ATOM     17  C   UNL     1       0.156  -5.305   3.424  0.00  0.00    +0.123 A 
ATOM     18  C   UNL     1      -0.168  -5.829   2.184  0.00  0.00    +0.038 A 
ATOM     19  C   UNL     1      -0.201  -5.007   1.074  0.00  0.00    +0.008 A 
ATOM     20  F   UNL     1       0.185  -6.106   4.511  0.00  0.00    -0.205 F 
ENDBRANCH   5  14
BRANCH  11  21
ATOM     21  C   UNL     1      -4.900  -1.485   0.019  0.00  0.00    +0.204 C 
BRANCH  21  22
ATOM     22  C   UNL     1      -5.394  -1.519   1.442  0.00  0.00    +0.233 C 
ATOM     23  O   UNL     1      -4.603  -1.484   2.360  0.00  0.00    -0.274 OA
ATOM     24  N   UNL     1      -6.717  -1.587   1.695  0.00  0.00    -0.298 N 
BRANCH  24  25
ATOM     25  C   UNL     1      -7.673  -1.629   0.586  0.00  0.00    +0.089 C 
BRANCH  25  26
ATOM     26  C   UNL     1      -7.933  -3.085   0.192  0.00  0.00    -0.060 C 
BRANCH  26  27
ATOM     27  N   UNL     1      -8.892  -3.127  -0.920  0.00  0.00    +0.377 N 
ATOM     28  C   UNL     1      -9.050  -4.514  -1.378  0.00  0.00    -0.097 C 
ATOM     29  C   UNL     1     -10.190  -2.610  -0.467  0.00  0.00    -0.097 C 
ATOM     30  H   UNL     1      -8.550  -2.559  -1.681  0.00  0.00    -0.083 HD
ENDBRANCH  26  27
ENDBRANCH  25  26
ENDBRANCH  24  25
BRANCH  24  31
ATOM     31  C   UNL     1      -7.197  -1.620   3.079  0.00  0.00    +0.142 C 
BRANCH  31  32
ATOM     32  C   UNL     1      -7.434  -0.212   3.561  0.00  0.00    -0.030 A 
ATOM     33  C   UNL     1      -6.412   0.491   4.171  0.00  0.00    +0.005 A 
ATOM     34  C   UNL     1      -6.629   1.782   4.614  0.00  0.00    +0.000 A 
ATOM     35  C   UNL     1      -7.869   2.371   4.447  0.00  0.00    +0.000 A 
ATOM     36  C   UNL     1      -8.891   1.668   3.836  0.00  0.00    +0.000 A 
ATOM     37  C   UNL     1      -8.672   0.379   3.389  0.00  0.00    +0.005 A 
ENDBRANCH  31  32
ENDBRANCH  24  31
ENDBRANCH  21  22
ENDBRANCH  11  21
TORSDOF 8
