REMARK  Name = ZINC15506697
REMARK  9 active torsions:
REMARK  status: ('A' for Active; 'I' for Inactive)
REMARK    1  A    between atoms: C_1  and  C_2
REMARK    2  A    between atoms: C_4  and  N_11
REMARK    3  A    between atoms: C_6  and  C_8
REMARK    4  A    between atoms: C_8  and  C_9
REMARK    5  A    between atoms: C_8  and  C_10
REMARK    6  A    between atoms: N_14  and  C_17
REMARK    7  A    between atoms: C_17  and  C_19
REMARK    8  A    between atoms: C_17  and  C_20
REMARK    9  A    between atoms: C_31  and  C_33
REMARK                            x       y       z     vdW  Elec       q    Type
REMARK                         _______ _______ _______ _____ _____    ______ ____
ROOT
ATOM      1  C   UNL     1      -1.959  -4.808  -5.460  0.00  0.00    +0.017 C 
ATOM      2  C   UNL     1      -1.697  -6.314  -5.402  0.00  0.00    -0.004 C 
ENDROOT
BRANCH   1   3
ATOM      3  C   UNL     1      -1.742  -4.315  -6.868  0.00  0.00    +0.206 C 
ATOM      4  O   UNL     1      -0.666  -3.856  -7.190  0.00  0.00    -0.277 OA
ATOM      5  N   UNL     1      -2.743  -4.383  -7.768  0.00  0.00    -0.262 N 
ATOM      6  C   UNL     1      -4.083  -4.846  -7.378  0.00  0.00    +0.209 C 
ATOM      7  C   UNL     1      -4.619  -5.758  -8.452  0.00  0.00    +0.235 C 
ATOM      8  O   UNL     1      -5.401  -6.637  -8.156  0.00  0.00    -0.274 OA
ATOM      9  N   UNL     1      -4.241  -5.609  -9.736  0.00  0.00    -0.283 N 
ATOM     10  C   UNL     1      -3.303  -4.636 -10.097  0.00  0.00    +0.056 A 
ATOM     11  C   UNL     1      -2.541  -4.010  -9.106  0.00  0.00    +0.058 A 
ATOM     12  C   UNL     1      -1.608  -3.046  -9.445  0.00  0.00    +0.026 A 
ATOM     13  C   UNL     1      -1.435  -2.696 -10.773  0.00  0.00    +0.014 A 
ATOM     14  C   UNL     1      -2.191  -3.307 -11.757  0.00  0.00    +0.057 A 
ATOM     15  C   UNL     1      -3.123  -4.282 -11.424  0.00  0.00    +0.037 A 
ATOM     16  H   UNL     1      -4.623  -6.183 -10.418  0.00  0.00    +0.155 HD
BRANCH  14  17
ATOM     17  C   UNL     1      -1.997  -2.917 -13.200  0.00  0.00    +0.417 C 
ATOM     18  F   UNL     1      -1.009  -1.931 -13.288  0.00  0.00    -0.166 F 
ATOM     19  F   UNL     1      -1.603  -4.039 -13.936  0.00  0.00    -0.166 F 
ATOM     20  F   UNL     1      -3.200  -2.421 -13.714  0.00  0.00    -0.166 F 
ENDBRANCH  14  17
ENDBRANCH   1   3
BRANCH   1  24
ATOM     21  N   UNL     1      -0.285  -2.559  -2.355  0.00  0.00    -0.319 N 
ATOM     22  C   UNL     1      -0.146  -4.021  -2.271  0.00  0.00    +0.088 C 
ATOM     23  C   UNL     1      -1.186  -4.661  -3.196  0.00  0.00    -0.059 C 
ATOM     24  N   UNL     1      -1.037  -4.115  -4.551  0.00  0.00    +0.389 N 
ATOM     25  C   UNL     1      -1.342  -2.679  -4.548  0.00  0.00    -0.059 C 
ATOM     26  C   UNL     1      -0.316  -1.941  -3.690  0.00  0.00    +0.088 C 
ATOM     27  H   UNL     1      -0.089  -4.256  -4.866  0.00  0.00    -0.081 HD
BRANCH  21  31
ATOM     28  C   UNL     1      -0.660   1.835  -0.168  0.00  0.00    +0.063 C 
ATOM     29  C   UNL     1      -0.572   0.331  -0.127  0.00  0.00    +0.017 A 
ATOM     30  C   UNL     1      -0.469  -0.395  -1.298  0.00  0.00    +0.064 A 
ATOM     31  C   UNL     1      -0.389  -1.786  -1.210  0.00  0.00    +0.125 A 
ATOM     32  N   UNL     1      -0.416  -2.357  -0.009  0.00  0.00    -0.219 NA
ATOM     33  C   UNL     1      -0.516  -1.625   1.082  0.00  0.00    +0.112 A 
ATOM     34  N   UNL     1      -0.587  -0.310   1.033  0.00  0.00    -0.347 N 
ATOM     35  H   UNL     1      -0.656   0.195   1.857  0.00  0.00    +0.167 HD
BRANCH  33  36
ATOM     36  C   UNL     1      -0.543  -2.311   2.424  0.00  0.00    +0.049 C 
ATOM     37  C   UNL     1       0.871  -2.345   3.008  0.00  0.00    +0.015 C 
ATOM     38  C   UNL     1      -1.467  -1.542   3.370  0.00  0.00    +0.015 C 
ENDBRANCH  33  36
ENDBRANCH  21  31
ENDBRANCH   1  24
TORSDOF 5
