REMARK  Name = ZINC67584794
REMARK  10 active torsions:
REMARK  status: ('A' for Active; 'I' for Inactive)
REMARK    1  A    between atoms: C_1  and  C_2
REMARK    2  A    between atoms: C_2  and  C_3
REMARK    3  A    between atoms: C_3  and  C_4
REMARK    4  A    between atoms: N_6  and  C_7
REMARK    5  A    between atoms: C_11  and  N_14
REMARK    6  A    between atoms: C_12  and  C_13
REMARK    7  A    between atoms: N_17  and  C_18
REMARK    8  A    between atoms: N_17  and  C_19
REMARK    9  A    between atoms: C_19  and  C_21
REMARK   10  A    between atoms: C_19  and  C_22
REMARK                            x       y       z     vdW  Elec       q    Type
REMARK                         _______ _______ _______ _____ _____    ______ ____
ROOT
ATOM      1  N   UNL     1       2.791  -6.922  -4.033  0.00  0.00    -0.269 N 
ATOM      2  C   UNL     1       2.365  -8.136  -4.433  0.00  0.00    +0.307 C 
ATOM      3  O   UNL     1       1.428  -8.668  -3.871  0.00  0.00    -0.252 OA
ATOM      4  N   UNL     1       2.979  -8.761  -5.457  0.00  0.00    -0.282 N 
ATOM      5  C   UNL     1       4.109  -8.121  -6.135  0.00  0.00    +0.134 C 
ATOM      6  H   UNL     1       3.582  -6.528  -4.434  0.00  0.00    +0.156 HD
ENDROOT
BRANCH   1  11
ATOM      7  C   UNL     1       1.306  -4.161  -2.102  0.00  0.00    +0.038 A 
ATOM      8  C   UNL     1       0.709  -4.864  -1.062  0.00  0.00    +0.024 A 
ATOM      9  C   UNL     1       0.804  -6.241  -1.013  0.00  0.00    +0.004 A 
ATOM     10  C   UNL     1       1.493  -6.925  -1.996  0.00  0.00    +0.024 A 
ATOM     11  C   UNL     1       2.093  -6.229  -3.038  0.00  0.00    +0.039 A 
ATOM     12  C   UNL     1       1.994  -4.846  -3.094  0.00  0.00    -0.008 A 
ATOM     13  C   UNL     1       2.638  -4.088  -4.226  0.00  0.00    +0.047 C 
BRANCH   7  16
ATOM     14  C   UNL     1       0.182  -2.140  -1.544  0.00  0.00    +0.217 C 
ATOM     15  O   UNL     1      -0.712  -2.788  -1.043  0.00  0.00    -0.275 OA
ATOM     16  N   UNL     1       1.210  -2.766  -2.152  0.00  0.00    -0.285 N 
ATOM     17  H   UNL     1       1.882  -2.250  -2.623  0.00  0.00    +0.155 HD
BRANCH  14  18
ATOM     18  C   UNL     1       0.145  -0.635  -1.488  0.00  0.00    +0.096 C 
BRANCH  18  20
ATOM     19  C   UNL     1      -1.155   1.345  -0.692  0.00  0.00    +0.004 C 
ATOM     20  C   UNL     1      -1.117  -0.183  -0.749  0.00  0.00    +0.006 C 
ENDBRANCH  18  20
ENDBRANCH  14  18
ENDBRANCH   7  16
ENDBRANCH   1  11
BRANCH   4  21
ATOM     21  C   UNL     1       2.517 -10.082  -5.893  0.00  0.00    +0.104 C 
ATOM     22  C   UNL     1       2.202 -10.044  -7.390  0.00  0.00    +0.033 C 
BRANCH  21  23
ATOM     23  C   UNL     1       3.593 -11.103  -5.631  0.00  0.00    -0.024 A 
ATOM     24  C   UNL     1       4.864 -10.912  -6.141  0.00  0.00    +0.008 A 
ATOM     25  C   UNL     1       5.854 -11.847  -5.902  0.00  0.00    +0.041 A 
ATOM     26  C   UNL     1       5.573 -12.976  -5.152  0.00  0.00    +0.158 A 
ATOM     27  C   UNL     1       4.298 -13.167  -4.641  0.00  0.00    +0.159 A 
ATOM     28  C   UNL     1       3.311 -12.226  -4.878  0.00  0.00    +0.046 A 
ATOM     29  F   UNL     1       4.021 -14.268  -3.909  0.00  0.00    -0.202 F 
ATOM     30  F   UNL     1       6.539 -13.891  -4.919  0.00  0.00    -0.202 F 
ENDBRANCH  21  23
ENDBRANCH   4  21
TORSDOF 6
