REMARK  Name = ZINC54118177
REMARK  12 active torsions:
REMARK  status: ('A' for Active; 'I' for Inactive)
REMARK    1  A    between atoms: C_1  and  C_2
REMARK    2  A    between atoms: C_2  and  C_4
REMARK    3  A    between atoms: C_2  and  N_18
REMARK    4  A    between atoms: N_6  and  C_7
REMARK    5  A    between atoms: C_10  and  N_14
REMARK    6  A    between atoms: N_14  and  C_15
REMARK    7  A    between atoms: N_14  and  C_16
REMARK    8  A    between atoms: C_19  and  O_21
REMARK    9  A    between atoms: O_21  and  C_22
REMARK   10  A    between atoms: C_22  and  C_23
REMARK   11  A    between atoms: C_22  and  C_24
REMARK   12  A    between atoms: C_22  and  C_25
REMARK                            x       y       z     vdW  Elec       q    Type
REMARK                         _______ _______ _______ _____ _____    ______ ____
ROOT
ATOM      1  C   UNL     1      -1.412  -0.524   0.012  0.00  0.00    +0.237 C 
ATOM      2  O   UNL     1      -1.810  -1.215  -0.902  0.00  0.00    -0.273 OA
ATOM      3  N   UNL     1      -2.236  -0.217   1.033  0.00  0.00    -0.284 N 
ATOM      4  H   UNL     1      -1.899   0.279   1.796  0.00  0.00    +0.155 HD
ENDROOT
BRANCH   3   5
ATOM      5  C   UNL     1      -3.580  -0.613   0.993  0.00  0.00    +0.039 A 
ATOM      6  C   UNL     1      -4.562   0.207   1.533  0.00  0.00    +0.063 A 
ATOM      7  C   UNL     1      -5.888  -0.183   1.493  0.00  0.00    +0.149 A 
ATOM      8  C   UNL     1      -6.237  -1.397   0.913  0.00  0.00    +0.101 A 
ATOM      9  C   UNL     1      -5.254  -2.217   0.373  0.00  0.00    +0.149 A 
ATOM     10  C   UNL     1      -3.929  -1.823   0.408  0.00  0.00    +0.063 A 
ATOM     11  F   UNL     1      -5.593  -3.397  -0.192  0.00  0.00    -0.203 F 
ATOM     12  F   UNL     1      -6.843   0.614   2.019  0.00  0.00    -0.203 F 
BRANCH   8  13
ATOM     13  N   UNL     1      -7.582  -1.794   0.872  0.00  0.00    -0.332 N 
ATOM     14  C   UNL     1      -8.421  -1.425  -0.271  0.00  0.00    +0.129 C 
ATOM     15  C   UNL     1      -8.148  -2.577   1.974  0.00  0.00    +0.129 C 
ENDBRANCH   8  13
ENDBRANCH   3   5
BRANCH   1  17
ATOM     16  C   UNL     1      -0.009   1.521   0.022  0.00  0.00    +0.038 C 
ATOM     17  C   UNL     1       0.004  -0.009   0.005  0.00  0.00    +0.159 C 
BRANCH  17  18
ATOM     18  N   UNL     1       0.689  -0.478  -1.202  0.00  0.00    -0.270 N 
ATOM     19  C   UNL     1       2.031  -0.595  -1.213  0.00  0.00    +0.401 C 
ATOM     20  O   UNL     1       2.674  -0.312  -0.221  0.00  0.00    -0.226 OA
ATOM     21  H   UNL     1       0.176  -0.705  -1.993  0.00  0.00    +0.153 HD
BRANCH  19  22
ATOM     22  O   UNL     1       2.661  -1.026  -2.322  0.00  0.00    -0.445 OA
BRANCH  22  23
ATOM     23  C   UNL     1       4.085  -1.126  -2.263  0.00  0.00    +0.107 C 
ATOM     24  C   UNL     1       4.482  -2.107  -1.158  0.00  0.00    +0.055 C 
ATOM     25  C   UNL     1       4.617  -1.629  -3.606  0.00  0.00    +0.055 C 
ATOM     26  C   UNL     1       4.681   0.250  -1.961  0.00  0.00    +0.055 C 
ENDBRANCH  22  23
ENDBRANCH  19  22
ENDBRANCH  17  18
ENDBRANCH   1  17
TORSDOF 6
