REMARK  Name = ZINC04135014
REMARK  6 active torsions:
REMARK  status: ('A' for Active; 'I' for Inactive)
REMARK    1  A    between atoms: C_8  and  C_10
REMARK    2  A    between atoms: C_14  and  N_16
REMARK    3  A    between atoms: N_16  and  C_17
REMARK    4  A    between atoms: C_17  and  N_19
REMARK    5  A    between atoms: C_20  and  C_22
REMARK    6  A    between atoms: C_22  and  N_23
REMARK                            x       y       z     vdW  Elec       q    Type
REMARK                         _______ _______ _______ _____ _____    ______ ____
ROOT
ATOM      1  N   UNL     1      -2.472   3.813   0.046  0.00  0.00    -0.297 N 
ATOM      2  H   UNL     1      -2.667   4.479  -0.632  0.00  0.00    +0.154 HD
ENDROOT
BRANCH   1   7
ATOM      3  C   UNL     1       1.135   3.127  -0.277  0.00  0.00    +0.039 A 
ATOM      4  C   UNL     1       1.161   1.756  -0.015  0.00  0.00    +0.013 A 
ATOM      5  C   UNL     1      -0.012   1.085   0.263  0.00  0.00    +0.003 A 
ATOM      6  C   UNL     1      -1.216   1.764   0.278  0.00  0.00    +0.023 A 
ATOM      7  C   UNL     1      -1.252   3.130   0.024  0.00  0.00    +0.033 A 
ATOM      8  C   UNL     1      -0.079   3.814  -0.256  0.00  0.00    +0.036 A 
BRANCH   3  16
ATOM      9  C   UNL     1       6.531   5.425  -1.405  0.00  0.00    +0.002 A 
ATOM     10  C   UNL     1       5.824   6.610  -1.545  0.00  0.00    +0.004 A 
ATOM     11  C   UNL     1       4.455   6.632  -1.376  0.00  0.00    +0.048 A 
ATOM     12  C   UNL     1       3.778   5.463  -1.064  0.00  0.00    +0.156 A 
ATOM     13  C   UNL     1       4.490   4.261  -0.921  0.00  0.00    +0.110 A 
ATOM     14  C   UNL     1       5.876   4.254  -1.095  0.00  0.00    +0.031 A 
ATOM     15  N   UNL     1       3.578   3.302  -0.620  0.00  0.00    -0.209 NA
ATOM     16  C   UNL     1       2.390   3.849  -0.575  0.00  0.00    +0.228 A 
ATOM     17  O   UNL     1       2.478   5.165  -0.847  0.00  0.00    -0.435 OA
ENDBRANCH   3  16
ENDBRANCH   1   7
BRANCH   1  18
ATOM     18  C   UNL     1      -3.376   3.548   1.010  0.00  0.00    +0.141 C 
ATOM     19  S   UNL     1      -2.978   2.479   2.286  0.00  0.00    -0.018 S 
BRANCH  18  20
ATOM     20  N   UNL     1      -4.594   4.123   0.968  0.00  0.00    -0.266 N 
ATOM     21  C   UNL     1      -5.499   3.857   1.931  0.00  0.00    +0.236 C 
ATOM     22  O   UNL     1      -5.216   3.101   2.835  0.00  0.00    -0.274 OA
ATOM     23  H   UNL     1      -4.820   4.729   0.244  0.00  0.00    +0.157 HD
BRANCH  21  24
ATOM     24  C   UNL     1      -6.861   4.501   1.884  0.00  0.00    +0.212 C 
BRANCH  24  25
ATOM     25  N   UNL     1      -7.651   4.054   3.034  0.00  0.00    -0.233 N 
ATOM     26  C   UNL     1      -8.436   2.970   2.997  0.00  0.00    +0.223 C 
ATOM     27  O   UNL     1      -8.585   2.244   2.037  0.00  0.00    -0.275 OA
ATOM     28  C   UNL     1      -9.103   2.792   4.343  0.00  0.00    +0.105 C 
ATOM     29  C   UNL     1      -8.570   3.979   5.171  0.00  0.00    +0.105 C 
ATOM     30  C   UNL     1      -7.654   4.700   4.207  0.00  0.00    +0.223 C 
ATOM     31  O   UNL     1      -7.021   5.704   4.457  0.00  0.00    -0.275 OA
ENDBRANCH  24  25
ENDBRANCH  21  24
ENDBRANCH  18  20
ENDBRANCH   1  18
TORSDOF 6
