REMARK  Name = ZINC42197508
REMARK  4 active torsions:
REMARK  status: ('A' for Active; 'I' for Inactive)
REMARK    1  A    between atoms: C_3  and  S_8
REMARK    2  A    between atoms: C_6  and  N_7
REMARK    3  A    between atoms: S_8  and  C_10
REMARK    4  A    between atoms: C_10  and  C_11
REMARK                            x       y       z     vdW  Elec       q    Type
REMARK                         _______ _______ _______ _____ _____    ______ ____
ROOT
ATOM      1  C   UNL     1      -0.017   1.385   0.010  0.00  0.00    +0.024 A 
ATOM      2  C   UNL     1       1.171   2.090   0.002  0.00  0.00    +0.019 A 
ATOM      3  C   UNL     1       2.377   1.415  -0.013  0.00  0.00    +0.039 A 
ATOM      4  C   UNL     1       2.400   0.032  -0.021  0.00  0.00    +0.019 A 
ATOM      5  C   UNL     1       1.216  -0.679  -0.014  0.00  0.00    +0.024 A 
ATOM      6  C   UNL     1       0.002  -0.004   0.002  0.00  0.00    +0.025 A 
ENDROOT
BRANCH   6   7
ATOM      7  N   UNL     1      -1.197  -0.720   0.010  0.00  0.00    -0.358 N 
ATOM      8  H   UNL     1      -2.044  -0.248   0.021  0.00  0.00    +0.142 HD
ATOM      9  H   UNL     1      -1.183  -1.690   0.005  0.00  0.00    +0.142 HD
ENDBRANCH   6   7
BRANCH   3  10
ATOM     10  S   UNL     1       3.890   2.319  -0.024  0.00  0.00    +0.054 S 
ATOM     11  O   UNL     1       3.537   3.574  -0.588  0.00  0.00    -0.252 OA
BRANCH  10  12
ATOM     12  C   UNL     1       4.285   2.535   1.733  0.00  0.00    +0.115 C 
BRANCH  12  13
ATOM     13  C   UNL     1       5.593   3.315   1.870  0.00  0.00    +0.029 C 
ATOM     14  C   UNL     1       5.994   3.445   3.359  0.00  0.00    +0.034 C 
ATOM     15  C   UNL     1       6.513   4.904   3.430  0.00  0.00    +0.160 C 
ATOM     16  O   UNL     1       5.629   5.619   2.540  0.00  0.00    -0.379 OA
ATOM     17  C   UNL     1       5.406   4.770   1.398  0.00  0.00    +0.164 C 
ENDBRANCH  12  13
ENDBRANCH  10  12
ENDBRANCH   3  10
TORSDOF 4
