REMARK  Name = ZINC09464925
REMARK  9 active torsions:
REMARK  status: ('A' for Active; 'I' for Inactive)
REMARK    1  A    between atoms: C_1  and  C_2
REMARK    2  A    between atoms: C_2  and  C_3
REMARK    3  A    between atoms: C_3  and  C_4
REMARK    4  A    between atoms: C_4  and  N_5
REMARK    5  A    between atoms: C_15  and  C_33
REMARK    6  A    between atoms: C_16  and  C_17
REMARK    7  A    between atoms: N_19  and  N_20
REMARK    8  A    between atoms: C_24  and  C_32
REMARK    9  A    between atoms: N_28  and  C_31
REMARK                            x       y       z     vdW  Elec       q    Type
REMARK                         _______ _______ _______ _____ _____    ______ ____
ROOT
ATOM      1  N   UNL     1       1.338  -3.021  -2.681  0.00  0.00    -0.309 N 
ATOM      2  C   UNL     1       0.963  -3.459  -3.946  0.00  0.00    +0.069 A 
ATOM      3  C   UNL     1      -0.270  -3.712  -4.533  0.00  0.00    +0.028 A 
ATOM      4  C   UNL     1      -0.332  -4.149  -5.840  0.00  0.00    +0.002 A 
ATOM      5  C   UNL     1       0.830  -4.335  -6.571  0.00  0.00    +0.002 A 
ATOM      6  C   UNL     1       2.061  -4.086  -5.997  0.00  0.00    +0.028 A 
ATOM      7  C   UNL     1       2.135  -3.647  -4.682  0.00  0.00    +0.074 A 
ATOM      8  N   UNL     1       3.202  -3.319  -3.851  0.00  0.00    -0.272 N 
ATOM      9  C   UNL     1       2.710  -2.936  -2.645  0.00  0.00    +0.217 A 
ATOM     10  N   UNL     1       3.717  -2.616  -1.850  0.00  0.00    -0.211 NA
ATOM     11  C   UNL     1       4.877  -2.772  -2.497  0.00  0.00    +0.104 A 
ATOM     12  C   UNL     1       4.586  -3.229  -3.781  0.00  0.00    +0.139 A 
ENDROOT
BRANCH  11  13
ATOM     13  C   UNL     1       6.227  -2.515  -1.945  0.00  0.00    +0.003 A 
ATOM     14  C   UNL     1       7.259  -3.426  -2.169  0.00  0.00    +0.010 A 
ATOM     15  C   UNL     1       8.515  -3.182  -1.652  0.00  0.00    +0.001 A 
ATOM     16  C   UNL     1       8.751  -2.036  -0.913  0.00  0.00    +0.000 A 
ATOM     17  C   UNL     1       7.731  -1.129  -0.688  0.00  0.00    +0.001 A 
ATOM     18  C   UNL     1       6.473  -1.359  -1.204  0.00  0.00    +0.010 A 
ENDBRANCH  11  13
BRANCH  12  19
ATOM     19  C   UNL     1       5.511  -3.525  -4.808  0.00  0.00    +0.282 C 
ATOM     20  O   UNL     1       5.983  -2.625  -5.480  0.00  0.00    -0.267 OA
ATOM     21  N   UNL     1       5.870  -4.802  -5.044  0.00  0.00    -0.201 N 
ATOM     22  H   UNL     1       5.439  -5.524  -4.560  0.00  0.00    +0.178 HD
BRANCH  21  23
ATOM     23  N   UNL     1       6.865  -5.087  -5.987  0.00  0.00    -0.174 NA
ATOM     24  C   UNL     1       7.197  -6.332  -6.235  0.00  0.00    +0.153 C 
ATOM     25  C   UNL     1       6.527  -7.559  -5.745  0.00  0.00    +0.029 A 
ATOM     26  C   UNL     1       5.422  -7.780  -4.930  0.00  0.00    +0.015 A 
ATOM     27  C   UNL     1       5.030  -9.072  -4.644  0.00  0.00    -0.050 A 
ATOM     28  C   UNL     1       5.734 -10.143  -5.167  0.00  0.00    +0.005 A 
ATOM     29  C   UNL     1       6.832  -9.934  -5.977  0.00  0.00    +0.024 A 
ATOM     30  C   UNL     1       7.242  -8.639  -6.277  0.00  0.00    +0.046 A 
ATOM     31  N   UNL     1       8.293  -8.159  -7.050  0.00  0.00    -0.269 N 
ATOM     32  C   UNL     1       8.314  -6.815  -7.069  0.00  0.00    +0.271 C 
ATOM     33  O   UNL     1       9.115  -6.120  -7.666  0.00  0.00    -0.268 OA
ATOM     34  C   UNL     1       9.251  -9.009  -7.761  0.00  0.00    +0.138 C 
ATOM     35  C   UNL     1       3.834  -9.317  -3.760  0.00  0.00    +0.044 C 
ENDBRANCH  21  23
ENDBRANCH  12  19
BRANCH   1  36
ATOM     36  C   UNL     1       0.428  -2.700  -1.579  0.00  0.00    +0.125 C 
BRANCH  36  37
ATOM     37  C   UNL     1       0.039  -1.222  -1.653  0.00  0.00    +0.021 C 
BRANCH  37  39
ATOM     38  C   UNL     1      -1.300   0.592  -0.577  0.00  0.00    +0.004 C 
ATOM     39  C   UNL     1      -0.911  -0.886  -0.502  0.00  0.00    -0.002 C 
ENDBRANCH  37  39
ENDBRANCH  36  37
ENDBRANCH   1  36
TORSDOF 6
