REMARK  Name = ZINC58522371
REMARK  13 active torsions:
REMARK  status: ('A' for Active; 'I' for Inactive)
REMARK    1  A    between atoms: C_1  and  C_2
REMARK    2  A    between atoms: C_2  and  N_3
REMARK    3  A    between atoms: N_3  and  C_4
REMARK    4  A    between atoms: N_3  and  C_6
REMARK    5  A    between atoms: C_4  and  C_5
REMARK    6  A    between atoms: C_6  and  C_7
REMARK    7  A    between atoms: C_7  and  N_8
REMARK    8  A    between atoms: N_17  and  C_18
REMARK    9  A    between atoms: C_18  and  C_20
REMARK   10  A    between atoms: C_20  and  C_21
REMARK   11  A    between atoms: C_21  and  N_22
REMARK   12  A    between atoms: N_22  and  S_23
REMARK   13  A    between atoms: S_23  and  C_26
REMARK                            x       y       z     vdW  Elec       q    Type
REMARK                         _______ _______ _______ _____ _____    ______ ____
ROOT
ATOM      1  N   UNL     1      -2.325  -4.005   0.563  0.00  0.00    -0.314 N 
ATOM      2  C   UNL     1      -2.201  -4.931  -0.469  0.00  0.00    +0.068 A 
ATOM      3  C   UNL     1      -2.234  -4.817  -1.852  0.00  0.00    +0.028 A 
ATOM      4  C   UNL     1      -2.079  -5.942  -2.637  0.00  0.00    +0.002 A 
ATOM      5  C   UNL     1      -1.893  -7.183  -2.052  0.00  0.00    +0.002 A 
ATOM      6  C   UNL     1      -1.859  -7.306  -0.677  0.00  0.00    +0.028 A 
ATOM      7  C   UNL     1      -2.013  -6.182   0.122  0.00  0.00    +0.066 A 
ATOM      8  N   UNL     1      -2.025  -5.991   1.500  0.00  0.00    -0.326 N 
ATOM      9  C   UNL     1      -2.209  -4.667   1.744  0.00  0.00    +0.201 A 
ATOM     10  N   UNL     1      -2.270  -4.107   2.950  0.00  0.00    -0.147 NA
ATOM     11  H   UNL     1      -1.917  -6.683   2.170  0.00  0.00    +0.169 HD
ENDROOT
BRANCH  10  12
ATOM     12  C   UNL     1      -2.022  -4.835   4.034  0.00  0.00    +0.240 C 
ATOM     13  O   UNL     1      -1.650  -5.988   3.921  0.00  0.00    -0.274 OA
BRANCH  12  14
ATOM     14  C   UNL     1      -2.200  -4.233   5.404  0.00  0.00    +0.115 C 
BRANCH  14  15
ATOM     15  C   UNL     1      -1.851  -5.274   6.469  0.00  0.00    +0.115 C 
BRANCH  15  16
ATOM     16  N   UNL     1      -2.024  -4.688   7.800  0.00  0.00    -0.189 NA
ATOM     17  H   UNL     1      -2.105  -3.727   7.900  0.00  0.00    +0.148 HD
BRANCH  16  18
ATOM     18  S   UNL     1      -2.082  -5.667   9.134  0.00  0.00    +0.058 S 
ATOM     19  O   UNL     1      -2.228  -4.812  10.260  0.00  0.00    -0.153 OA
ATOM     20  O   UNL     1      -3.009  -6.702   8.839  0.00  0.00    -0.153 OA
BRANCH  18  21
ATOM     21  C   UNL     1      -0.503  -6.434   9.287  0.00  0.00    +0.105 A 
ATOM     22  C   UNL     1      -0.258  -7.641   8.658  0.00  0.00    +0.031 A 
ATOM     23  C   UNL     1       0.981  -8.243   8.776  0.00  0.00    +0.040 A 
ATOM     24  C   UNL     1       1.976  -7.638   9.524  0.00  0.00    +0.124 A 
ATOM     25  C   UNL     1       1.729  -6.429  10.153  0.00  0.00    +0.040 A 
ATOM     26  C   UNL     1       0.492  -5.826  10.029  0.00  0.00    +0.031 A 
ATOM     27  F   UNL     1       3.187  -8.226   9.641  0.00  0.00    -0.205 F 
ENDBRANCH  18  21
ENDBRANCH  16  18
ENDBRANCH  15  16
ENDBRANCH  14  15
ENDBRANCH  12  14
ENDBRANCH  10  12
BRANCH   1  28
ATOM     28  C   UNL     1      -2.536  -2.565   0.403  0.00  0.00    +0.106 C 
BRANCH  28  29
ATOM     29  C   UNL     1      -1.182  -1.856   0.324  0.00  0.00    -0.057 C 
BRANCH  29  30
ATOM     30  N   UNL     1      -1.392  -0.430   0.039  0.00  0.00    +0.380 N 
ATOM     31  H   UNL     1      -1.933  -0.332  -0.807  0.00  0.00    -0.082 HD
BRANCH  30  33
ATOM     32  C   UNL     1      -2.441   1.645   0.807  0.00  0.00    -0.017 C 
ATOM     33  C   UNL     1      -2.113   0.192   1.157  0.00  0.00    -0.082 C 
ENDBRANCH  30  33
BRANCH  30  34
ATOM     34  C   UNL     1      -0.091   0.231  -0.133  0.00  0.00    -0.082 C 
ATOM     35  C   UNL     1       0.609  -0.336  -1.370  0.00  0.00    -0.017 C 
ENDBRANCH  30  34
ENDBRANCH  29  30
ENDBRANCH  28  29
ENDBRANCH   1  28
TORSDOF 11
