REMARK  Name = ZINC12004179
REMARK  11 active torsions:
REMARK  status: ('A' for Active; 'I' for Inactive)
REMARK    1  A    between atoms: C_1  and  O_2
REMARK    2  A    between atoms: O_2  and  C_3
REMARK    3  A    between atoms: C_6  and  C_13
REMARK    4  A    between atoms: C_7  and  O_11
REMARK    5  A    between atoms: C_8  and  O_9
REMARK    6  A    between atoms: O_9  and  C_10
REMARK    7  A    between atoms: O_11  and  C_12
REMARK    8  A    between atoms: C_13  and  N_64
REMARK    9  A    between atoms: C_16  and  C_19
REMARK   10  A    between atoms: C_19  and  C_26
REMARK   11  A    between atoms: C_26  and  C_27
REMARK                            x       y       z     vdW  Elec       q    Type
REMARK                         _______ _______ _______ _____ _____    ______ ____
ROOT
ATOM      1  C   UNL     1       1.795  -1.929  -2.363  0.00  0.00    -0.078 C 
ATOM      2  C   UNL     1       1.407  -2.359  -3.779  0.00  0.00    -0.013 C 
ATOM      3  C   UNL     1       1.644  -3.864  -3.933  0.00  0.00    +0.018 C 
ATOM      4  C   UNL     1       0.830  -4.612  -2.873  0.00  0.00    -0.013 C 
ATOM      5  C   UNL     1       1.235  -4.116  -1.483  0.00  0.00    -0.078 C 
ATOM      6  N   UNL     1       0.959  -2.667  -1.391  0.00  0.00    +0.382 N 
ATOM      7  H   UNL     1      -0.030  -2.501  -1.610  0.00  0.00    -0.081 HD
ENDROOT
BRANCH   3   8
ATOM      8  C   UNL     1       1.202  -4.313  -5.327  0.00  0.00    +0.119 C 
ATOM      9  C   UNL     1       1.404  -5.806  -5.496  0.00  0.00    +0.245 C 
ATOM     10  O   UNL     1       2.451  -6.413  -5.441  0.00  0.00    -0.273 OA
ATOM     11  N   UNL     1       0.177  -6.316  -5.720  0.00  0.00    -0.238 N 
ATOM     12  C   UNL     1      -0.763  -5.364  -5.716  0.00  0.00    +0.307 C 
ATOM     13  O   UNL     1      -1.945  -5.580  -5.895  0.00  0.00    -0.252 OA
ATOM     14  N   UNL     1      -0.252  -4.139  -5.491  0.00  0.00    -0.284 N 
ATOM     15  H   UNL     1      -0.003  -7.258  -5.865  0.00  0.00    +0.159 HD
ATOM     16  H   UNL     1      -0.745  -3.305  -5.445  0.00  0.00    +0.151 HD
BRANCH   8  17
ATOM     17  C   UNL     1       1.964  -3.541  -6.406  0.00  0.00    +0.073 C 
BRANCH  17  18
ATOM     18  C   UNL     1       1.425  -3.911  -7.764  0.00  0.00    -0.010 A 
ATOM     19  C   UNL     1       2.044  -4.899  -8.507  0.00  0.00    +0.006 A 
ATOM     20  C   UNL     1       1.546  -5.242  -9.750  0.00  0.00    +0.000 A 
ATOM     21  C   UNL     1       0.437  -4.591 -10.256  0.00  0.00    +0.003 A 
ATOM     22  C   UNL     1      -0.180  -3.600  -9.518  0.00  0.00    +0.038 A 
ATOM     23  C   UNL     1       0.314  -3.258  -8.270  0.00  0.00    +0.127 A 
ATOM     24  F   UNL     1      -0.288  -2.289  -7.546  0.00  0.00    -0.205 F 
ENDBRANCH  17  18
ENDBRANCH   8  17
ENDBRANCH   3   8
BRANCH   6  25
ATOM     25  C   UNL     1       1.235  -2.186  -0.021  0.00  0.00    -0.039 C 
BRANCH  25  29
ATOM     26  C   UNL     1       1.179   2.093   0.002  0.00  0.00    +0.165 A 
ATOM     27  C   UNL     1       2.386   1.411  -0.012  0.00  0.00    +0.050 A 
ATOM     28  C   UNL     1       2.401   0.029  -0.020  0.00  0.00    +0.009 A 
ATOM     29  C   UNL     1       1.213  -0.679  -0.013  0.00  0.00    -0.018 A 
ATOM     30  C   UNL     1       0.002  -0.004   0.002  0.00  0.00    +0.167 A 
ATOM     31  C   UNL     1      -0.017   1.386   0.010  0.00  0.00    +0.204 A 
BRANCH  26  33
ATOM     32  C   UNL     1       2.433   4.114   0.001  0.00  0.00    +0.277 C 
ATOM     33  O   UNL     1       1.166   3.453   0.009  0.00  0.00    -0.491 OA
ENDBRANCH  26  33
BRANCH  31  34
ATOM     34  O   UNL     1      -1.204   2.052   0.019  0.00  0.00    -0.488 OA
ATOM     35  C   UNL     1      -1.763   2.363   1.296  0.00  0.00    +0.277 C 
ENDBRANCH  31  34
BRANCH  30  36
ATOM     36  O   UNL     1      -1.166  -0.701   0.010  0.00  0.00    -0.491 OA
ATOM     37  C   UNL     1      -1.736  -1.026  -1.260  0.00  0.00    +0.277 C 
ENDBRANCH  30  36
ENDBRANCH  25  29
ENDBRANCH   6  25
TORSDOF 8
