REMARK  Name = ZINC07193775
REMARK  8 active torsions:
REMARK  status: ('A' for Active; 'I' for Inactive)
REMARK    1  A    between atoms: C_1  and  C_2
REMARK    2  A    between atoms: C_3  and  C_7
REMARK    3  A    between atoms: C_10  and  S_12
REMARK    4  A    between atoms: S_12  and  C_13
REMARK    5  A    between atoms: C_13  and  C_14
REMARK    6  A    between atoms: N_19  and  C_20
REMARK    7  A    between atoms: C_20  and  C_21
REMARK    8  A    between atoms: C_21  and  C_22
REMARK                            x       y       z     vdW  Elec       q    Type
REMARK                         _______ _______ _______ _____ _____    ______ ____
ROOT
ATOM      1  C   UNL     1       7.098   1.466   5.045  0.00  0.00    +0.231 C 
ATOM      2  O   UNL     1       6.984   1.830   6.195  0.00  0.00    -0.274 OA
ATOM      3  N   UNL     1       8.309   1.126   4.562  0.00  0.00    -0.240 N 
ATOM      4  C   UNL     1       9.395   1.192   5.358  0.00  0.00    +0.306 C 
ATOM      5  O   UNL     1       9.281   1.558   6.511  0.00  0.00    -0.252 OA
ATOM      6  N   UNL     1      10.606   0.853   4.875  0.00  0.00    -0.299 N 
ATOM      7  H   UNL     1       8.400   0.834   3.641  0.00  0.00    +0.159 HD
ATOM      8  H   UNL     1      10.697   0.561   3.954  0.00  0.00    +0.150 HD
ENDROOT
BRANCH   1   9
ATOM      9  C   UNL     1       5.884   1.391   4.155  0.00  0.00    +0.175 C 
BRANCH   9  10
ATOM     10  S   UNL     1       4.420   1.907   5.086  0.00  0.00    -0.056 S 
BRANCH  10  14
ATOM     11  C   UNL     1       1.304   1.711   2.784  0.00  0.00    +0.253 A 
ATOM     12  N   UNL     1       2.258   1.310   1.980  0.00  0.00    -0.106 NA
ATOM     13  N   UNL     1       3.381   1.326   2.608  0.00  0.00    -0.101 NA
ATOM     14  C   UNL     1       3.187   1.728   3.841  0.00  0.00    +0.278 A 
ATOM     15  O   UNL     1       1.870   1.981   3.981  0.00  0.00    -0.411 OA
BRANCH  11  18
ATOM     16  C   UNL     1      -0.013   1.086   0.008  0.00  0.00    +0.087 C 
ATOM     17  C   UNL     1      -0.718   1.572   1.248  0.00  0.00    +0.114 A 
ATOM     18  C   UNL     1      -0.130   1.839   2.446  0.00  0.00    +0.079 A 
ATOM     19  C   UNL     1      -1.214   2.279   3.333  0.00  0.00    +0.054 A 
ATOM     20  C   UNL     1      -2.336   2.236   2.595  0.00  0.00    +0.196 A 
ATOM     21  O   UNL     1      -2.031   1.820   1.357  0.00  0.00    -0.467 OA
ENDBRANCH  11  18
ENDBRANCH  10  14
ENDBRANCH   9  10
ENDBRANCH   1   9
BRANCH   6  22
ATOM     22  C   UNL     1      11.786   0.925   5.740  0.00  0.00    +0.110 C 
BRANCH  22  23
ATOM     23  C   UNL     1      13.024   0.490   4.953  0.00  0.00    +0.049 C 
BRANCH  23  24
ATOM     24  C   UNL     1      14.238   0.564   5.843  0.00  0.00    -0.072 C 
ATOM     25  C   UNL     1      14.611  -0.516   6.451  0.00  0.00    -0.028 C 
ATOM     26  C   UNL     1      15.791  -0.596   7.375  0.00  0.00    +0.027 C 
ATOM     27  C   UNL     1      16.707   0.612   7.165  0.00  0.00    +0.004 C 
ATOM     28  C   UNL     1      15.849   1.883   7.198  0.00  0.00    +0.005 C 
ATOM     29  C   UNL     1      14.941   1.884   5.964  0.00  0.00    +0.030 C 
ENDBRANCH  23  24
ENDBRANCH  22  23
ENDBRANCH   6  22
TORSDOF 7
