REMARK  Name = ZINC09730937
REMARK  9 active torsions:
REMARK  status: ('A' for Active; 'I' for Inactive)
REMARK    1  A    between atoms: C_1  and  C_2
REMARK    2  A    between atoms: C_3  and  C_28
REMARK    3  A    between atoms: C_5  and  S_8
REMARK    4  A    between atoms: S_8  and  C_9
REMARK    5  A    between atoms: C_9  and  C_10
REMARK    6  A    between atoms: N_12  and  C_13
REMARK    7  A    between atoms: C_17  and  S_19
REMARK    8  A    between atoms: S_19  and  N_22
REMARK    9  A    between atoms: C_28  and  C_29
REMARK                            x       y       z     vdW  Elec       q    Type
REMARK                         _______ _______ _______ _____ _____    ______ ____
ROOT
ATOM      1  C   UNL     1       1.875  -3.780  -4.820  0.00  0.00    +0.227 C 
ATOM      2  O   UNL     1       2.457  -3.820  -5.884  0.00  0.00    -0.275 OA
ATOM      3  N   UNL     1       1.002  -4.753  -4.493  0.00  0.00    -0.285 N 
ATOM      4  H   UNL     1       0.595  -4.764  -3.613  0.00  0.00    +0.155 HD
ENDROOT
BRANCH   3   5
ATOM      5  C   UNL     1       0.683  -5.749  -5.423  0.00  0.00    +0.035 A 
ATOM      6  C   UNL     1       0.643  -5.448  -6.779  0.00  0.00    +0.023 A 
ATOM      7  C   UNL     1       0.333  -6.434  -7.694  0.00  0.00    +0.004 A 
ATOM      8  C   UNL     1       0.051  -7.717  -7.262  0.00  0.00    +0.028 A 
ATOM      9  C   UNL     1       0.085  -8.019  -5.913  0.00  0.00    +0.107 A 
ATOM     10  C   UNL     1       0.400  -7.038  -4.993  0.00  0.00    +0.051 A 
BRANCH   9  11
ATOM     11  S   UNL     1      -0.275  -9.655  -5.368  0.00  0.00    +0.061 S 
ATOM     12  O   UNL     1      -0.005 -10.517  -6.465  0.00  0.00    -0.153 OA
ATOM     13  O   UNL     1       0.357  -9.810  -4.105  0.00  0.00    -0.153 OA
BRANCH  11  14
ATOM     14  N   UNL     1      -1.906  -9.733  -5.095  0.00  0.00    -0.172 NA
ATOM     15  C   UNL     1      -2.468  -9.416  -3.772  0.00  0.00    +0.137 C 
ATOM     16  C   UNL     1      -3.607  -8.402  -3.966  0.00  0.00    +0.177 C 
ATOM     17  O   UNL     1      -4.523  -8.906  -4.941  0.00  0.00    -0.377 OA
ATOM     18  C   UNL     1      -3.956  -9.083  -6.241  0.00  0.00    +0.177 C 
ATOM     19  C   UNL     1      -2.836 -10.127  -6.165  0.00  0.00    +0.137 C 
ENDBRANCH  11  14
ENDBRANCH   9  11
ENDBRANCH   3   5
BRANCH   1  20
ATOM     20  C   UNL     1       2.129  -2.643  -3.865  0.00  0.00    +0.173 C 
BRANCH  20  21
ATOM     21  S   UNL     1       3.341  -1.509  -4.585  0.00  0.00    -0.079 S 
BRANCH  21  26
ATOM     22  C   UNL     1       4.660   2.737  -1.661  0.00  0.00    +0.065 C 
ATOM     23  C   UNL     1       4.013   1.453  -2.111  0.00  0.00    +0.037 A 
ATOM     24  C   UNL     1       3.111   0.730  -1.426  0.00  0.00    +0.067 A 
ATOM     25  N   UNL     1       2.783  -0.345  -2.163  0.00  0.00    -0.226 NA
ATOM     26  C   UNL     1       3.446  -0.313  -3.296  0.00  0.00    +0.167 A 
ATOM     27  N   UNL     1       4.232   0.798  -3.302  0.00  0.00    -0.337 N 
ATOM     28  H   UNL     1       4.852   1.085  -4.033  0.00  0.00    +0.168 HD
BRANCH  24  29
ATOM     29  C   UNL     1       2.566   1.062  -0.061  0.00  0.00    +0.092 C 
BRANCH  29  30
ATOM     30  C   UNL     1       1.332   1.915  -0.207  0.00  0.00    -0.042 A 
ATOM     31  C   UNL     1       0.088   1.320  -0.304  0.00  0.00    +0.004 A 
ATOM     32  C   UNL     1      -1.043   2.102  -0.444  0.00  0.00    +0.000 A 
ATOM     33  C   UNL     1      -0.932   3.480  -0.476  0.00  0.00    +0.000 A 
ATOM     34  C   UNL     1       0.312   4.075  -0.378  0.00  0.00    +0.000 A 
ATOM     35  C   UNL     1       1.444   3.292  -0.243  0.00  0.00    +0.004 A 
ENDBRANCH  29  30
ENDBRANCH  24  29
ENDBRANCH  21  26
ENDBRANCH  20  21
ENDBRANCH   1  20
TORSDOF 8
