REMARK  Name = ZINC38705528
REMARK  11 active torsions:
REMARK  status: ('A' for Active; 'I' for Inactive)
REMARK    1  A    between atoms: C_1  and  C_2
REMARK    2  A    between atoms: C_2  and  C_3
REMARK    3  A    between atoms: C_3  and  O_4
REMARK    4  A    between atoms: O_4  and  C_5
REMARK    5  A    between atoms: C_9  and  C_11
REMARK    6  A    between atoms: C_14  and  C_30
REMARK    7  A    between atoms: N_21  and  C_22
REMARK    8  A    between atoms: C_22  and  C_23
REMARK    9  A    between atoms: C_31  and  C_38
REMARK   10  A    between atoms: C_33  and  C_37
REMARK   11  A    between atoms: C_35  and  O_36
REMARK                            x       y       z     vdW  Elec       q    Type
REMARK                         _______ _______ _______ _____ _____    ______ ____
ROOT
ATOM      1  C   UNL     1       2.049  -6.053  -3.544  0.00  0.00    +0.142 C 
ATOM      2  C   UNL     1       3.446  -6.523  -3.245  0.00  0.00    +0.035 A 
ATOM      3  C   UNL     1       4.497  -6.587  -2.323  0.00  0.00    +0.102 A 
ATOM      4  N   UNL     1       5.485  -7.246  -2.896  0.00  0.00    -0.173 NA
ATOM      5  N   UNL     1       5.162  -7.606  -4.087  0.00  0.00    -0.272 N 
ATOM      6  H   UNL     1       5.733  -8.102  -4.694  0.00  0.00    +0.189 HD
ATOM      7  C   UNL     1       3.894  -7.184  -4.372  0.00  0.00    +0.126 A 
ATOM      8  C   UNL     1       2.831  -7.154  -5.384  0.00  0.00    +0.266 C 
ATOM      9  O   UNL     1       2.912  -7.650  -6.491  0.00  0.00    -0.268 OA
ATOM     10  N   UNL     1       1.753  -6.499  -4.912  0.00  0.00    -0.281 N 
ENDROOT
BRANCH   3  11
ATOM     11  C   UNL     1       4.500  -6.016  -0.953  0.00  0.00    +0.047 A 
ATOM     12  C   UNL     1       5.564  -5.223  -0.528  0.00  0.00    -0.037 A 
ATOM     13  C   UNL     1       5.562  -4.695   0.747  0.00  0.00    +0.007 A 
ATOM     14  C   UNL     1       4.507  -4.949   1.605  0.00  0.00    -0.047 A 
ATOM     15  C   UNL     1       3.447  -5.735   1.193  0.00  0.00    +0.049 A 
ATOM     16  C   UNL     1       3.433  -6.267  -0.086  0.00  0.00    +0.127 A 
ATOM     17  C   UNL     1       4.514  -4.368   2.995  0.00  0.00    +0.044 C 
ATOM     18  C   UNL     1       6.715  -4.944  -1.459  0.00  0.00    +0.044 C 
BRANCH  16  19
ATOM     19  O   UNL     1       2.389  -7.034  -0.495  0.00  0.00    -0.506 OA
ATOM     20  H   UNL     1       2.464  -7.965  -0.246  0.00  0.00    +0.292 HD
ENDBRANCH  16  19
ENDBRANCH   3  11
BRANCH   1  25
ATOM     21  C   UNL     1       1.165  -2.564  -2.393  0.00  0.00    +0.121 A 
ATOM     22  C   UNL     1       1.853  -1.789  -3.316  0.00  0.00    +0.045 A 
ATOM     23  C   UNL     1       2.600  -2.396  -4.307  0.00  0.00    +0.004 A 
ATOM     24  C   UNL     1       2.663  -3.776  -4.379  0.00  0.00    +0.006 A 
ATOM     25  C   UNL     1       1.979  -4.550  -3.462  0.00  0.00    -0.019 A 
ATOM     26  C   UNL     1       1.235  -3.948  -2.465  0.00  0.00    +0.051 A 
BRANCH  21  27
ATOM     27  O   UNL     1       0.430  -1.970  -1.418  0.00  0.00    -0.492 OA
BRANCH  27  28
ATOM     28  C   UNL     1       0.404  -0.541  -1.404  0.00  0.00    +0.229 C 
BRANCH  28  30
ATOM     29  C   UNL     1      -0.495   1.472  -0.230  0.00  0.00    +0.007 C 
ATOM     30  C   UNL     1      -0.467  -0.057  -0.244  0.00  0.00    +0.038 C 
ENDBRANCH  28  30
ENDBRANCH  27  28
ENDBRANCH  21  27
ENDBRANCH   1  25
BRANCH  10  31
ATOM     31  C   UNL     1       0.501  -6.270  -5.637  0.00  0.00    +0.144 C 
BRANCH  31  32
ATOM     32  C   UNL     1       0.591  -4.971  -6.396  0.00  0.00    -0.030 A 
ATOM     33  C   UNL     1       0.195  -3.791  -5.794  0.00  0.00    +0.008 A 
ATOM     34  C   UNL     1       0.278  -2.599  -6.489  0.00  0.00    +0.038 A 
ATOM     35  C   UNL     1       0.756  -2.587  -7.788  0.00  0.00    +0.123 A 
ATOM     36  C   UNL     1       1.152  -3.769  -8.389  0.00  0.00    +0.038 A 
ATOM     37  C   UNL     1       1.074  -4.959  -7.691  0.00  0.00    +0.008 A 
ATOM     38  F   UNL     1       0.837  -1.422  -8.468  0.00  0.00    -0.205 F 
ENDBRANCH  31  32
ENDBRANCH  10  31
TORSDOF 8
