REMARK  Name = ZINC36161462
REMARK  13 active torsions:
REMARK  status: ('A' for Active; 'I' for Inactive)
REMARK    1  A    between atoms: C_1  and  C_2
REMARK    2  A    between atoms: C_15  and  C_17
REMARK    3  A    between atoms: C_17  and  N_18
REMARK    4  A    between atoms: N_18  and  C_19
REMARK    5  A    between atoms: N_18  and  C_24
REMARK    6  A    between atoms: C_19  and  C_20
REMARK    7  A    between atoms: C_20  and  C_21
REMARK    8  A    between atoms: C_21  and  C_22
REMARK    9  A    between atoms: C_21  and  C_23
REMARK   10  A    between atoms: C_24  and  C_25
REMARK   11  A    between atoms: C_25  and  C_27
REMARK   12  A    between atoms: C_25  and  O_34
REMARK   13  A    between atoms: C_27  and  C_28
REMARK                            x       y       z     vdW  Elec       q    Type
REMARK                         _______ _______ _______ _____ _____    ______ ____
ROOT
ATOM      1  N   UNL     1       0.918  -8.358   3.210  0.00  0.00    +0.386 N 
ATOM      2  H   UNL     1       1.851  -8.208   2.855  0.00  0.00    -0.081 HD
ENDROOT
BRANCH   1   3
ATOM      3  C   UNL     1      -0.063  -7.897   2.219  0.00  0.00    -0.003 C 
BRANCH   3  17
ATOM      4  C   UNL     1       2.575   1.533   0.417  0.00  0.00    +0.008 C 
ATOM      5  C   UNL     1       2.225   0.045   0.339  0.00  0.00    -0.009 C 
ATOM      6  C   UNL     1       0.703  -0.122   0.298  0.00  0.00    +0.008 C 
ATOM      7  C   UNL     1       0.350  -1.574  -0.029  0.00  0.00    +0.037 C 
ATOM      8  C   UNL     1       1.083  -2.492   0.946  0.00  0.00    -0.023 A 
ATOM      9  C   UNL     1       2.155  -2.043   1.640  0.00  0.00    -0.004 A 
ATOM     10  S   UNL     1       2.678  -3.420   2.630  0.00  0.00    -0.073 S 
ATOM     11  C   UNL     1       1.462  -4.591   2.114  0.00  0.00    +0.116 A 
ATOM     12  C   UNL     1       0.684  -3.868   1.182  0.00  0.00    +0.075 A 
ATOM     13  C   UNL     1      -0.412  -4.563   0.570  0.00  0.00    +0.260 A 
ATOM     14  O   UNL     1      -1.144  -4.030  -0.246  0.00  0.00    -0.267 OA
ATOM     15  N   UNL     1      -0.582  -5.849   0.958  0.00  0.00    -0.312 N 
ATOM     16  H   UNL     1      -1.311  -6.357   0.569  0.00  0.00    +0.170 HD
ATOM     17  C   UNL     1       0.220  -6.461   1.863  0.00  0.00    +0.094 A 
ATOM     18  N   UNL     1       1.233  -5.858   2.445  0.00  0.00    -0.229 NA
ATOM     19  C   UNL     1       2.769  -0.677   1.579  0.00  0.00    +0.046 C 
ENDBRANCH   3  17
ENDBRANCH   1   3
BRANCH   1  20
ATOM     20  C   UNL     1       0.743  -7.606   4.460  0.00  0.00    -0.078 C 
BRANCH  20  21
ATOM     21  C   UNL     1      -0.619  -7.944   5.071  0.00  0.00    -0.016 C 
BRANCH  21  22
ATOM     22  C   UNL     1      -0.857  -7.066   6.302  0.00  0.00    -0.019 C 
ATOM     23  C   UNL     1      -2.267  -7.314   6.840  0.00  0.00    +0.007 C 
ATOM     24  C   UNL     1       0.170  -7.413   7.382  0.00  0.00    +0.007 C 
ENDBRANCH  21  22
ENDBRANCH  20  21
ENDBRANCH   1  20
BRANCH   1  25
ATOM     25  C   UNL     1       0.718  -9.790   3.469  0.00  0.00    -0.046 C 
BRANCH  25  26
ATOM     26  C   UNL     1       1.812 -10.297   4.409  0.00  0.00    +0.102 C 
BRANCH  26  27
ATOM     27  O   UNL     1       3.091 -10.105   3.800  0.00  0.00    -0.393 OA
ATOM     28  H   UNL     1       3.199 -10.571   2.959  0.00  0.00    +0.210 HD
ENDBRANCH  26  27
BRANCH  26  29
ATOM     29  C   UNL     1       1.598 -11.787   4.686  0.00  0.00    +0.064 C 
BRANCH  29  30
ATOM     30  C   UNL     1       2.601 -12.258   5.707  0.00  0.00    -0.045 A 
ATOM     31  C   UNL     1       3.829 -12.742   5.298  0.00  0.00    +0.004 A 
ATOM     32  C   UNL     1       4.750 -13.174   6.234  0.00  0.00    +0.000 A 
ATOM     33  C   UNL     1       4.442 -13.121   7.581  0.00  0.00    +0.000 A 
ATOM     34  C   UNL     1       3.214 -12.636   7.991  0.00  0.00    +0.000 A 
ATOM     35  C   UNL     1       2.295 -12.200   7.054  0.00  0.00    +0.004 A 
ENDBRANCH  29  30
ENDBRANCH  26  29
ENDBRANCH  25  26
ENDBRANCH   1  25
TORSDOF 10
