REMARK  Name = ZINC29040416
REMARK  10 active torsions:
REMARK  status: ('A' for Active; 'I' for Inactive)
REMARK    1  A    between atoms: C_1  and  C_2
REMARK    2  A    between atoms: C_7  and  S_8
REMARK    3  A    between atoms: S_8  and  N_11
REMARK    4  A    between atoms: N_11  and  N_12
REMARK    5  A    between atoms: C_15  and  C_32
REMARK    6  A    between atoms: C_16  and  C_19
REMARK    7  A    between atoms: C_19  and  C_20
REMARK    8  A    between atoms: N_22  and  C_23
REMARK    9  A    between atoms: C_23  and  C_24
REMARK   10  A    between atoms: C_26  and  C_30
REMARK                            x       y       z     vdW  Elec       q    Type
REMARK                         _______ _______ _______ _____ _____    ______ ____
ROOT
ATOM      1  N   UNL     1       0.002  -0.004   0.002  0.00  0.00    -0.218 N 
ATOM      2  C   UNL     1       0.028  -0.681   1.178  0.00  0.00    +0.113 A 
ATOM      3  C   UNL     1       0.041  -2.035   1.196  0.00  0.00    +0.023 A 
ATOM      4  C   UNL     1       0.039  -2.751  -0.009  0.00  0.00    -0.040 A 
ATOM      5  C   UNL     1       0.018  -2.068  -1.190  0.00  0.00    +0.030 A 
ATOM      6  C   UNL     1      -0.000  -0.663  -1.172  0.00  0.00    +0.273 A 
ATOM      7  O   UNL     1      -0.018  -0.040  -2.222  0.00  0.00    -0.266 OA
ATOM      8  C   UNL     1       0.059  -4.258   0.000  0.00  0.00    +0.044 C 
ENDROOT
BRANCH   1   9
ATOM      9  N   UNL     1      -0.017   1.397   0.010  0.00  0.00    -0.150 N 
ATOM     10  H   UNL     1       0.928   1.960   0.008  0.00  0.00    +0.195 HD
BRANCH   9  11
ATOM     11  S   UNL     1      -1.462   2.205   0.021  0.00  0.00    +0.087 S 
ATOM     12  O   UNL     1      -1.155   3.584   0.173  0.00  0.00    -0.149 OA
ATOM     13  O   UNL     1      -2.214   1.709  -1.078  0.00  0.00    -0.149 OA
BRANCH  11  20
ATOM     14  C   UNL     1      -1.226   3.618   2.685  0.00  0.00    +0.046 C 
ATOM     15  C   UNL     1      -2.149   2.427   2.653  0.00  0.00    -0.022 A 
ATOM     16  C   UNL     1      -2.822   2.044   3.798  0.00  0.00    +0.005 A 
ATOM     17  C   UNL     1      -3.668   0.951   3.771  0.00  0.00    +0.002 A 
ATOM     18  C   UNL     1      -3.840   0.240   2.598  0.00  0.00    +0.022 A 
ATOM     19  C   UNL     1      -3.172   0.626   1.450  0.00  0.00    +0.068 A 
ATOM     20  C   UNL     1      -2.321   1.717   1.480  0.00  0.00    +0.131 A 
ATOM     21 CL   UNL     1      -3.394  -0.261  -0.025  0.00  0.00    -0.082 Cl
ENDBRANCH  11  20
ENDBRANCH   9  11
ENDBRANCH   1   9
BRANCH   5  22
ATOM     22  C   UNL     1       0.015  -2.814  -2.500  0.00  0.00    +0.136 C 
BRANCH  22  23
ATOM     23  C   UNL     1      -1.403  -2.973  -2.983  0.00  0.00    +0.218 C 
ATOM     24  O   UNL     1      -2.321  -2.526  -2.329  0.00  0.00    -0.275 OA
ATOM     25  N   UNL     1      -1.652  -3.613  -4.143  0.00  0.00    -0.309 N 
ATOM     26  H   UNL     1      -0.819  -4.019  -4.737  0.00  0.00    +0.149 HD
BRANCH  25  27
ATOM     27  C   UNL     1      -3.030  -3.768  -4.613  0.00  0.00    +0.162 C 
BRANCH  27  28
ATOM     28  C   UNL     1      -3.034  -4.513  -5.923  0.00  0.00    +0.094 A 
ATOM     29  C   UNL     1      -3.120  -5.895  -5.925  0.00  0.00    +0.149 A 
ATOM     30  C   UNL     1      -3.123  -6.571  -7.138  0.00  0.00    -0.012 A 
ATOM     31  C   UNL     1      -3.038  -5.829  -8.306  0.00  0.00    +0.026 A 
ATOM     32  C   UNL     1      -2.954  -4.452  -8.225  0.00  0.00    +0.111 A 
ATOM     33  N   UNL     1      -2.960  -3.842  -7.055  0.00  0.00    -0.255 NA
ATOM     34  C   UNL     1      -3.215  -8.074  -7.184  0.00  0.00    +0.047 C 
ATOM     35  F   UNL     1      -3.201  -6.577  -4.761  0.00  0.00    -0.203 F 
ENDBRANCH  27  28
ENDBRANCH  25  27
ENDBRANCH  22  23
ENDBRANCH   5  22
TORSDOF 7
