REMARK  Name = ZINC49300289
REMARK  8 active torsions:
REMARK  status: ('A' for Active; 'I' for Inactive)
REMARK    1  A    between atoms: C_1  and  C_2
REMARK    2  A    between atoms: C_2  and  C_3
REMARK    3  A    between atoms: C_2  and  C_4
REMARK    4  A    between atoms: C_4  and  C_6
REMARK    5  A    between atoms: C_4  and  N_11
REMARK    6  A    between atoms: C_12  and  C_14
REMARK    7  A    between atoms: N_16  and  C_17
REMARK    8  A    between atoms: C_20  and  N_24
REMARK                            x       y       z     vdW  Elec       q    Type
REMARK                         _______ _______ _______ _____ _____    ______ ____
ROOT
ATOM      1  C   UNL     1      -1.299  -4.159  -1.171  0.00  0.00    +0.303 C 
ATOM      2  O   UNL     1      -1.369  -4.772  -0.126  0.00  0.00    -0.265 OA
ATOM      3  N   UNL     1      -1.194  -4.824  -2.338  0.00  0.00    -0.276 N 
ATOM      4  H   UNL     1      -1.204  -4.337  -3.177  0.00  0.00    +0.155 HD
ENDROOT
BRANCH   3   5
ATOM      5  C   UNL     1      -1.069  -6.216  -2.340  0.00  0.00    +0.052 A 
ATOM      6  C   UNL     1      -1.728  -6.975  -1.380  0.00  0.00    +0.027 A 
ATOM      7  C   UNL     1      -1.603  -8.351  -1.385  0.00  0.00    +0.034 A 
ATOM      8  C   UNL     1      -0.823  -8.973  -2.343  0.00  0.00    +0.128 A 
ATOM      9  C   UNL     1      -0.166  -8.222  -3.300  0.00  0.00    +0.054 A 
ATOM     10  C   UNL     1      -0.292  -6.845  -3.305  0.00  0.00    +0.064 A 
ATOM     11 CL   UNL     1       0.527  -5.903  -4.511  0.00  0.00    -0.082 Cl
BRANCH   8  12
ATOM     12  N   UNL     1      -0.692 -10.447  -2.344  0.00  0.00    +0.056 N 
ATOM     13  O   UNL     1      -1.265 -11.106  -1.508  0.00  0.00    -0.126 OA
ATOM     14  O   UNL     1      -0.011 -10.993  -3.180  0.00  0.00    -0.126 OA
ENDBRANCH   8  12
ENDBRANCH   3   5
BRANCH   1  16
ATOM     15  N   UNL     1      -1.437  -2.000   0.004  0.00  0.00    -0.300 N 
ATOM     16  C   UNL     1      -1.331  -2.665  -1.163  0.00  0.00    +0.300 C 
ATOM     17  O   UNL     1      -1.262  -2.051  -2.208  0.00  0.00    -0.265 OA
ATOM     18  H   UNL     1      -1.492  -2.490   0.839  0.00  0.00    +0.150 HD
BRANCH  15  19
ATOM     19  C   UNL     1      -1.468  -0.535   0.012  0.00  0.00    +0.113 C 
BRANCH  19  20
ATOM     20  C   UNL     1      -2.178  -0.054   1.251  0.00  0.00    +0.010 A 
ATOM     21  C   UNL     1      -3.057   0.968   1.389  0.00  0.00    +0.013 A 
ATOM     22  C   UNL     1      -3.590   1.231   2.637  0.00  0.00    +0.008 A 
ATOM     23  C   UNL     1      -3.218   0.458   3.686  0.00  0.00    +0.045 A 
ATOM     24  S   UNL     1      -2.085  -0.688   2.917  0.00  0.00    -0.100 S 
ENDBRANCH  19  20
BRANCH  19  26
ATOM     25  C   UNL     1      -0.069   1.535   0.010  0.00  0.00    +0.009 C 
ATOM     26  C   UNL     1      -0.037   0.005   0.002  0.00  0.00    +0.008 C 
ATOM     27  C   UNL     1       0.706  -0.495   1.242  0.00  0.00    +0.009 C 
ENDBRANCH  19  26
ENDBRANCH  15  19
ENDBRANCH   1  16
TORSDOF 6
