REMARK  Name = ZINC01340037
REMARK  11 active torsions:
REMARK  status: ('A' for Active; 'I' for Inactive)
REMARK    1  A    between atoms: C_1  and  C_2
REMARK    2  A    between atoms: C_2  and  C_3
REMARK    3  A    between atoms: C_8  and  C_30
REMARK    4  A    between atoms: C_12  and  S_13
REMARK    5  A    between atoms: S_13  and  C_14
REMARK    6  A    between atoms: C_14  and  C_15
REMARK    7  A    between atoms: N_17  and  C_18
REMARK    8  A    between atoms: C_21  and  C_29
REMARK    9  A    between atoms: C_22  and  N_24
REMARK   10  A    between atoms: C_25  and  C_27
REMARK   11  A    between atoms: C_27  and  C_28
REMARK                            x       y       z     vdW  Elec       q    Type
REMARK                         _______ _______ _______ _____ _____    ______ ____
ROOT
ATOM      1  C   UNL     1      -3.518   2.925  -0.168  0.00  0.00    +0.227 C 
ATOM      2  O   UNL     1      -3.444   1.716  -0.210  0.00  0.00    -0.275 OA
ATOM      3  N   UNL     1      -2.395   3.671  -0.200  0.00  0.00    -0.285 N 
ATOM      4  H   UNL     1      -2.456   4.638  -0.236  0.00  0.00    +0.155 HD
ENDROOT
BRANCH   3   5
ATOM      5  C   UNL     1      -1.142   3.049  -0.180  0.00  0.00    +0.035 A 
ATOM      6  C   UNL     1      -0.958   1.835  -0.830  0.00  0.00    +0.024 A 
ATOM      7  C   UNL     1       0.278   1.218  -0.806  0.00  0.00    +0.007 A 
ATOM      8  C   UNL     1       1.337   1.810  -0.145  0.00  0.00    -0.029 A 
ATOM      9  C   UNL     1       1.160   3.026   0.502  0.00  0.00    +0.038 A 
ATOM     10  C   UNL     1      -0.081   3.646   0.484  0.00  0.00    +0.047 A 
ATOM     11  C   UNL     1       2.685   1.136  -0.127  0.00  0.00    +0.045 C 
BRANCH   9  12
ATOM     12  N   UNL     1       2.233   3.626   1.171  0.00  0.00    -0.285 N 
ATOM     13  C   UNL     1       2.001   4.487   2.181  0.00  0.00    +0.217 C 
ATOM     14  O   UNL     1       0.869   4.666   2.578  0.00  0.00    -0.275 OA
ATOM     15  H   UNL     1       3.144   3.422   0.907  0.00  0.00    +0.155 HD
BRANCH  13  16
ATOM     16  C   UNL     1       3.148   5.228   2.819  0.00  0.00    +0.093 C 
ATOM     17  C   UNL     1       2.616   6.133   3.931  0.00  0.00    +0.013 C 
ENDBRANCH  13  16
ENDBRANCH   9  12
ENDBRANCH   3   5
BRANCH   1  18
ATOM     18  C   UNL     1      -4.865   3.595  -0.081  0.00  0.00    +0.171 C 
BRANCH  18  19
ATOM     19  S   UNL     1      -6.165   2.336  -0.057  0.00  0.00    -0.096 S 
BRANCH  19  29
ATOM     20  C   UNL     1      -8.861   2.778   0.090  0.00  0.00    -0.015 A 
ATOM     21  C   UNL     1      -9.971   3.564   0.170  0.00  0.00    +0.016 A 
ATOM     22  C   UNL     1      -9.799   4.963   0.206  0.00  0.00    +0.001 A 
ATOM     23  C   UNL     1     -10.899   5.830   0.289  0.00  0.00    +0.010 A 
ATOM     24  C   UNL     1     -10.694   7.176   0.321  0.00  0.00    +0.004 A 
ATOM     25  C   UNL     1      -9.406   7.705   0.275  0.00  0.00    -0.048 A 
ATOM     26  C   UNL     1      -8.317   6.892   0.195  0.00  0.00    +0.031 A 
ATOM     27  C   UNL     1      -8.488   5.498   0.159  0.00  0.00    +0.073 A 
ATOM     28  N   UNL     1      -7.434   4.677   0.086  0.00  0.00    -0.240 NA
ATOM     29  C   UNL     1      -7.589   3.368   0.046  0.00  0.00    +0.101 A 
ATOM     30  C   UNL     1      -9.216   9.199   0.314  0.00  0.00    +0.044 C 
BRANCH  20  32
ATOM     31  C   UNL     1      -8.850   0.713   1.461  0.00  0.00    +0.009 C 
ATOM     32  C   UNL     1      -8.999   1.278   0.048  0.00  0.00    +0.034 C 
ENDBRANCH  20  32
ENDBRANCH  19  29
ENDBRANCH  18  19
ENDBRANCH   1  18
TORSDOF 7
