REMARK  Name = ZINC12749948
REMARK  3 active torsions:
REMARK  status: ('A' for Active; 'I' for Inactive)
REMARK    1  A    between atoms: C_11  and  C_15
REMARK    2  A    between atoms: C_15  and  C_16
REMARK    3  A    between atoms: C_16  and  C_17
REMARK                            x       y       z     vdW  Elec       q    Type
REMARK                         _______ _______ _______ _____ _____    ______ ____
ROOT
ATOM      1  C   UNL     1      -4.598   6.250  -1.226  0.00  0.00    +0.103 C 
ENDROOT
BRANCH   1   2
ATOM      2  C   UNL     1      -4.102   5.665   0.071  0.00  0.00    +0.216 C 
ATOM      3  O   UNL     1      -4.481   6.125   1.128  0.00  0.00    -0.276 OA
ATOM      4  N   UNL     1      -3.237   4.631   0.058  0.00  0.00    -0.301 N 
ATOM      5  C   UNL     1      -2.745   4.051   1.315  0.00  0.00    +0.110 C 
ATOM      6  C   UNL     1      -1.213   4.052   1.291  0.00  0.00    +0.054 C 
ATOM      7  C   UNL     1      -0.725   3.352   0.027  0.00  0.00    +0.115 C 
ATOM      8  C   UNL     1      -1.237   4.066  -1.220  0.00  0.00    +0.054 C 
ATOM      9  C   UNL     1      -2.769   4.064  -1.214  0.00  0.00    +0.110 C 
ATOM     10  C   UNL     1       0.785   3.285   0.012  0.00  0.00    +0.244 C 
ATOM     11  O   UNL     1       1.561   4.217   0.010  0.00  0.00    -0.273 OA
ATOM     12  N   UNL     1       1.088   1.971   0.002  0.00  0.00    -0.238 N 
ATOM     13  C   UNL     1      -0.014   1.211   0.009  0.00  0.00    +0.307 C 
ATOM     14  O   UNL     1       0.002  -0.004   0.002  0.00  0.00    -0.252 OA
ATOM     15  N   UNL     1      -1.144   1.945   0.018  0.00  0.00    -0.285 N 
ATOM     16  H   UNL     1       1.992   1.619  -0.008  0.00  0.00    +0.159 HD
ATOM     17  H   UNL     1      -2.054   1.610   0.020  0.00  0.00    +0.151 HD
ENDBRANCH   1   2
BRANCH   1  18
ATOM     18  C   UNL     1      -5.560   7.402  -0.931  0.00  0.00    +0.083 C 
BRANCH  18  29
ATOM     19  C   UNL     1      -8.117  11.137  -7.622  0.00  0.00    +0.005 C 
ATOM     20  C   UNL     1      -8.230   9.961  -8.597  0.00  0.00    +0.005 C 
ATOM     21  C   UNL     1      -6.992   9.067  -8.435  0.00  0.00    +0.043 C 
ATOM     22  C   UNL     1      -6.775   8.818  -6.974  0.00  0.00    -0.004 A 
ATOM     23  C   UNL     1      -7.329   9.486  -5.940  0.00  0.00    -0.023 A 
ATOM     24  C   UNL     1      -6.958   9.051  -4.594  0.00  0.00    +0.075 A 
ATOM     25  C   UNL     1      -7.395   9.580  -3.336  0.00  0.00    +0.260 A 
ATOM     26  O   UNL     1      -8.177  10.515  -3.294  0.00  0.00    -0.267 OA
ATOM     27  N   UNL     1      -6.927   9.028  -2.201  0.00  0.00    -0.310 N 
ATOM     28  H   UNL     1      -7.219   9.381  -1.346  0.00  0.00    +0.170 HD
ATOM     29  C   UNL     1      -6.056   7.987  -2.228  0.00  0.00    +0.111 A 
ATOM     30  N   UNL     1      -5.636   7.487  -3.360  0.00  0.00    -0.227 NA
ATOM     31  C   UNL     1      -6.058   7.977  -4.522  0.00  0.00    +0.116 A 
ATOM     32  S   UNL     1      -5.741   7.589  -6.225  0.00  0.00    -0.073 S 
ATOM     33  C   UNL     1      -8.297  10.641  -6.187  0.00  0.00    +0.037 C 
ENDBRANCH  18  29
ENDBRANCH   1  18
TORSDOF 3
