REMARK  Name = ZINC67482598
REMARK  5 active torsions:
REMARK  status: ('A' for Active; 'I' for Inactive)
REMARK    1  A    between atoms: C_1  and  O_2
REMARK    2  A    between atoms: O_2  and  C_3
REMARK    3  A    between atoms: C_8  and  C_9
REMARK    4  A    between atoms: N_11  and  N_12
REMARK    5  A    between atoms: C_19  and  C_22
REMARK                            x       y       z     vdW  Elec       q    Type
REMARK                         _______ _______ _______ _____ _____    ______ ____
ROOT
ATOM      1  N   UNL     1       1.107  -4.931  -0.030  0.00  0.00    -0.218 N 
ATOM      2  C   UNL     1       1.044  -6.273  -0.143  0.00  0.00    +0.319 C 
ATOM      3  O   UNL     1       2.067  -6.930  -0.161  0.00  0.00    -0.251 OA
ATOM      4  N   UNL     1      -0.152  -6.886  -0.237  0.00  0.00    -0.279 N 
ATOM      5  C   UNL     1      -1.397  -6.106  -0.339  0.00  0.00    +0.137 C 
ATOM      6  C   UNL     1      -2.204  -6.638  -1.528  0.00  0.00    +0.179 C 
ATOM      7  O   UNL     1      -2.350  -8.055  -1.402  0.00  0.00    -0.369 OA
ATOM      8  C   UNL     1      -1.117  -8.776  -1.435  0.00  0.00    +0.166 C 
ATOM      9  C   UNL     1      -0.253  -8.354  -0.246  0.00  0.00    +0.145 C 
ATOM     10  H   UNL     1       0.292  -4.413   0.060  0.00  0.00    +0.174 HD
ENDROOT
BRANCH   8  11
ATOM     11  C   UNL     1      -1.396 -10.255  -1.358  0.00  0.00    -0.015 A 
ATOM     12  C   UNL     1      -2.455 -10.720  -0.600  0.00  0.00    +0.006 A 
ATOM     13  C   UNL     1      -2.712 -12.076  -0.528  0.00  0.00    +0.003 A 
ATOM     14  C   UNL     1      -1.911 -12.969  -1.214  0.00  0.00    +0.038 A 
ATOM     15  C   UNL     1      -0.850 -12.505  -1.973  0.00  0.00    +0.124 A 
ATOM     16  C   UNL     1      -0.597 -11.146  -2.049  0.00  0.00    +0.044 A 
ATOM     17  F   UNL     1      -0.066 -13.377  -2.643  0.00  0.00    -0.205 F 
ENDBRANCH   8  11
BRANCH   1  20
ATOM     18  C   UNL     1       2.410  -2.939  -0.029  0.00  0.00    +0.264 C 
ATOM     19  O   UNL     1       1.385  -2.285  -0.009  0.00  0.00    -0.269 OA
ATOM     20  N   UNL     1       2.350  -4.285  -0.041  0.00  0.00    -0.229 N 
ATOM     21  H   UNL     1       3.168  -4.807  -0.057  0.00  0.00    +0.173 HD
BRANCH  18  27
ATOM     22  C   UNL     1       3.786  -0.859  -0.029  0.00  0.00    +0.132 A 
ATOM     23  C   UNL     1       5.022  -0.229  -0.034  0.00  0.00    +0.046 A 
ATOM     24  C   UNL     1       6.180  -0.980  -0.057  0.00  0.00    +0.004 A 
ATOM     25  C   UNL     1       6.119  -2.364  -0.075  0.00  0.00    +0.001 A 
ATOM     26  C   UNL     1       4.899  -3.005  -0.069  0.00  0.00    +0.017 A 
ATOM     27  C   UNL     1       3.719  -2.258  -0.041  0.00  0.00    +0.080 A 
BRANCH  22  29
ATOM     28  C   UNL     1       2.793   1.299   0.005  0.00  0.00    +0.277 C 
ATOM     29  O   UNL     1       2.647  -0.122  -0.006  0.00  0.00    -0.494 OA
ENDBRANCH  22  29
ENDBRANCH  18  27
ENDBRANCH   1  20
TORSDOF 4
