REMARK  Name = ZINC15959787
REMARK  7 active torsions:
REMARK  status: ('A' for Active; 'I' for Inactive)
REMARK    1  A    between atoms: C_1  and  C_2
REMARK    2  A    between atoms: C_17  and  C_20
REMARK    3  A    between atoms: C_20  and  C_21
REMARK    4  A    between atoms: C_24  and  O_27
REMARK    5  A    between atoms: N_30  and  C_33
REMARK    6  A    between atoms: C_33  and  C_34
REMARK    7  A    between atoms: C_34  and  C_35
REMARK                            x       y       z     vdW  Elec       q    Type
REMARK                         _______ _______ _______ _____ _____    ______ ____
ROOT
ATOM      1  C   UNL     1      -0.018   1.503   0.010  0.00  0.00    +0.044 C 
ATOM      2  C   UNL     1       0.002  -0.004   0.002  0.00  0.00    -0.049 A 
ATOM      3  C   UNL     1       0.006  -0.691  -1.199  0.00  0.00    +0.011 A 
ATOM      4  C   UNL     1       0.025  -2.068  -1.207  0.00  0.00    +0.005 A 
ATOM      5  C   UNL     1       0.042  -2.783  -0.013  0.00  0.00    +0.057 A 
ATOM      6  C   UNL     1       0.037  -2.084   1.193  0.00  0.00    +0.063 A 
ATOM      7  C   UNL     1       0.023  -0.703   1.195  0.00  0.00    +0.025 A 
ATOM      8 CL   UNL     1       0.057  -2.951   2.696  0.00  0.00    -0.082 Cl
ATOM      9  N   UNL     1       0.060  -4.155  -0.272  0.00  0.00    -0.282 N 
ATOM     10  C   UNL     1       0.056  -4.423  -1.592  0.00  0.00    +0.243 C 
ATOM     11  O   UNL     1       0.068  -5.520  -2.109  0.00  0.00    -0.273 OA
ATOM     12  C   UNL     1       0.033  -3.096  -2.301  0.00  0.00    +0.136 C 
ATOM     13  C   UNL     1       1.250  -2.933  -3.221  0.00  0.00    +0.122 C 
ATOM     14  C   UNL     1       0.725  -3.312  -4.634  0.00  0.00    +0.107 C 
ATOM     15  C   UNL     1      -0.755  -3.692  -4.418  0.00  0.00    +0.072 C 
ATOM     16  N   UNL     1      -1.151  -2.971  -3.171  0.00  0.00    -0.295 NA
ATOM     17  C   UNL     1       0.815  -2.013  -5.401  0.00  0.00    +0.227 C 
ATOM     18  O   UNL     1       0.492  -1.859  -6.559  0.00  0.00    -0.275 OA
ATOM     19  N   UNL     1       1.307  -1.058  -4.602  0.00  0.00    -0.241 N 
ATOM     20  C   UNL     1       1.598  -1.466  -3.345  0.00  0.00    +0.228 C 
ATOM     21  O   UNL     1       2.059  -0.778  -2.460  0.00  0.00    -0.275 OA
ATOM     22  H   UNL     1       0.074  -4.837   0.418  0.00  0.00    +0.155 HD
ATOM     23  H   UNL     1      -1.958  -3.406  -2.749  0.00  0.00    +0.124 HD
ENDROOT
BRANCH  15  24
ATOM     24  C   UNL     1      -1.607  -3.204  -5.592  0.00  0.00    +0.054 C 
BRANCH  24  25
ATOM     25  C   UNL     1      -3.023  -3.691  -5.422  0.00  0.00    -0.046 A 
ATOM     26  C   UNL     1      -3.401  -4.912  -5.949  0.00  0.00    +0.007 A 
ATOM     27  C   UNL     1      -4.698  -5.360  -5.795  0.00  0.00    +0.045 A 
ATOM     28  C   UNL     1      -5.622  -4.584  -5.111  0.00  0.00    +0.117 A 
ATOM     29  C   UNL     1      -5.240  -3.359  -4.583  0.00  0.00    +0.045 A 
ATOM     30  C   UNL     1      -3.940  -2.918  -4.735  0.00  0.00    +0.007 A 
BRANCH  28  31
ATOM     31  O   UNL     1      -6.899  -5.022  -4.958  0.00  0.00    -0.507 OA
ATOM     32  H   UNL     1      -7.043  -5.546  -4.158  0.00  0.00    +0.292 HD
ENDBRANCH  28  31
ENDBRANCH  24  25
ENDBRANCH  15  24
BRANCH  19  33
ATOM     33  C   UNL     1       1.520   0.320  -5.052  0.00  0.00    +0.121 C 
BRANCH  33  34
ATOM     34  C   UNL     1       0.256   1.142  -4.794  0.00  0.00    +0.054 C 
BRANCH  34  35
ATOM     35  C   UNL     1       0.476   2.559  -5.257  0.00  0.00    -0.046 A 
ATOM     36  C   UNL     1       0.993   3.499  -4.385  0.00  0.00    +0.004 A 
ATOM     37  C   UNL     1       1.194   4.799  -4.810  0.00  0.00    +0.000 A 
ATOM     38  C   UNL     1       0.879   5.159  -6.107  0.00  0.00    +0.000 A 
ATOM     39  C   UNL     1       0.363   4.219  -6.979  0.00  0.00    +0.000 A 
ATOM     40  C   UNL     1       0.165   2.918  -6.556  0.00  0.00    +0.004 A 
ENDBRANCH  34  35
ENDBRANCH  33  34
ENDBRANCH  19  33
TORSDOF 6
