REMARK  Name = ZINC56937273
REMARK  7 active torsions:
REMARK  status: ('A' for Active; 'I' for Inactive)
REMARK    1  A    between atoms: C_1  and  C_2
REMARK    2  A    between atoms: C_5  and  S_9
REMARK    3  A    between atoms: C_6  and  C_8
REMARK    4  A    between atoms: S_9  and  N_12
REMARK    5  A    between atoms: N_15  and  C_18
REMARK    6  A    between atoms: C_19  and  C_25
REMARK    7  A    between atoms: C_23  and  C_24
REMARK                            x       y       z     vdW  Elec       q    Type
REMARK                         _______ _______ _______ _____ _____    ______ ____
ROOT
ATOM      1  N   UNL     1       1.565  -5.007   0.461  0.00  0.00    -0.174 NA
ATOM      2  C   UNL     1       2.696  -5.083  -0.474  0.00  0.00    +0.128 C 
ATOM      3  C   UNL     1       3.843  -4.225   0.074  0.00  0.00    +0.122 C 
ATOM      4  N   UNL     1       4.064  -4.580   1.483  0.00  0.00    -0.325 N 
ATOM      5  C   UNL     1       2.933  -4.503   2.418  0.00  0.00    +0.122 C 
ATOM      6  C   UNL     1       1.787  -5.356   1.871  0.00  0.00    +0.128 C 
ENDROOT
BRANCH   4   7
ATOM      7  C   UNL     1       5.336  -4.985   1.929  0.00  0.00    +0.073 A 
ATOM      8  C   UNL     1       5.805  -6.258   1.954  0.00  0.00    +0.054 A 
ATOM      9  N   UNL     1       7.070  -6.220   2.452  0.00  0.00    -0.280 N 
ATOM     10  H   UNL     1       7.655  -6.982   2.585  0.00  0.00    +0.189 HD
ATOM     11  N   UNL     1       7.378  -4.883   2.737  0.00  0.00    -0.177 NA
ATOM     12  C   UNL     1       6.346  -4.145   2.420  0.00  0.00    +0.081 A 
ATOM     13  C   UNL     1       6.255  -2.648   2.562  0.00  0.00    +0.069 C 
ATOM     14  C   UNL     1       5.060  -7.491   1.512  0.00  0.00    +0.067 C 
ENDBRANCH   4   7
BRANCH   1  15
ATOM     15  S   UNL     1       0.069  -4.530  -0.063  0.00  0.00    +0.061 S 
ATOM     16  O   UNL     1      -0.864  -4.968   0.915  0.00  0.00    -0.153 OA
ATOM     17  O   UNL     1      -0.024  -4.912  -1.429  0.00  0.00    -0.153 OA
BRANCH  15  22
ATOM     18  C   UNL     1      -0.023   1.502   0.047  0.00  0.00    +0.044 C 
ATOM     19  C   UNL     1      -0.000  -0.004   0.020  0.00  0.00    -0.050 A 
ATOM     20  C   UNL     1      -0.009  -0.674  -1.190  0.00  0.00    +0.005 A 
ATOM     21  C   UNL     1       0.013  -2.055  -1.215  0.00  0.00    +0.029 A 
ATOM     22  C   UNL     1       0.043  -2.768  -0.031  0.00  0.00    +0.108 A 
ATOM     23  C   UNL     1       0.052  -2.099   1.178  0.00  0.00    -0.024 A 
ATOM     24  C   UNL     1       0.035  -0.717   1.204  0.00  0.00    +0.008 A 
ATOM     25  C   UNL     1       0.084  -2.876   2.469  0.00  0.00    +0.046 C 
ENDBRANCH  15  22
ENDBRANCH   1  15
TORSDOF 3
