REMARK  Name = ZINC12344038
REMARK  9 active torsions:
REMARK  status: ('A' for Active; 'I' for Inactive)
REMARK    1  A    between atoms: C_1  and  C_2
REMARK    2  A    between atoms: C_5  and  S_8
REMARK    3  A    between atoms: S_8  and  N_11
REMARK    4  A    between atoms: C_15  and  C_17
REMARK    5  A    between atoms: N_19  and  C_20
REMARK    6  A    between atoms: C_21  and  C_31
REMARK    7  A    between atoms: C_26  and  C_30
REMARK    8  A    between atoms: C_34  and  O_36
REMARK    9  A    between atoms: O_36  and  C_37
REMARK                            x       y       z     vdW  Elec       q    Type
REMARK                         _______ _______ _______ _____ _____    ______ ____
ROOT
ATOM      1  C   UNL     1      -1.187   1.624   0.017  0.00  0.00    +0.236 C 
ATOM      2  O   UNL     1      -1.204   2.836   0.023  0.00  0.00    -0.274 OA
ATOM      3  N   UNL     1      -0.011   0.966   0.007  0.00  0.00    -0.278 N 
ATOM      4  H   UNL     1       0.002  -0.004   0.002  0.00  0.00    +0.155 HD
ENDROOT
BRANCH   3   5
ATOM      5  C   UNL     1       1.180   1.675  -0.000  0.00  0.00    +0.084 A 
ATOM      6  C   UNL     1       2.478   1.182  -0.010  0.00  0.00    +0.069 A 
ATOM      7  C   UNL     1       3.563   2.149  -0.019  0.00  0.00    -0.023 A 
ATOM      8  C   UNL     1       3.180   3.444  -0.009  0.00  0.00    -0.004 A 
ATOM      9  S   UNL     1       1.410   3.392   0.007  0.00  0.00    -0.077 S 
ATOM     10  C   UNL     1       4.069   4.649  -0.012  0.00  0.00    +0.046 C 
ATOM     11  C   UNL     1       5.485   4.204  -0.407  0.00  0.00    -0.009 C 
ATOM     12  C   UNL     1       5.863   2.972   0.419  0.00  0.00    +0.008 C 
ATOM     13  C   UNL     1       5.038   1.767  -0.035  0.00  0.00    +0.037 C 
ATOM     14  C   UNL     1       6.477   5.334  -0.127  0.00  0.00    +0.008 C 
BRANCH   6  15
ATOM     15  C   UNL     1       2.744  -0.259  -0.013  0.00  0.00    +0.255 C 
ATOM     16  O   UNL     1       2.847  -0.856  -1.068  0.00  0.00    -0.270 OA
ATOM     17  N   UNL     1       2.873  -0.923   1.153  0.00  0.00    -0.217 N 
ATOM     18  C   UNL     1       3.117  -2.248   1.149  0.00  0.00    +0.407 C 
ATOM     19  O   UNL     1       3.221  -2.844   0.096  0.00  0.00    -0.226 OA
ATOM     20  H   UNL     1       2.791  -0.447   1.994  0.00  0.00    +0.161 HD
BRANCH  18  21
ATOM     21  O   UNL     1       3.247  -2.911   2.314  0.00  0.00    -0.453 OA
ATOM     22  C   UNL     1       3.509  -4.337   2.234  0.00  0.00    +0.282 C 
ENDBRANCH  18  21
ENDBRANCH   6  15
ENDBRANCH   3   5
BRANCH   1  27
ATOM     23  N   UNL     1      -3.619   1.784   0.036  0.00  0.00    -0.165 NA
ATOM     24  C   UNL     1      -4.425   1.524   1.244  0.00  0.00    +0.110 C 
ATOM     25  C   UNL     1      -3.441   0.863   2.241  0.00  0.00    +0.019 C 
ATOM     26  C   UNL     1      -2.575  -0.014   1.292  0.00  0.00    +0.031 C 
ATOM     27  C   UNL     1      -2.482   0.853   0.018  0.00  0.00    +0.166 C 
BRANCH  23  28
ATOM     28  S   UNL     1      -3.941   2.937  -1.109  0.00  0.00    +0.062 S 
ATOM     29  O   UNL     1      -4.729   3.933  -0.472  0.00  0.00    -0.153 OA
ATOM     30  O   UNL     1      -2.706   3.233  -1.745  0.00  0.00    -0.153 OA
BRANCH  28  35
ATOM     31  C   UNL     1      -7.458   0.366  -5.284  0.00  0.00    +0.044 C 
ATOM     32  C   UNL     1      -6.580   1.009  -4.241  0.00  0.00    -0.050 A 
ATOM     33  C   UNL     1      -7.149   1.639  -3.151  0.00  0.00    +0.005 A 
ATOM     34  C   UNL     1      -6.343   2.228  -2.194  0.00  0.00    +0.029 A 
ATOM     35  C   UNL     1      -4.968   2.186  -2.328  0.00  0.00    +0.106 A 
ATOM     36  C   UNL     1      -4.399   1.560  -3.421  0.00  0.00    +0.029 A 
ATOM     37  C   UNL     1      -5.204   0.968  -4.375  0.00  0.00    +0.005 A 
ENDBRANCH  28  35
ENDBRANCH  23  28
ENDBRANCH   1  27
TORSDOF 6
