REMARK  Name = ZINC27647148
REMARK  6 active torsions:
REMARK  status: ('A' for Active; 'I' for Inactive)
REMARK    1  A    between atoms: C_1  and  C_2
REMARK    2  A    between atoms: C_2  and  C_3
REMARK    3  A    between atoms: C_13  and  C_15
REMARK    4  A    between atoms: C_13  and  O_22
REMARK    5  A    between atoms: C_27  and  C_34
REMARK    6  A    between atoms: C_34  and  C_35
REMARK                            x       y       z     vdW  Elec       q    Type
REMARK                         _______ _______ _______ _____ _____    ______ ____
ROOT
ATOM      1  C   UNL     1       4.617   1.593   3.445  0.00  0.00    +0.012 C 
ATOM      2  C   UNL     1       4.194   3.018   3.810  0.00  0.00    +0.010 C 
ATOM      3  C   UNL     1       4.101   3.861   2.537  0.00  0.00    +0.032 C 
ATOM      4  C   UNL     1       4.136   5.346   2.903  0.00  0.00    +0.125 C 
ATOM      5  C   UNL     1       2.784   5.985   2.572  0.00  0.00    +0.076 C 
ATOM      6  C   UNL     1       2.537   5.883   1.061  0.00  0.00    +0.184 C 
ATOM      7  C   UNL     1       3.694   6.560   0.317  0.00  0.00    +0.111 C 
ATOM      8  C   UNL     1       5.010   5.899   0.736  0.00  0.00    +0.190 C 
ATOM      9  O   UNL     1       5.163   5.997   2.153  0.00  0.00    -0.344 OA
ATOM     10  O   UNL     1       2.486   4.482   0.685  0.00  0.00    -0.458 OA
ATOM     11  C   UNL     1       1.268   3.939   0.479  0.00  0.00    +0.332 C 
ATOM     12  O   UNL     1       0.268   4.627   0.533  0.00  0.00    -0.246 OA
ATOM     13  C   UNL     1       1.173   2.500   0.186  0.00  0.00    +0.091 C 
ATOM     14  C   UNL     1      -0.009   1.938  -0.047  0.00  0.00    -0.063 C 
ATOM     15  C   UNL     1      -0.089   0.460  -0.334  0.00  0.00    +0.035 C 
ATOM     16  C   UNL     1       1.168  -0.230   0.202  0.00  0.00    +0.031 C 
ATOM     17  C   UNL     1       0.861  -0.874   1.529  0.00  0.00    -0.027 C 
ATOM     18  C   UNL     1       1.609  -0.603   2.592  0.00  0.00    -0.005 C 
ATOM     19  C   UNL     1       2.766   0.297   2.477  0.00  0.00    -0.004 C 
ATOM     20  C   UNL     1       3.430   0.672   3.565  0.00  0.00    -0.023 C 
ENDROOT
BRANCH   8  21
ATOM     21  C   UNL     1       6.178   6.609   0.047  0.00  0.00    +0.143 C 
ATOM     22  C   UNL     1       7.489   5.891   0.430  0.00  0.00    +0.106 C 
ATOM     23  S   UNL     1       8.418   7.258   1.216  0.00  0.00    -0.066 S 
ATOM     24  C   UNL     1       7.214   8.559   1.044  0.00  0.00    +0.272 C 
ATOM     25  O   UNL     1       7.322   9.714   1.411  0.00  0.00    -0.263 OA
ATOM     26  N   UNL     1       6.162   8.003   0.425  0.00  0.00    -0.298 N 
ATOM     27  H   UNL     1       5.280   8.622   0.207  0.00  0.00    +0.150 HD
ENDBRANCH   8  21
BRANCH   1  29
ATOM     28  C   UNL     1       5.667   0.171   1.680  0.00  0.00    +0.004 C 
ATOM     29  C   UNL     1       5.139   1.569   2.007  0.00  0.00    +0.004 C 
ENDBRANCH   1  29
BRANCH   8  30
ATOM     30  O   UNL     1       4.996   4.523   0.352  0.00  0.00    -0.363 OA
ATOM     31  H   UNL     1       5.863   3.882   0.571  0.00  0.00    +0.213 HD
ENDBRANCH   8  30
BRANCH  14  32
ATOM     32  C   UNL     1      -1.264   2.771  -0.020  0.00  0.00    +0.027 C 
ATOM     33  C   UNL     1      -1.828   2.797   1.402  0.00  0.00    +0.008 C 
ENDBRANCH  14  32
TORSDOF 4
