REMARK  Name = ZINC12878160
REMARK  10 active torsions:
REMARK  status: ('A' for Active; 'I' for Inactive)
REMARK    1  A    between atoms: C_1  and  C_2
REMARK    2  A    between atoms: C_4  and  S_25
REMARK    3  A    between atoms: C_6  and  N_9
REMARK    4  A    between atoms: C_7  and  C_8
REMARK    5  A    between atoms: C_10  and  C_12
REMARK    6  A    between atoms: C_12  and  N_52
REMARK    7  A    between atoms: C_13  and  C_14
REMARK    8  A    between atoms: C_13  and  N_52
REMARK    9  A    between atoms: C_22  and  N_52
REMARK   10  A    between atoms: S_25  and  N_28
REMARK                            x       y       z     vdW  Elec       q    Type
REMARK                         _______ _______ _______ _____ _____    ______ ____
ROOT
ATOM      1  N   UNL     1      -3.504   0.540   3.708  0.00  0.00    -0.287 N 
ATOM      2  C   UNL     1      -3.760  -0.642   3.114  0.00  0.00    +0.201 C 
ATOM      3  O   UNL     1      -3.099  -0.997   2.161  0.00  0.00    -0.278 OA
ATOM      4  H   UNL     1      -3.991   0.798   4.507  0.00  0.00    +0.155 HD
ENDROOT
BRANCH   1  10
ATOM      5  C   UNL     1      -1.936   5.109   2.793  0.00  0.00    +0.044 C 
ATOM      6  C   UNL     1      -1.750   3.616   2.717  0.00  0.00    -0.044 A 
ATOM      7  C   UNL     1      -0.616   3.091   2.122  0.00  0.00    +0.032 A 
ATOM      8  C   UNL     1      -0.444   1.721   2.046  0.00  0.00    +0.107 A 
ATOM      9  C   UNL     1      -1.399   0.873   2.572  0.00  0.00    +0.052 A 
ATOM     10  C   UNL     1      -2.535   1.397   3.174  0.00  0.00    +0.038 A 
ATOM     11  C   UNL     1      -2.708   2.773   3.245  0.00  0.00    -0.026 A 
ATOM     12  C   UNL     1      -3.939   3.346   3.897  0.00  0.00    +0.046 C 
BRANCH   8  13
ATOM     13  S   UNL     1       0.998   1.057   1.282  0.00  0.00    +0.056 S 
ATOM     14  O   UNL     1       1.186  -0.241   1.828  0.00  0.00    -0.153 OA
ATOM     15  O   UNL     1       1.997   2.065   1.355  0.00  0.00    -0.153 OA
BRANCH  13  16
ATOM     16  N   UNL     1       0.651   0.850  -0.324  0.00  0.00    -0.204 NA
ATOM     17  H   UNL     1      -0.225   1.088  -0.665  0.00  0.00    +0.144 HD
ATOM     18  H   UNL     1       1.324   0.490  -0.923  0.00  0.00    +0.144 HD
ENDBRANCH  13  16
ENDBRANCH   8  13
ENDBRANCH   1  10
BRANCH   2  19
ATOM     19  C   UNL     1      -4.867  -1.522   3.634  0.00  0.00    +0.020 C 
BRANCH  19  20
ATOM     20  N   UNL     1      -4.847  -2.799   2.889  0.00  0.00    +0.390 N 
ATOM     21  H   UNL     1      -3.877  -3.130   2.821  0.00  0.00    -0.080 HD
BRANCH  20  22
ATOM     22  C   UNL     1      -5.652  -3.813   3.603  0.00  0.00    -0.068 C 
ATOM     23  C   UNL     1      -6.516  -3.352   4.778  0.00  0.00    -0.017 C 
ATOM     24  C   UNL     1      -5.234  -4.147   5.036  0.00  0.00    -0.017 C 
ENDBRANCH  20  22
BRANCH  20  25
ATOM     25  C   UNL     1      -5.382  -2.597   1.526  0.00  0.00    -0.038 C 
BRANCH  25  26
ATOM     26  C   UNL     1      -5.149  -3.849   0.721  0.00  0.00    -0.010 A 
ATOM     27  C   UNL     1      -6.112  -4.843   0.691  0.00  0.00    +0.126 A 
ATOM     28  C   UNL     1      -5.896  -5.993  -0.049  0.00  0.00    +0.038 A 
ATOM     29  C   UNL     1      -4.719  -6.149  -0.756  0.00  0.00    +0.004 A 
ATOM     30  C   UNL     1      -3.757  -5.157  -0.727  0.00  0.00    +0.020 A 
ATOM     31  C   UNL     1      -3.974  -4.004   0.008  0.00  0.00    +0.045 A 
ATOM     32 CL   UNL     1      -2.768  -2.755   0.039  0.00  0.00    -0.083 Cl
ATOM     33  F   UNL     1      -7.262  -4.691   1.384  0.00  0.00    -0.205 F 
ENDBRANCH  25  26
ENDBRANCH  20  25
ENDBRANCH  19  20
ENDBRANCH   2  19
TORSDOF 8
