REMARK  Name = ZINC35097909
REMARK  11 active torsions:
REMARK  status: ('A' for Active; 'I' for Inactive)
REMARK    1  A    between atoms: C_1  and  C_2
REMARK    2  A    between atoms: C_2  and  C_3
REMARK    3  A    between atoms: C_3  and  C_5
REMARK    4  A    between atoms: C_3  and  C_6
REMARK    5  A    between atoms: C_6  and  C_8
REMARK    6  A    between atoms: C_6  and  N_24
REMARK    7  A    between atoms: C_14  and  C_17
REMARK    8  A    between atoms: N_20  and  C_21
REMARK    9  A    between atoms: C_21  and  C_22
REMARK   10  A    between atoms: C_21  and  C_23
REMARK   11  A    between atoms: C_25  and  C_27
REMARK                            x       y       z     vdW  Elec       q    Type
REMARK                         _______ _______ _______ _____ _____    ______ ____
ROOT
ATOM      1  C   UNL     1       0.114   0.013   2.358  0.00  0.00    +0.162 C 
ENDROOT
BRANCH   1   2
ATOM      2  C   UNL     1      -0.083   1.505   2.281  0.00  0.00    +0.236 C 
ATOM      3  O   UNL     1       0.627   2.244   2.930  0.00  0.00    -0.274 OA
ATOM      4  N   UNL     1      -1.048   2.018   1.493  0.00  0.00    -0.297 N 
ATOM      5  C   UNL     1      -1.991   1.134   0.793  0.00  0.00    +0.127 C 
ATOM      6  C   UNL     1      -1.941   1.453  -0.706  0.00  0.00    +0.128 C 
ATOM      7  N   UNL     1      -2.069   2.906  -0.882  0.00  0.00    -0.280 N 
ATOM      8  C   UNL     1      -1.126   3.790  -0.182  0.00  0.00    +0.092 C 
ATOM      9  C   UNL     1      -1.179   3.471   1.321  0.00  0.00    +0.130 C 
ATOM     10  C   UNL     1       0.289   3.555  -0.714  0.00  0.00    +0.030 C 
ATOM     11  C   UNL     1      -3.034   3.419  -1.671  0.00  0.00    +0.303 C 
ATOM     12  O   UNL     1      -3.072   4.615  -1.885  0.00  0.00    -0.253 OA
ATOM     13  N   UNL     1      -3.956   2.606  -2.223  0.00  0.00    -0.297 N 
ATOM     14  H   UNL     1      -3.972   1.664  -1.993  0.00  0.00    +0.150 HD
BRANCH  13  15
ATOM     15  C   UNL     1      -4.936   3.146  -3.169  0.00  0.00    +0.068 C 
ATOM     16  C   UNL     1      -4.329   3.168  -4.574  0.00  0.00    +0.027 C 
ATOM     17  C   UNL     1      -6.186   2.264  -3.168  0.00  0.00    +0.027 C 
ENDBRANCH  13  15
ENDBRANCH   1   2
BRANCH   1  18
ATOM     18  N   UNL     1       0.934  -0.313   3.527  0.00  0.00    -0.300 N 
ATOM     19  C   UNL     1       0.841  -1.530   4.098  0.00  0.00    +0.245 C 
ATOM     20  O   UNL     1       0.076  -2.358   3.643  0.00  0.00    -0.270 OA
ATOM     21  H   UNL     1       1.545   0.348   3.890  0.00  0.00    +0.150 HD
BRANCH  19  22
ATOM     22  C   UNL     1       1.667  -1.857   5.275  0.00  0.00    +0.044 A 
ATOM     23  C   UNL     1       2.452  -0.883   5.874  0.00  0.00    +0.013 A 
ATOM     24  C   UNL     1       3.233  -1.186   6.982  0.00  0.00    +0.001 A 
ATOM     25  C   UNL     1       3.250  -2.441   7.512  0.00  0.00    +0.008 A 
ATOM     26  C   UNL     1       2.470  -3.460   6.937  0.00  0.00    -0.017 A 
ATOM     27  C   UNL     1       1.664  -3.170   5.810  0.00  0.00    -0.006 A 
ATOM     28  C   UNL     1       0.883  -4.185   5.241  0.00  0.00    +0.009 A 
ATOM     29  C   UNL     1       0.904  -5.436   5.782  0.00  0.00    +0.001 A 
ATOM     30  C   UNL     1       1.692  -5.722   6.894  0.00  0.00    +0.001 A 
ATOM     31  C   UNL     1       2.472  -4.763   7.465  0.00  0.00    +0.008 A 
ENDBRANCH  19  22
ENDBRANCH   1  18
BRANCH   1  32
ATOM     32  C   UNL     1       0.817  -0.474   1.089  0.00  0.00    +0.015 C 
ATOM     33  C   UNL     1       2.237   0.095   1.043  0.00  0.00    +0.010 C 
BRANCH  32  35
ATOM     34  C   UNL     1      -0.535  -2.573   0.990  0.00  0.00    +0.004 C 
ATOM     35  C   UNL     1       0.881  -2.003   1.096  0.00  0.00    +0.002 C 
ENDBRANCH  32  35
ENDBRANCH   1  32
TORSDOF 6
