REMARK  Name = ZINC49807165
REMARK  3 active torsions:
REMARK  status: ('A' for Active; 'I' for Inactive)
REMARK    1  A    between atoms: C_1  and  C_2
REMARK    2  A    between atoms: C_9  and  C_14
REMARK    3  A    between atoms: C_14  and  O_15
REMARK                            x       y       z     vdW  Elec       q    Type
REMARK                         _______ _______ _______ _____ _____    ______ ____
ROOT
ATOM      1  C   UNL     1      -0.019   1.526   0.010  0.00  0.00    +0.008 C 
ATOM      2  C   UNL     1       0.002  -0.004   0.002  0.00  0.00    -0.009 C 
ATOM      3  C   UNL     1       0.732  -0.505  -1.250  0.00  0.00    +0.009 C 
ATOM      4  C   UNL     1       0.545  -2.018  -1.340  0.00  0.00    +0.054 C 
ATOM      5  C   UNL     1       0.910  -2.678  -0.035  0.00  0.00    +0.022 A 
ATOM      6  C   UNL     1       0.993  -2.000   1.127  0.00  0.00    -0.027 A 
ATOM      7  C   UNL     1       1.327  -2.685   2.312  0.00  0.00    +0.016 A 
ATOM      8  C   UNL     1       1.568  -4.023   2.278  0.00  0.00    +0.042 A 
ATOM      9  C   UNL     1       1.481  -4.700   1.049  0.00  0.00    +0.254 A 
ATOM     10  O   UNL     1       1.697  -5.900   0.994  0.00  0.00    -0.268 OA
ATOM     11  N   UNL     1       1.159  -4.021  -0.064  0.00  0.00    -0.326 N 
ATOM     12  H   UNL     1       1.102  -4.495  -0.908  0.00  0.00    +0.169 HD
ATOM     13  C   UNL     1       0.752  -0.516   1.230  0.00  0.00    +0.040 C 
ENDROOT
BRANCH   8  14
ATOM     14  C   UNL     1       1.924  -4.769   3.538  0.00  0.00    +0.196 C 
BRANCH  14  15
ATOM     15  O   UNL     1       1.947  -3.859   4.640  0.00  0.00    -0.390 OA
ATOM     16  H   UNL     1       2.169  -4.272   5.486  0.00  0.00    +0.210 HD
ENDBRANCH  14  15
ENDBRANCH   8  14
TORSDOF 2
