REMARK  Name = ZINC22357237
REMARK  8 active torsions:
REMARK  status: ('A' for Active; 'I' for Inactive)
REMARK    1  A    between atoms: C_1  and  C_2
REMARK    2  A    between atoms: C_2  and  C_32
REMARK    3  A    between atoms: C_4  and  N_10
REMARK    4  A    between atoms: C_6  and  C_8
REMARK    5  A    between atoms: C_6  and  C_9
REMARK    6  A    between atoms: C_13  and  C_27
REMARK    7  A    between atoms: C_18  and  C_20
REMARK    8  A    between atoms: C_20  and  N_21
REMARK                            x       y       z     vdW  Elec       q    Type
REMARK                         _______ _______ _______ _____ _____    ______ ____
ROOT
ATOM      1  N   UNL     1       0.273   1.664   2.678  0.00  0.00    -0.326 N 
ATOM      2  C   UNL     1      -0.406   1.460   3.866  0.00  0.00    +0.131 A 
ATOM      3  C   UNL     1       0.146   0.626   4.875  0.00  0.00    +0.056 A 
ATOM      4  C   UNL     1       1.404  -0.116   4.884  0.00  0.00    +0.008 A 
ATOM      5  C   UNL     1       1.716  -0.853   5.978  0.00  0.00    +0.057 A 
ATOM      6  S   UNL     1       0.334  -0.582   7.071  0.00  0.00    -0.076 S 
ATOM      7  C   UNL     1      -0.630   0.494   6.044  0.00  0.00    +0.114 A 
ATOM      8  N   UNL     1      -1.793   1.105   6.169  0.00  0.00    -0.223 NA
ATOM      9  C   UNL     1      -2.257   1.864   5.195  0.00  0.00    +0.146 A 
ATOM     10  N   UNL     1      -1.579   2.035   4.074  0.00  0.00    -0.216 NA
ATOM     11  H   UNL     1       1.288   1.260   2.548  0.00  0.00    +0.148 HD
ENDROOT
BRANCH   1  15
ATOM     12  C   UNL     1       0.485   2.525  -2.152  0.00  0.00    -0.010 C 
ATOM     13  C   UNL     1      -0.371   2.782  -0.892  0.00  0.00    -0.072 C 
ATOM     14  C   UNL     1       0.254   1.995   0.257  0.00  0.00    +0.009 C 
ATOM     15  C   UNL     1      -0.362   2.419   1.590  0.00  0.00    +0.069 C 
ATOM     16  C   UNL     1      -0.100   3.911   1.794  0.00  0.00    +0.009 C 
ATOM     17  C   UNL     1      -0.733   4.720   0.664  0.00  0.00    -0.072 C 
ATOM     18  N   UNL     1      -0.402   4.209  -0.650  0.00  0.00    +0.386 N 
ATOM     19  C   UNL     1      -0.197   6.165   0.769  0.00  0.00    -0.010 C 
ATOM     20  C   UNL     1      -2.252   4.784   0.868  0.00  0.00    -0.010 C 
ATOM     21  C   UNL     1      -1.776   2.239  -1.181  0.00  0.00    -0.010 C 
ATOM     22  H   UNL     1       0.589   4.638  -0.857  0.00  0.00    -0.084 HD
ATOM     23  H   UNL     1      -1.149   4.677  -1.309  0.00  0.00    -0.084 HD
ENDBRANCH   1  15
BRANCH   4  24
ATOM     24  C   UNL     1       2.318  -0.063   3.725  0.00  0.00    +0.021 A 
ATOM     25  C   UNL     1       3.624   0.346   3.674  0.00  0.00    +0.016 A 
ATOM     26  C   UNL     1       4.285   0.302   2.464  0.00  0.00    +0.008 A 
ATOM     27  C   UNL     1       3.621  -0.133   1.364  0.00  0.00    +0.046 A 
ATOM     28  S   UNL     1       2.006  -0.510   2.025  0.00  0.00    -0.097 S 
ENDBRANCH   4  24
BRANCH   9  29
ATOM     29  C   UNL     1      -3.588   2.550   5.365  0.00  0.00    +0.160 C 
BRANCH  29  30
ATOM     30  N   UNL     1      -4.657   1.674   4.867  0.00  0.00    -0.291 NA
ATOM     31  C   UNL     1      -4.551   1.487   3.413  0.00  0.00    +0.113 C 
ATOM     32  C   UNL     1      -5.645   0.523   2.946  0.00  0.00    +0.175 C 
ATOM     33  O   UNL     1      -6.922   1.037   3.333  0.00  0.00    -0.377 OA
ATOM     34  C   UNL     1      -7.061   1.231   4.744  0.00  0.00    +0.175 C 
ATOM     35  C   UNL     1      -5.981   2.202   5.228  0.00  0.00    +0.113 C 
ENDBRANCH  29  30
ENDBRANCH   9  29
TORSDOF 4
