REMARK  Name = ZINC19519935
REMARK  14 active torsions:
REMARK  status: ('A' for Active; 'I' for Inactive)
REMARK    1  A    between atoms: C_1  and  C_2
REMARK    2  A    between atoms: C_2  and  O_3
REMARK    3  A    between atoms: O_3  and  C_4
REMARK    4  A    between atoms: C_11  and  C_16
REMARK    5  A    between atoms: C_16  and  N_17
REMARK    6  A    between atoms: N_17  and  C_18
REMARK    7  A    between atoms: N_17  and  C_21
REMARK    8  A    between atoms: C_18  and  C_19
REMARK    9  A    between atoms: C_19  and  O_20
REMARK   10  A    between atoms: C_21  and  C_23
REMARK   11  A    between atoms: C_21  and  C_34
REMARK   12  A    between atoms: N_27  and  C_28
REMARK   13  A    between atoms: C_34  and  C_35
REMARK   14  A    between atoms: C_34  and  C_36
REMARK                            x       y       z     vdW  Elec       q    Type
REMARK                         _______ _______ _______ _____ _____    ______ ____
ROOT
ATOM      1  N   UNL     1      -6.271  -6.847  -1.756  0.00  0.00    +0.391 N 
ATOM      2  H   UNL     1      -6.337  -6.181  -2.512  0.00  0.00    -0.080 HD
ENDROOT
BRANCH   1   3
ATOM      3  C   UNL     1      -5.904  -6.147  -0.518  0.00  0.00    -0.036 C 
BRANCH   3  11
ATOM      4  C   UNL     1      -2.302  -1.276  -1.833  0.00  0.00    +0.121 A 
ATOM      5  C   UNL     1      -1.088  -1.942  -1.682  0.00  0.00    +0.047 A 
ATOM      6  C   UNL     1      -1.057  -3.276  -1.340  0.00  0.00    +0.030 A 
ATOM      7  C   UNL     1      -2.247  -3.970  -1.142  0.00  0.00    +0.049 A 
ATOM      8  C   UNL     1      -3.475  -3.301  -1.293  0.00  0.00    +0.002 A 
ATOM      9  C   UNL     1      -3.493  -1.944  -1.635  0.00  0.00    +0.055 A 
ATOM     10  C   UNL     1      -4.719  -4.043  -1.080  0.00  0.00    +0.017 A 
ATOM     11  C   UNL     1      -4.642  -5.355  -0.744  0.00  0.00    +0.001 A 
ATOM     12  C   UNL     1      -3.384  -5.980  -0.605  0.00  0.00    +0.251 A 
ATOM     13  O   UNL     1      -3.338  -7.160  -0.303  0.00  0.00    -0.268 OA
ATOM     14  N   UNL     1      -2.237  -5.307  -0.798  0.00  0.00    -0.322 N 
ATOM     15  H   UNL     1      -1.389  -5.768  -0.695  0.00  0.00    +0.169 HD
BRANCH   4  16
ATOM     16  O   UNL     1      -2.313   0.041  -2.171  0.00  0.00    -0.492 OA
BRANCH  16  18
ATOM     17  C   UNL     1      -1.259   2.141  -2.733  0.00  0.00    +0.048 C 
ATOM     18  C   UNL     1      -1.046   0.673  -2.361  0.00  0.00    +0.225 C 
ENDBRANCH  16  18
ENDBRANCH   4  16
ENDBRANCH   3  11
ENDBRANCH   1   3
BRANCH   1  19
ATOM     19  C   UNL     1      -5.246  -7.849  -2.076  0.00  0.00    -0.049 C 
BRANCH  19  20
ATOM     20  C   UNL     1      -5.576  -8.506  -3.417  0.00  0.00    +0.137 C 
BRANCH  20  21
ATOM     21  O   UNL     1      -5.485  -7.533  -4.460  0.00  0.00    -0.397 OA
ATOM     22  H   UNL     1      -5.682  -7.881  -5.340  0.00  0.00    +0.209 HD
ENDBRANCH  20  21
ENDBRANCH  19  20
ENDBRANCH   1  19
BRANCH   1  23
ATOM     23  C   UNL     1      -7.568  -7.513  -1.576  0.00  0.00    +0.006 C 
BRANCH  23  24
ATOM     24  C   UNL     1      -7.471  -8.502  -0.443  0.00  0.00    +0.139 A 
ATOM     25  N   UNL     1      -7.074  -8.254   0.781  0.00  0.00    -0.115 NA
ATOM     26  N   UNL     1      -7.132  -9.354   1.449  0.00  0.00    -0.023 NA
ATOM     27  N   UNL     1      -7.555 -10.298   0.683  0.00  0.00    -0.044 NA
ATOM     28  N   UNL     1      -7.780  -9.811  -0.491  0.00  0.00    -0.228 N 
BRANCH  28  29
ATOM     29  C   UNL     1      -8.276 -10.546  -1.657  0.00  0.00    +0.111 C 
ATOM     30  C   UNL     1      -9.649 -11.141  -1.339  0.00  0.00    +0.027 C 
ATOM     31  C   UNL     1     -10.167 -11.909  -2.557  0.00  0.00    +0.002 C 
ATOM     32  C   UNL     1      -9.191 -13.035  -2.903  0.00  0.00    +0.000 C 
ATOM     33  C   UNL     1      -7.818 -12.440  -3.221  0.00  0.00    +0.002 C 
ATOM     34  C   UNL     1      -7.300 -11.673  -2.003  0.00  0.00    +0.027 C 
ENDBRANCH  28  29
ENDBRANCH  23  24
BRANCH  23  35
ATOM     35  C   UNL     1      -8.637  -6.468  -1.251  0.00  0.00    -0.024 C 
ATOM     36  C   UNL     1      -8.771  -5.493  -2.422  0.00  0.00    +0.006 C 
ATOM     37  C   UNL     1      -9.977  -7.167  -1.013  0.00  0.00    +0.006 C 
ENDBRANCH  23  35
ENDBRANCH   1  23
TORSDOF 11
