REMARK  Name = ZINC03498039
REMARK  10 active torsions:
REMARK  status: ('A' for Active; 'I' for Inactive)
REMARK    1  A    between atoms: C_1  and  C_2
REMARK    2  A    between atoms: C_2  and  C_4
REMARK    3  A    between atoms: C_2  and  O_20
REMARK    4  A    between atoms: N_6  and  C_7
REMARK    5  A    between atoms: C_7  and  C_8
REMARK    6  A    between atoms: N_10  and  C_11
REMARK    7  A    between atoms: O_20  and  C_21
REMARK    8  A    between atoms: C_21  and  C_23
REMARK    9  A    between atoms: C_28  and  O_29
REMARK   10  A    between atoms: O_29  and  C_30
REMARK                            x       y       z     vdW  Elec       q    Type
REMARK                         _______ _______ _______ _____ _____    ______ ____
ROOT
ATOM      1  C   UNL     1      -5.954  -0.738   0.760  0.00  0.00    +0.254 C 
ATOM      2  O   UNL     1      -5.701  -1.837   1.208  0.00  0.00    -0.272 OA
ATOM      3  N   UNL     1      -7.187  -0.216   0.914  0.00  0.00    -0.304 N 
ATOM      4  H   UNL     1      -7.389   0.663   0.556  0.00  0.00    +0.149 HD
ENDROOT
BRANCH   1   6
ATOM      5  C   UNL     1      -5.353   0.325  -1.398  0.00  0.00    +0.062 C 
ATOM      6  C   UNL     1      -4.890   0.043   0.033  0.00  0.00    +0.259 C 
BRANCH   6   7
ATOM      7  O   UNL     1      -3.660  -0.729   0.001  0.00  0.00    -0.449 OA
BRANCH   7   8
ATOM      8  C   UNL     1      -2.504  -0.037  -0.018  0.00  0.00    +0.343 C 
ATOM      9  O   UNL     1      -2.523   1.178  -0.009  0.00  0.00    -0.245 OA
BRANCH   8  10
ATOM     10  C   UNL     1      -1.217  -0.754  -0.051  0.00  0.00    +0.102 A 
ATOM     11  C   UNL     1      -1.190  -2.151  -0.067  0.00  0.00    +0.038 A 
ATOM     12  C   UNL     1       0.018  -2.815  -0.092  0.00  0.00    +0.042 A 
ATOM     13  C   UNL     1       1.207  -2.103  -0.107  0.00  0.00    +0.023 A 
ATOM     14  C   UNL     1       1.194  -0.722  -0.096  0.00  0.00    +0.048 A 
ATOM     15  C   UNL     1      -0.012  -0.038  -0.071  0.00  0.00    +0.134 A 
ATOM     16 CL   UNL     1       0.050  -4.551  -0.105  0.00  0.00    -0.084 Cl
BRANCH  15  17
ATOM     17  O   UNL     1      -0.025   1.319  -0.060  0.00  0.00    -0.494 OA
ATOM     18  C   UNL     1       1.242   1.980  -0.076  0.00  0.00    +0.277 C 
ENDBRANCH  15  17
ENDBRANCH   8  10
ENDBRANCH   7   8
ENDBRANCH   6   7
ENDBRANCH   1   6
BRANCH   3  19
ATOM     19  C   UNL     1      -8.222  -0.975   1.621  0.00  0.00    +0.200 C 
BRANCH  19  20
ATOM     20  C   UNL     1      -9.498  -0.174   1.654  0.00  0.00    +0.234 C 
ATOM     21  O   UNL     1      -9.539   0.923   1.137  0.00  0.00    -0.274 OA
ATOM     22  N   UNL     1     -10.593  -0.677   2.257  0.00  0.00    -0.282 N 
ATOM     23  H   UNL     1     -10.580  -1.579   2.613  0.00  0.00    +0.155 HD
BRANCH  22  24
ATOM     24  C   UNL     1     -11.752   0.104   2.370  0.00  0.00    +0.072 A 
ATOM     25  C   UNL     1     -12.090   0.995   1.361  0.00  0.00    +0.029 A 
ATOM     26  C   UNL     1     -13.234   1.762   1.471  0.00  0.00    +0.043 A 
ATOM     27  C   UNL     1     -14.040   1.650   2.591  0.00  0.00    +0.161 A 
ATOM     28  C   UNL     1     -13.703   0.765   3.604  0.00  0.00    +0.195 A 
ATOM     29  C   UNL     1     -12.559  -0.008   3.495  0.00  0.00    +0.182 A 
ATOM     30  F   UNL     1     -12.230  -0.871   4.481  0.00  0.00    -0.200 F 
ATOM     31  F   UNL     1     -14.490   0.658   4.697  0.00  0.00    -0.199 F 
ATOM     32  F   UNL     1     -15.156   2.404   2.698  0.00  0.00    -0.202 F 
ENDBRANCH  22  24
ENDBRANCH  19  20
ENDBRANCH   3  19
TORSDOF 8
