REMARK  Name = ZINC63708280
REMARK  11 active torsions:
REMARK  status: ('A' for Active; 'I' for Inactive)
REMARK    1  A    between atoms: C_1  and  C_2
REMARK    2  A    between atoms: C_4  and  C_9
REMARK    3  A    between atoms: C_5  and  C_8
REMARK    4  A    between atoms: C_9  and  C_10
REMARK    5  A    between atoms: C_10  and  C_11
REMARK    6  A    between atoms: C_21  and  S_25
REMARK    7  A    between atoms: S_25  and  C_26
REMARK    8  A    between atoms: C_26  and  C_27
REMARK    9  A    between atoms: N_29  and  C_30
REMARK   10  A    between atoms: C_35  and  O_36
REMARK   11  A    between atoms: O_36  and  C_37
REMARK                            x       y       z     vdW  Elec       q    Type
REMARK                         _______ _______ _______ _____ _____    ______ ____
ROOT
ATOM      1  C   UNL     1      -4.425   1.161  -1.615  0.00  0.00    +0.090 C 
ATOM      2  N   UNL     1      -4.328   1.771  -2.771  0.00  0.00    -0.332 N 
ATOM      3  C   UNL     1      -5.508   1.753  -3.403  0.00  0.00    +0.128 C 
ATOM      4  C   UNL     1      -5.933   2.258  -4.648  0.00  0.00    +0.038 A 
ATOM      5  C   UNL     1      -5.034   2.938  -5.488  0.00  0.00    +0.013 A 
ATOM      6  C   UNL     1      -5.463   3.418  -6.688  0.00  0.00    +0.001 A 
ATOM      7  C   UNL     1      -6.779   3.256  -7.112  0.00  0.00    +0.002 A 
ATOM      8  C   UNL     1      -7.699   2.609  -6.347  0.00  0.00    +0.026 A 
ATOM      9  C   UNL     1      -7.319   2.085  -5.092  0.00  0.00    +0.048 A 
ATOM     10  N   UNL     1      -8.201   1.450  -4.332  0.00  0.00    -0.356 N 
ATOM     11  C   UNL     1      -7.784   0.914  -3.030  0.00  0.00    +0.248 C 
ATOM     12  N   UNL     1      -6.399   1.093  -2.597  0.00  0.00    -0.204 N 
ATOM     13  N   UNL     1      -5.689   0.711  -1.452  0.00  0.00    -0.249 N 
ATOM     14  H   UNL     1      -6.037   0.222  -0.690  0.00  0.00    +0.171 HD
ATOM     15  H   UNL     1      -9.116   1.341  -4.634  0.00  0.00    +0.162 HD
ATOM     16  H   UNL     1      -3.519   2.178  -3.118  0.00  0.00    +0.168 HD
ENDROOT
BRANCH   1  17
ATOM     17  C   UNL     1      -3.302   0.984  -0.626  0.00  0.00    +0.075 C 
BRANCH  17  18
ATOM     18  C   UNL     1      -2.561  -0.321  -0.925  0.00  0.00    +0.042 C 
BRANCH  18  21
ATOM     19  C   UNL     1      -0.061   1.597  -0.007  0.00  0.00    +0.039 C 
ATOM     20  C   UNL     1      -0.030   0.067  -0.007  0.00  0.00    +0.153 C 
ATOM     21  C   UNL     1      -1.437  -0.498   0.064  0.00  0.00    -0.021 C 
ATOM     22  C   UNL     1      -1.449  -1.189   1.206  0.00  0.00    +0.061 C 
ATOM     23  N   UNL     1      -0.249  -1.115   1.824  0.00  0.00    -0.159 NA
ATOM     24  N   UNL     1       0.598  -0.442   1.224  0.00  0.00    -0.180 NA
ATOM     25  C   UNL     1      -2.638  -1.948   1.735  0.00  0.00    +0.067 C 
ENDBRANCH  18  21
ENDBRANCH  17  18
ENDBRANCH   1  17
BRANCH  11  26
ATOM     26  S   UNL     1      -8.126  -0.867  -3.039  0.00  0.00    -0.106 S 
BRANCH  26  27
ATOM     27  C   UNL     1      -7.129  -1.499  -4.416  0.00  0.00    +0.168 C 
BRANCH  27  28
ATOM     28  C   UNL     1      -7.324  -2.989  -4.535  0.00  0.00    +0.227 C 
ATOM     29  O   UNL     1      -8.062  -3.567  -3.767  0.00  0.00    -0.275 OA
ATOM     30  N   UNL     1      -6.677  -3.678  -5.496  0.00  0.00    -0.282 N 
ATOM     31  H   UNL     1      -6.138  -3.208  -6.151  0.00  0.00    +0.155 HD
BRANCH  30  32
ATOM     32  C   UNL     1      -6.784  -5.074  -5.549  0.00  0.00    +0.077 A 
ATOM     33  C   UNL     1      -7.973  -5.694  -5.192  0.00  0.00    +0.047 A 
ATOM     34  C   UNL     1      -8.076  -7.072  -5.246  0.00  0.00    +0.043 A 
ATOM     35  C   UNL     1      -6.996  -7.835  -5.655  0.00  0.00    +0.024 A 
ATOM     36  C   UNL     1      -5.809  -7.223  -6.012  0.00  0.00    +0.049 A 
ATOM     37  C   UNL     1      -5.700  -5.842  -5.967  0.00  0.00    +0.141 A 
ATOM     38 CL   UNL     1      -9.564  -7.847  -4.798  0.00  0.00    -0.083 Cl
BRANCH  37  39
ATOM     39  O   UNL     1      -4.535  -5.239  -6.323  0.00  0.00    -0.493 OA
ATOM     40  C   UNL     1      -3.465  -6.089  -6.741  0.00  0.00    +0.277 C 
ENDBRANCH  37  39
ENDBRANCH  30  32
ENDBRANCH  27  28
ENDBRANCH  26  27
ENDBRANCH  11  26
TORSDOF 8
