REMARK  Name = ZINC18268849
REMARK  9 active torsions:
REMARK  status: ('A' for Active; 'I' for Inactive)
REMARK    1  A    between atoms: C_1  and  C_2
REMARK    2  A    between atoms: C_5  and  N_9
REMARK    3  A    between atoms: C_6  and  C_8
REMARK    4  A    between atoms: N_9  and  S_10
REMARK    5  A    between atoms: S_10  and  C_13
REMARK    6  A    between atoms: C_15  and  N_20
REMARK    7  A    between atoms: C_18  and  C_19
REMARK    8  A    between atoms: C_21  and  C_23
REMARK    9  A    between atoms: C_32  and  O_35
REMARK                            x       y       z     vdW  Elec       q    Type
REMARK                         _______ _______ _______ _____ _____    ______ ____
ROOT
ATOM      1  C   UNL     1       1.879  -5.912   3.614  0.00  0.00    +0.113 A 
ATOM      2  C   UNL     1       1.949  -4.577   3.958  0.00  0.00    +0.052 A 
ATOM      3  C   UNL     1       1.543  -3.605   3.053  0.00  0.00    +0.035 A 
ATOM      4  C   UNL     1       1.061  -3.981   1.806  0.00  0.00    +0.023 A 
ATOM      5  C   UNL     1       0.999  -5.318   1.465  0.00  0.00    +0.007 A 
ATOM      6  C   UNL     1       1.404  -6.283   2.369  0.00  0.00    -0.024 A 
ATOM      7  C   UNL     1       1.329  -7.741   1.997  0.00  0.00    +0.046 C 
ENDROOT
BRANCH   3   8
ATOM      8  N   UNL     1       1.613  -2.251   3.399  0.00  0.00    -0.285 N 
ATOM      9  C   UNL     1       1.888  -1.329   2.456  0.00  0.00    +0.223 C 
ATOM     10  O   UNL     1       2.170  -1.678   1.329  0.00  0.00    -0.275 OA
ATOM     11  H   UNL     1       1.444  -1.940   4.440  0.00  0.00    +0.155 HD
BRANCH   9  12
ATOM     12  C   UNL     1       1.846   0.138   2.802  0.00  0.00    +0.050 C 
ATOM     13  C   UNL     1       0.442   0.508   3.283  0.00  0.00    +0.020 C 
ATOM     14  C   UNL     1       0.399   1.996   3.634  0.00  0.00    -0.007 C 
ATOM     15  C   UNL     1       1.411   2.288   4.743  0.00  0.00    +0.007 C 
ATOM     16  C   UNL     1       2.816   1.918   4.262  0.00  0.00    -0.007 C 
ATOM     17  C   UNL     1       2.859   0.430   3.911  0.00  0.00    +0.020 C 
ATOM     18  C   UNL     1       3.164   2.745   3.022  0.00  0.00    +0.038 C 
ATOM     19  C   UNL     1       2.152   2.453   1.913  0.00  0.00    +0.068 C 
ATOM     20  C   UNL     1       0.747   2.823   2.394  0.00  0.00    +0.038 C 
ATOM     21  C   UNL     1       2.195   0.964   1.562  0.00  0.00    +0.051 C 
BRANCH  19  22
ATOM     22  O   UNL     1       2.478   3.225   0.756  0.00  0.00    -0.389 OA
ATOM     23  H   UNL     1       1.857   3.147  -0.150  0.00  0.00    +0.210 HD
ENDBRANCH  19  22
ENDBRANCH   9  12
ENDBRANCH   3   8
BRANCH   1  24
ATOM     24  S   UNL     1       2.394  -7.146   4.762  0.00  0.00    +0.073 S 
ATOM     25  O   UNL     1       2.857  -6.458   5.916  0.00  0.00    -0.150 OA
ATOM     26  O   UNL     1       1.352  -8.111   4.816  0.00  0.00    -0.150 OA
BRANCH  24  27
ATOM     27  N   UNL     1       3.710  -7.907   4.105  0.00  0.00    -0.216 N 
ATOM     28  H   UNL     1       3.678  -8.988   3.907  0.00  0.00    +0.174 HD
BRANCH  27  33
ATOM     29  C   UNL     1       8.385  -4.940   2.882  0.00  0.00    +0.044 C 
ATOM     30  C   UNL     1       7.142  -5.728   3.207  0.00  0.00    -0.050 A 
ATOM     31  C   UNL     1       6.388  -5.400   4.319  0.00  0.00    +0.005 A 
ATOM     32  C   UNL     1       5.250  -6.121   4.620  0.00  0.00    +0.025 A 
ATOM     33  C   UNL     1       4.861  -7.176   3.804  0.00  0.00    +0.051 A 
ATOM     34  C   UNL     1       5.623  -7.505   2.690  0.00  0.00    -0.028 A 
ATOM     35  C   UNL     1       6.758  -6.777   2.392  0.00  0.00    +0.008 A 
ATOM     36  C   UNL     1       5.209  -8.652   1.805  0.00  0.00    +0.046 C 
ENDBRANCH  27  33
ENDBRANCH  24  27
ENDBRANCH   1  24
TORSDOF 6
