REMARK  Name = ZINC13548850
REMARK  7 active torsions:
REMARK  status: ('A' for Active; 'I' for Inactive)
REMARK    1  A    between atoms: C_1  and  C_2
REMARK    2  A    between atoms: C_2  and  O_3
REMARK    3  A    between atoms: O_3  and  C_4
REMARK    4  A    between atoms: C_8  and  N_10
REMARK    5  A    between atoms: C_14  and  C_15
REMARK    6  A    between atoms: C_18  and  C_20
REMARK    7  A    between atoms: C_23  and  N_27
REMARK                            x       y       z     vdW  Elec       q    Type
REMARK                         _______ _______ _______ _____ _____    ______ ____
ROOT
ATOM      1  N   UNL     1      -0.131   2.659   6.261  0.00  0.00    -0.216 N 
ATOM      2  C   UNL     1       0.197   1.971   7.374  0.00  0.00    +0.262 C 
ATOM      3  O   UNL     1       1.282   1.429   7.477  0.00  0.00    -0.269 OA
ATOM      4  C   UNL     1      -0.793   1.893   8.461  0.00  0.00    +0.105 C 
ATOM      5  C   UNL     1      -0.526   1.200   9.639  0.00  0.00    +0.064 C 
ATOM      6  C   UNL     1      -2.079   2.580   8.248  0.00  0.00    +0.274 C 
ATOM      7  O   UNL     1      -2.946   2.560   9.102  0.00  0.00    -0.268 OA
ATOM      8  N   UNL     1      -2.269   3.231   7.082  0.00  0.00    -0.153 NA
ATOM      9  C   UNL     1      -1.320   3.265   6.136  0.00  0.00    +0.171 C 
ATOM     10  S   UNL     1      -1.646   4.122   4.691  0.00  0.00    -0.016 S 
ENDROOT
BRANCH   1  15
ATOM     11  C   UNL     1       1.448   2.219   2.964  0.00  0.00    +0.122 A 
ATOM     12  C   UNL     1       2.633   2.918   3.148  0.00  0.00    +0.046 A 
ATOM     13  C   UNL     1       2.894   3.535   4.357  0.00  0.00    +0.005 A 
ATOM     14  C   UNL     1       1.980   3.449   5.390  0.00  0.00    +0.024 A 
ATOM     15  C   UNL     1       0.795   2.747   5.213  0.00  0.00    +0.047 A 
ATOM     16  C   UNL     1       0.530   2.131   3.998  0.00  0.00    +0.069 A 
BRANCH  11  17
ATOM     17  O   UNL     1       1.192   1.617   1.773  0.00  0.00    -0.492 OA
BRANCH  17  19
ATOM     18  C   UNL     1       1.721   1.012  -0.506  0.00  0.00    +0.048 C 
ATOM     19  C   UNL     1       2.183   1.750   0.752  0.00  0.00    +0.225 C 
ENDBRANCH  17  19
ENDBRANCH  11  17
ENDBRANCH   1  15
BRANCH   5  20
ATOM     20  C   UNL     1       0.624   0.407   9.739  0.00  0.00    +0.129 A 
ATOM     21  C   UNL     1       1.452   0.307  10.851  0.00  0.00    +0.050 A 
ATOM     22  C   UNL     1       2.467  -0.586  10.518  0.00  0.00    +0.050 A 
ATOM     23  C   UNL     1       2.231  -1.002   9.223  0.00  0.00    +0.137 A 
ATOM     24  O   UNL     1       1.117  -0.400   8.774  0.00  0.00    -0.455 OA
BRANCH  23  25
ATOM     25  C   UNL     1       3.061  -1.955   8.461  0.00  0.00    +0.036 A 
ATOM     26  C   UNL     1       4.444  -1.776   8.383  0.00  0.00    +0.015 A 
ATOM     27  C   UNL     1       5.214  -2.673   7.673  0.00  0.00    +0.033 A 
ATOM     28  C   UNL     1       4.618  -3.744   7.030  0.00  0.00    +0.128 A 
ATOM     29  C   UNL     1       3.249  -3.926   7.097  0.00  0.00    +0.053 A 
ATOM     30  C   UNL     1       2.465  -3.039   7.808  0.00  0.00    +0.054 A 
ATOM     31 CL   UNL     1       0.747  -3.269   7.892  0.00  0.00    -0.083 Cl
BRANCH  28  32
ATOM     32  N   UNL     1       5.452  -4.700   6.266  0.00  0.00    +0.056 N 
ATOM     33  O   UNL     1       4.931  -5.643   5.698  0.00  0.00    -0.126 OA
ATOM     34  O   UNL     1       6.658  -4.542   6.205  0.00  0.00    -0.126 OA
ENDBRANCH  28  32
ENDBRANCH  23  25
ENDBRANCH   5  20
TORSDOF 6
