REMARK  Name = ZINC03911342
REMARK  9 active torsions:
REMARK  status: ('A' for Active; 'I' for Inactive)
REMARK    1  A    between atoms: C_1  and  C_2
REMARK    2  A    between atoms: C_2  and  N_3
REMARK    3  A    between atoms: C_11  and  O_25
REMARK    4  A    between atoms: C_16  and  C_24
REMARK    5  A    between atoms: C_17  and  C_19
REMARK    6  A    between atoms: C_19  and  O_21
REMARK    7  A    between atoms: O_21  and  C_22
REMARK    8  A    between atoms: C_22  and  C_23
REMARK    9  A    between atoms: O_25  and  C_26
REMARK                            x       y       z     vdW  Elec       q    Type
REMARK                         _______ _______ _______ _____ _____    ______ ____
ROOT
ATOM      1  N   UNL     1       0.449   3.650   1.026  0.00  0.00    -0.275 N 
ATOM      2  C   UNL     1      -0.444   2.851   1.630  0.00  0.00    +0.136 C 
ATOM      3  S   UNL     1      -1.307   3.452   2.982  0.00  0.00    -0.019 S 
ATOM      4  N   UNL     1      -0.685   1.597   1.214  0.00  0.00    -0.318 N 
ATOM      5  C   UNL     1      -0.013   1.086   0.008  0.00  0.00    +0.125 C 
ATOM      6  C   UNL     1      -0.746   1.623  -1.201  0.00  0.00    +0.019 A 
ATOM      7  C   UNL     1      -1.839   0.941  -1.685  0.00  0.00    +0.054 A 
ATOM      8  C   UNL     1      -2.539   1.429  -2.778  0.00  0.00    +0.121 A 
ATOM      9  C   UNL     1      -2.148   2.620  -3.372  0.00  0.00    +0.049 A 
ATOM     10  C   UNL     1      -1.063   3.313  -2.878  0.00  0.00    +0.049 A 
ATOM     11  C   UNL     1      -0.356   2.824  -1.784  0.00  0.00    +0.129 A 
ATOM     12  O   UNL     1       0.712   3.533  -1.333  0.00  0.00    -0.467 OA
ATOM     13  C   UNL     1       1.285   3.183  -0.076  0.00  0.00    +0.192 C 
ATOM     14  C   UNL     1       1.415   1.655  -0.003  0.00  0.00    +0.185 C 
ATOM     15  C   UNL     1       2.672   3.817   0.044  0.00  0.00    +0.079 C 
ATOM     16  H   UNL     1      -1.292   1.027   1.712  0.00  0.00    +0.148 HD
ENDROOT
BRANCH   1  18
ATOM     17  C   UNL     1      -0.373   5.931   0.704  0.00  0.00    +0.024 C 
ATOM     18  C   UNL     1       0.589   5.034   1.486  0.00  0.00    +0.107 C 
ENDBRANCH   1  18
BRANCH  14  19
ATOM     19  C   UNL     1       2.164   1.144  -1.206  0.00  0.00    +0.318 C 
ATOM     20  O   UNL     1       2.600   1.922  -2.022  0.00  0.00    -0.250 OA
BRANCH  19  21
ATOM     21  O   UNL     1       2.348  -0.175  -1.372  0.00  0.00    -0.465 OA
BRANCH  21  22
ATOM     22  C   UNL     1       3.078  -0.596  -2.555  0.00  0.00    +0.229 C 
ATOM     23  C   UNL     1       3.186  -2.122  -2.572  0.00  0.00    +0.048 C 
ENDBRANCH  21  22
ENDBRANCH  19  21
ENDBRANCH  14  19
BRANCH   8  24
ATOM     24  O   UNL     1      -3.607   0.742  -3.265  0.00  0.00    -0.495 OA
ATOM     25  C   UNL     1      -4.280   1.304  -4.393  0.00  0.00    +0.277 C 
ENDBRANCH   8  24
TORSDOF 5
