REMARK  Name = ZINC66466020
REMARK  3 active torsions:
REMARK  status: ('A' for Active; 'I' for Inactive)
REMARK    1  A    between atoms: C_7  and  N_14
REMARK    2  A    between atoms: C_9  and  C_11
REMARK    3  A    between atoms: N_14  and  C_15
REMARK                            x       y       z     vdW  Elec       q    Type
REMARK                         _______ _______ _______ _____ _____    ______ ____
ROOT
ATOM      1  C   UNL     1      -0.113   1.353  -0.114  0.00  0.00    +0.001 A 
ATOM      2  C   UNL     1       0.129   2.020  -1.312  0.00  0.00    +0.002 A 
ATOM      3  C   UNL     1       0.454   1.334  -2.444  0.00  0.00    +0.028 A 
ATOM      4  C   UNL     1       0.547  -0.064  -2.404  0.00  0.00    +0.077 A 
ATOM      5  C   UNL     1       0.301  -0.740  -1.184  0.00  0.00    +0.040 A 
ATOM      6  C   UNL     1      -0.031  -0.006  -0.040  0.00  0.00    +0.013 A 
ATOM      7  C   UNL     1       0.402  -2.152  -1.170  0.00  0.00    +0.131 A 
ATOM      8  N   UNL     1       0.723  -2.768  -2.300  0.00  0.00    -0.211 NA
ATOM      9  C   UNL     1       0.944  -2.093  -3.417  0.00  0.00    +0.198 A 
ATOM     10  N   UNL     1       0.864  -0.786  -3.489  0.00  0.00    -0.227 NA
ENDROOT
BRANCH   9  11
ATOM     11  C   UNL     1       1.304  -2.861  -4.662  0.00  0.00    +0.408 C 
ATOM     12  F   UNL     1       2.124  -2.072  -5.476  0.00  0.00    -0.201 F 
ATOM     13  F   UNL     1       1.985  -4.031  -4.309  0.00  0.00    -0.201 F 
ENDBRANCH   9  11
BRANCH   7  14
ATOM     14  N   UNL     1       0.175  -2.867  -0.014  0.00  0.00    -0.322 N 
ATOM     15  H   UNL     1      -0.058  -2.403   0.805  0.00  0.00    +0.148 HD
BRANCH  14  16
ATOM     16  C   UNL     1       0.285  -4.328  -0.022  0.00  0.00    +0.106 C 
ATOM     17  C   UNL     1      -1.033  -4.939  -0.498  0.00  0.00    +0.030 C 
ATOM     18  C   UNL     1      -2.219  -4.130   0.007  0.00  0.00    +0.043 C 
ATOM     19  C   UNL     1      -2.405  -4.205   1.508  0.00  0.00    +0.229 C 
ATOM     20  O   UNL     1      -1.301  -3.599   2.189  0.00  0.00    -0.492 OA
ATOM     21  C   UNL     1      -0.235  -4.412   2.422  0.00  0.00    +0.125 A 
ATOM     22  C   UNL     1       0.577  -4.824   1.382  0.00  0.00    +0.014 A 
ATOM     23  C   UNL     1       1.639  -5.674   1.608  0.00  0.00    +0.009 A 
ATOM     24  C   UNL     1       1.909  -6.104   2.896  0.00  0.00    +0.001 A 
ATOM     25  C   UNL     1       1.117  -5.680   3.947  0.00  0.00    +0.004 A 
ATOM     26  C   UNL     1       0.038  -4.835   3.717  0.00  0.00    +0.046 A 
ENDBRANCH  14  16
ENDBRANCH   7  14
TORSDOF 3
