REMARK  Name = ZINC36211872
REMARK  9 active torsions:
REMARK  status: ('A' for Active; 'I' for Inactive)
REMARK    1  A    between atoms: C_1  and  C_2
REMARK    2  A    between atoms: C_6  and  C_8
REMARK    3  A    between atoms: N_10  and  C_11
REMARK    4  A    between atoms: C_11  and  C_13
REMARK    5  A    between atoms: C_11  and  C_31
REMARK    6  A    between atoms: C_19  and  C_21
REMARK    7  A    between atoms: C_24  and  C_27
REMARK    8  A    between atoms: N_33  and  C_34
REMARK    9  A    between atoms: C_34  and  C_35
REMARK                            x       y       z     vdW  Elec       q    Type
REMARK                         _______ _______ _______ _____ _____    ______ ____
ROOT
ATOM      1  C   UNL     1       0.193  -4.673   2.883  0.00  0.00    +0.162 C 
ENDROOT
BRANCH   1   2
ATOM      2  C   UNL     1       1.211  -4.309   3.966  0.00  0.00    +0.021 C 
ATOM      3  C   UNL     1       1.093  -2.820   4.296  0.00  0.00    +0.025 C 
ATOM      4  C   UNL     1       2.090  -2.466   5.405  0.00  0.00    +0.108 C 
ATOM      5  N   UNL     1       3.433  -2.886   4.985  0.00  0.00    -0.298 N 
ATOM      6  C   UNL     1       3.637  -4.278   4.559  0.00  0.00    +0.108 C 
ATOM      7  C   UNL     1       2.624  -4.611   3.460  0.00  0.00    +0.025 C 
ATOM      8  C   UNL     1       4.459  -2.012   4.989  0.00  0.00    +0.247 C 
ATOM      9  O   UNL     1       5.580  -2.389   4.710  0.00  0.00    -0.270 OA
BRANCH   8  10
ATOM     10  C   UNL     1       4.221  -0.594   5.334  0.00  0.00    +0.037 A 
ATOM     11  C   UNL     1       3.435  -0.265   6.439  0.00  0.00    +0.013 A 
ATOM     12  C   UNL     1       3.216   1.060   6.756  0.00  0.00    +0.013 A 
ATOM     13  C   UNL     1       3.774   2.061   5.981  0.00  0.00    +0.055 A 
ATOM     14  C   UNL     1       4.554   1.741   4.883  0.00  0.00    +0.013 A 
ATOM     15  C   UNL     1       4.785   0.420   4.559  0.00  0.00    +0.013 A 
BRANCH  13  16
ATOM     16  C   UNL     1       3.531   3.506   6.332  0.00  0.00    +0.417 C 
ATOM     17  F   UNL     1       4.530   3.948   7.206  0.00  0.00    -0.166 F 
ATOM     18  F   UNL     1       3.555   4.280   5.167  0.00  0.00    -0.166 F 
ATOM     19  F   UNL     1       2.282   3.632   6.950  0.00  0.00    -0.166 F 
ENDBRANCH  13  16
ENDBRANCH   8  10
ENDBRANCH   1   2
BRANCH   1  22
ATOM     20  C   UNL     1       0.001  -4.288   0.485  0.00  0.00    +0.245 C 
ATOM     21  O   UNL     1      -0.533  -5.375   0.381  0.00  0.00    -0.270 OA
ATOM     22  N   UNL     1       0.444  -3.867   1.686  0.00  0.00    -0.300 N 
ATOM     23  H   UNL     1       0.929  -3.030   1.758  0.00  0.00    +0.150 HD
BRANCH  20  29
ATOM     24  C   UNL     1      -0.629  -3.519  -4.405  0.00  0.00    +0.044 C 
ATOM     25  C   UNL     1      -0.136  -3.054  -3.060  0.00  0.00    -0.050 A 
ATOM     26  C   UNL     1       0.473  -1.817  -2.938  0.00  0.00    +0.003 A 
ATOM     27  C   UNL     1       0.928  -1.381  -1.706  0.00  0.00    +0.001 A 
ATOM     28  C   UNL     1       0.778  -2.179  -0.591  0.00  0.00    +0.013 A 
ATOM     29  C   UNL     1       0.165  -3.428  -0.707  0.00  0.00    +0.037 A 
ATOM     30  C   UNL     1      -0.297  -3.858  -1.951  0.00  0.00    +0.016 A 
ENDBRANCH  20  29
ENDBRANCH   1  22
BRANCH   1  31
ATOM     31  C   UNL     1      -1.199  -4.400   3.390  0.00  0.00    +0.234 C 
ATOM     32  O   UNL     1      -1.776  -3.385   3.062  0.00  0.00    -0.274 OA
ATOM     33  N   UNL     1      -1.804  -5.284   4.208  0.00  0.00    -0.307 N 
ATOM     34  H   UNL     1      -1.343  -6.096   4.471  0.00  0.00    +0.149 HD
BRANCH  33  35
ATOM     35  C   UNL     1      -3.158  -5.018   4.701  0.00  0.00    +0.178 C 
BRANCH  35  36
ATOM     36  C   UNL     1      -3.600  -6.152   5.590  0.00  0.00    +0.122 A 
ATOM     37  C   UNL     1      -3.419  -6.225   6.921  0.00  0.00    +0.046 A 
ATOM     38  C   UNL     1      -3.984  -7.449   7.346  0.00  0.00    +0.041 A 
ATOM     39  C   UNL     1      -4.478  -8.051   6.248  0.00  0.00    +0.195 A 
ATOM     40  O   UNL     1      -4.247  -7.258   5.189  0.00  0.00    -0.466 OA
ENDBRANCH  35  36
ENDBRANCH  33  35
ENDBRANCH   1  31
TORSDOF 8
