REMARK  Name = ZINC21702804
REMARK  9 active torsions:
REMARK  status: ('A' for Active; 'I' for Inactive)
REMARK    1  A    between atoms: C_1  and  C_2
REMARK    2  A    between atoms: C_2  and  C_27
REMARK    3  A    between atoms: N_5  and  C_9
REMARK    4  A    between atoms: C_9  and  C_10
REMARK    5  A    between atoms: C_10  and  C_12
REMARK    6  A    between atoms: C_10  and  O_26
REMARK    7  A    between atoms: C_12  and  O_13
REMARK    8  A    between atoms: O_13  and  C_14
REMARK    9  A    between atoms: C_17  and  C_20
REMARK                            x       y       z     vdW  Elec       q    Type
REMARK                         _______ _______ _______ _____ _____    ______ ____
ROOT
ATOM      1  C   UNL     1       7.463  -2.923  -0.079  0.00  0.00    +0.170 C 
ENDROOT
BRANCH   1   2
ATOM      2  O   UNL     1       8.126  -2.574   1.137  0.00  0.00    -0.387 OA
ATOM      3  H   UNL     1       8.261  -1.515   1.406  0.00  0.00    +0.210 HD
ENDBRANCH   1   2
BRANCH   1   4
ATOM      4  C   UNL     1       7.410  -4.446  -0.212  0.00  0.00    +0.152 C 
BRANCH   4   9
ATOM      5  C   UNL     1      11.055  -7.126  -1.476  0.00  0.00    +0.050 C 
ATOM      6  C   UNL     1      10.828  -5.734  -0.881  0.00  0.00    +0.168 C 
ATOM      7  C   UNL     1       9.500  -5.170  -1.346  0.00  0.00    +0.254 C 
ATOM      8  O   UNL     1       9.164  -4.934  -2.486  0.00  0.00    -0.272 OA
ATOM      9  N   UNL     1       8.773  -4.983  -0.227  0.00  0.00    -0.221 N 
ATOM     10  C   UNL     1       9.446  -5.354   0.868  0.00  0.00    +0.310 C 
ATOM     11  O   UNL     1       8.996  -5.283   1.994  0.00  0.00    -0.252 OA
ATOM     12  N   UNL     1      10.678  -5.814   0.582  0.00  0.00    -0.279 N 
ATOM     13  H   UNL     1      11.502  -6.200   1.200  0.00  0.00    +0.152 HD
BRANCH   6  14
ATOM     14  C   UNL     1      11.960  -4.809  -1.248  0.00  0.00    +0.137 A 
ATOM     15  C   UNL     1      13.072  -4.600  -0.521  0.00  0.00    +0.047 A 
ATOM     16  C   UNL     1      13.858  -3.665  -1.234  0.00  0.00    +0.041 A 
ATOM     17  C   UNL     1      13.175  -3.354  -2.350  0.00  0.00    +0.195 A 
ATOM     18  O   UNL     1      12.026  -4.049  -2.353  0.00  0.00    -0.465 OA
ENDBRANCH   6  14
ENDBRANCH   4   9
ENDBRANCH   1   4
BRANCH   1  19
ATOM     19  C   UNL     1       6.040  -2.362  -0.064  0.00  0.00    +0.261 C 
BRANCH  19  20
ATOM     20  O   UNL     1       6.091  -0.934  -0.057  0.00  0.00    -0.489 OA
BRANCH  20  21
ATOM     21  C   UNL     1       4.903  -0.274  -0.043  0.00  0.00    +0.121 A 
ATOM     22  C   UNL     1       4.881   1.114  -0.037  0.00  0.00    +0.046 A 
ATOM     23  C   UNL     1       3.677   1.786  -0.022  0.00  0.00    +0.012 A 
ATOM     24  C   UNL     1       2.481   1.070  -0.015  0.00  0.00    -0.018 A 
ATOM     25  C   UNL     1       2.506  -0.323  -0.016  0.00  0.00    +0.012 A 
ATOM     26  C   UNL     1       3.713  -0.990  -0.036  0.00  0.00    +0.046 A 
BRANCH  24  27
ATOM     27  C   UNL     1       1.184   1.790   0.000  0.00  0.00    -0.018 A 
ATOM     28  C   UNL     1      -0.013   1.076   0.008  0.00  0.00    +0.008 A 
ATOM     29  C   UNL     1      -1.216   1.751   0.017  0.00  0.00    +0.001 A 
ATOM     30  C   UNL     1      -1.236   3.134   0.029  0.00  0.00    +0.000 A 
ATOM     31  C   UNL     1      -0.052   3.848   0.022  0.00  0.00    +0.001 A 
ATOM     32  C   UNL     1       1.157   3.183   0.008  0.00  0.00    +0.008 A 
ENDBRANCH  24  27
ENDBRANCH  20  21
ENDBRANCH  19  20
ENDBRANCH   1  19
TORSDOF 8
