REMARK  Name = ZINC05192110
REMARK  2 active torsions:
REMARK  status: ('A' for Active; 'I' for Inactive)
REMARK    1  A    between atoms: C_10  and  C_14
REMARK    2  A    between atoms: C_14  and  C_15
REMARK                            x       y       z     vdW  Elec       q    Type
REMARK                         _______ _______ _______ _____ _____    ______ ____
ROOT
ATOM      1  C   UNL     1      -0.019   1.527   0.010  0.00  0.00    +0.007 C 
ATOM      2  C   UNL     1       1.425   2.037  -0.001  0.00  0.00    -0.009 C 
ATOM      3  C   UNL     1       2.127   1.551  -1.267  0.00  0.00    +0.014 C 
ATOM      4  C   UNL     1       2.143   0.019  -1.301  0.00  0.00    +0.056 C 
ATOM      5  C   UNL     1       0.698  -0.497  -1.266  0.00  0.00    +0.014 C 
ATOM      6  C   UNL     1       0.002  -0.004   0.002  0.00  0.00    -0.009 C 
ATOM      7  C   UNL     1       0.722  -0.510   1.251  0.00  0.00    +0.018 C 
ATOM      8  C   UNL     1       2.167   0.005   1.264  0.00  0.00    +0.038 C 
ATOM      9  C   UNL     1       2.156   1.521   1.237  0.00  0.00    +0.018 C 
ATOM     10  C   UNL     1       2.821  -0.459  -0.027  0.00  0.00    +0.143 C 
ATOM     11  O   UNL     1       3.808  -1.155  -0.041  0.00  0.00    -0.297 OA
ENDROOT
BRANCH   8  12
ATOM     12  C   UNL     1       2.919  -0.517   2.490  0.00  0.00    +0.110 C 
BRANCH  12  13
ATOM     13  C   UNL     1       4.332   0.006   2.474  0.00  0.00    +0.211 C 
ATOM     14  O   UNL     1       4.702   0.725   1.570  0.00  0.00    -0.276 OA
ATOM     15  N   UNL     1       5.185  -0.326   3.463  0.00  0.00    -0.329 N 
ATOM     16  H   UNL     1       4.890  -0.901   4.186  0.00  0.00    +0.145 HD
ATOM     17  H   UNL     1       6.095   0.011   3.452  0.00  0.00    +0.145 HD
ENDBRANCH  12  13
ENDBRANCH   8  12
TORSDOF 2
