REMARK  Name = ZINC31747103
REMARK  6 active torsions:
REMARK  status: ('A' for Active; 'I' for Inactive)
REMARK    1  A    between atoms: C_1  and  N_2
REMARK    2  A    between atoms: N_2  and  S_3
REMARK    3  A    between atoms: S_3  and  C_6
REMARK    4  A    between atoms: C_10  and  C_12
REMARK    5  A    between atoms: C_12  and  N_13
REMARK    6  A    between atoms: C_14  and  C_16
REMARK                            x       y       z     vdW  Elec       q    Type
REMARK                         _______ _______ _______ _____ _____    ______ ____
ROOT
ATOM      1  N   UNL     1      -2.589  -3.028   5.462  0.00  0.00    -0.307 N 
ATOM      2  C   UNL     1      -3.446  -3.954   5.937  0.00  0.00    +0.245 C 
ATOM      3  O   UNL     1      -4.629  -3.884   5.665  0.00  0.00    -0.270 OA
ATOM      4  H   UNL     1      -1.519  -3.090   5.709  0.00  0.00    +0.149 HD
ENDROOT
BRANCH   2   5
ATOM      5  C   UNL     1      -2.948  -5.051   6.788  0.00  0.00    +0.044 A 
ATOM      6  C   UNL     1      -1.597  -5.149   7.105  0.00  0.00    +0.014 A 
ATOM      7  C   UNL     1      -1.103  -6.170   7.912  0.00  0.00    +0.005 A 
ATOM      8  C   UNL     1      -1.937  -7.126   8.412  0.00  0.00    -0.039 A 
ATOM      9  C   UNL     1      -3.292  -7.049   8.101  0.00  0.00    -0.011 A 
ATOM     10  C   UNL     1      -3.833  -6.033   7.296  0.00  0.00    -0.005 A 
ATOM     11  C   UNL     1      -5.212  -6.055   7.048  0.00  0.00    +0.009 A 
ATOM     12  C   UNL     1      -5.964  -7.056   7.595  0.00  0.00    +0.001 A 
ATOM     13  C   UNL     1      -5.406  -8.057   8.392  0.00  0.00    +0.004 A 
ATOM     14  C   UNL     1      -4.069  -8.064   8.652  0.00  0.00    -0.039 A 
ATOM     15  C   UNL     1      -3.149  -8.959   9.444  0.00  0.00    +0.040 C 
ATOM     16  C   UNL     1      -1.743  -8.342   9.286  0.00  0.00    +0.040 C 
ENDBRANCH   2   5
BRANCH   1  17
ATOM     17  C   UNL     1      -3.083  -1.938   4.617  0.00  0.00    +0.140 C 
BRANCH  17  22
ATOM     18  C   UNL     1      -0.166  -0.494   2.705  0.00  0.00    +0.106 A 
ATOM     19  C   UNL     1       0.180   0.583   3.501  0.00  0.00    +0.028 A 
ATOM     20  C   UNL     1      -0.536   0.848   4.653  0.00  0.00    +0.002 A 
ATOM     21  C   UNL     1      -1.591   0.032   5.015  0.00  0.00    +0.005 A 
ATOM     22  C   UNL     1      -1.934  -1.047   4.222  0.00  0.00    -0.028 A 
ATOM     23  C   UNL     1      -1.221  -1.310   3.067  0.00  0.00    +0.033 A 
BRANCH  18  24
ATOM     24  S   UNL     1       0.742  -0.829   1.233  0.00  0.00    +0.058 S 
ATOM     25  O   UNL     1       0.570  -2.212   0.955  0.00  0.00    -0.153 OA
ATOM     26  O   UNL     1       2.024  -0.240   1.403  0.00  0.00    -0.153 OA
BRANCH  24  28
ATOM     27  C   UNL     1      -0.018   1.461   0.010  0.00  0.00    +0.127 C 
ATOM     28  N   UNL     1       0.002  -0.004   0.002  0.00  0.00    -0.193 NA
ATOM     29  H   UNL     1      -0.610  -0.558  -0.725  0.00  0.00    +0.148 HD
ENDBRANCH  24  28
ENDBRANCH  18  24
ENDBRANCH  17  22
ENDBRANCH   1  17
TORSDOF 5
