REMARK  Name = ZINC12868509
REMARK  13 active torsions:
REMARK  status: ('A' for Active; 'I' for Inactive)
REMARK    1  A    between atoms: C_1  and  O_2
REMARK    2  A    between atoms: O_2  and  C_3
REMARK    3  A    between atoms: C_3  and  C_4
REMARK    4  A    between atoms: C_4  and  N_5
REMARK    5  A    between atoms: N_5  and  S_6
REMARK    6  A    between atoms: S_6  and  C_9
REMARK    7  A    between atoms: C_12  and  C_15
REMARK    8  A    between atoms: N_17  and  C_18
REMARK    9  A    between atoms: C_18  and  C_19
REMARK   10  A    between atoms: C_19  and  C_21
REMARK   11  A    between atoms: C_19  and  N_63
REMARK   12  A    between atoms: C_24  and  O_27
REMARK   13  A    between atoms: O_27  and  C_28
REMARK                            x       y       z     vdW  Elec       q    Type
REMARK                         _______ _______ _______ _____ _____    ______ ____
ROOT
ATOM      1  C   UNL     1      -3.051   3.013   4.967  0.00  0.00    +0.244 C 
ATOM      2  O   UNL     1      -3.830   2.240   5.491  0.00  0.00    -0.270 OA
ATOM      3  N   UNL     1      -2.882   4.249   5.478  0.00  0.00    -0.313 N 
ATOM      4  H   UNL     1      -2.261   4.866   5.061  0.00  0.00    +0.149 HD
ENDROOT
BRANCH   1   8
ATOM      5  C   UNL     1      -0.863   1.821   1.528  0.00  0.00    +0.105 A 
ATOM      6  C   UNL     1      -0.683   3.088   2.053  0.00  0.00    +0.029 A 
ATOM      7  C   UNL     1      -1.395   3.483   3.167  0.00  0.00    +0.015 A 
ATOM      8  C   UNL     1      -2.289   2.598   3.770  0.00  0.00    +0.037 A 
ATOM      9  C   UNL     1      -2.461   1.319   3.239  0.00  0.00    +0.015 A 
ATOM     10  C   UNL     1      -1.748   0.938   2.121  0.00  0.00    +0.029 A 
BRANCH   5  11
ATOM     11  S   UNL     1       0.044   1.326   0.100  0.00  0.00    +0.058 S 
ATOM     12  O   UNL     1       0.108  -0.093   0.131  0.00  0.00    -0.153 OA
ATOM     13  O   UNL     1       1.208   2.140   0.057  0.00  0.00    -0.153 OA
BRANCH  11  14
ATOM     14  N   UNL     1      -0.866   1.730  -1.223  0.00  0.00    -0.188 NA
ATOM     15  H   UNL     1      -1.217   1.035  -1.801  0.00  0.00    +0.148 HD
BRANCH  14  16
ATOM     16  C   UNL     1      -1.141   3.138  -1.520  0.00  0.00    +0.134 C 
BRANCH  16  17
ATOM     17  C   UNL     1      -1.660   3.264  -2.954  0.00  0.00    +0.176 C 
BRANCH  17  19
ATOM     18  C   UNL     1      -3.497   2.660  -4.370  0.00  0.00    +0.194 C 
ATOM     19  O   UNL     1      -2.921   2.601  -3.064  0.00  0.00    -0.382 OA
ENDBRANCH  17  19
ENDBRANCH  16  17
ENDBRANCH  14  16
ENDBRANCH  11  14
ENDBRANCH   5  11
ENDBRANCH   1   8
BRANCH   3  20
ATOM     20  C   UNL     1      -3.637   4.661   6.664  0.00  0.00    +0.094 C 
BRANCH  20  21
ATOM     21  C   UNL     1      -3.263   6.097   7.034  0.00  0.00    -0.020 C 
BRANCH  21  22
ATOM     22  C   UNL     1      -4.127   6.563   8.178  0.00  0.00    -0.059 A 
ATOM     23  C   UNL     1      -3.588   7.364   9.168  0.00  0.00    +0.005 A 
ATOM     24  C   UNL     1      -4.380   7.797  10.214  0.00  0.00    +0.046 A 
ATOM     25  C   UNL     1      -5.713   7.418  10.277  0.00  0.00    +0.120 A 
ATOM     26  C   UNL     1      -6.250   6.611   9.284  0.00  0.00    +0.046 A 
ATOM     27  C   UNL     1      -5.455   6.185   8.237  0.00  0.00    +0.005 A 
BRANCH  25  28
ATOM     28  O   UNL     1      -6.492   7.838  11.308  0.00  0.00    -0.495 OA
ATOM     29  C   UNL     1      -5.873   8.667  12.293  0.00  0.00    +0.277 C 
ENDBRANCH  25  28
ENDBRANCH  21  22
BRANCH  21  34
ATOM     30  C   UNL     1      -4.918   7.090   5.550  0.00  0.00    -0.078 C 
ATOM     31  C   UNL     1      -4.988   8.391   4.712  0.00  0.00    -0.020 C 
ATOM     32  C   UNL     1      -3.953   9.306   5.405  0.00  0.00    -0.020 C 
ATOM     33  C   UNL     1      -3.009   8.348   6.156  0.00  0.00    -0.078 C 
ATOM     34  N   UNL     1      -3.482   6.995   5.861  0.00  0.00    +0.385 N 
ATOM     35  H   UNL     1      -2.976   6.620   5.050  0.00  0.00    -0.081 HD
ENDBRANCH  21  34
ENDBRANCH  20  21
ENDBRANCH   3  20
TORSDOF 11
