REMARK  Name = ZINC54946796
REMARK  9 active torsions:
REMARK  status: ('A' for Active; 'I' for Inactive)
REMARK    1  A    between atoms: C_1  and  C_2
REMARK    2  A    between atoms: C_5  and  C_30
REMARK    3  A    between atoms: N_8  and  C_10
REMARK    4  A    between atoms: C_10  and  C_11
REMARK    5  A    between atoms: C_10  and  C_12
REMARK    6  A    between atoms: C_10  and  C_13
REMARK    7  A    between atoms: C_13  and  N_14
REMARK    8  A    between atoms: C_15  and  C_17
REMARK    9  A    between atoms: N_19  and  C_20
REMARK                            x       y       z     vdW  Elec       q    Type
REMARK                         _______ _______ _______ _____ _____    ______ ____
ROOT
ATOM      1  N   UNL     1       3.418  -2.171   0.805  0.00  0.00    -0.309 N 
ATOM      2  C   UNL     1       4.734  -2.082   0.525  0.00  0.00    +0.299 C 
ATOM      3  O   UNL     1       5.510  -1.696   1.374  0.00  0.00    -0.265 OA
ATOM      4  H   UNL     1       2.798  -2.480   0.126  0.00  0.00    +0.149 HD
ENDROOT
BRANCH   2   5
ATOM      5  C   UNL     1       5.236  -2.459  -0.830  0.00  0.00    +0.303 C 
ATOM      6  O   UNL     1       4.460  -2.846  -1.679  0.00  0.00    -0.265 OA
ATOM      7  N   UNL     1       6.552  -2.370  -1.109  0.00  0.00    -0.275 N 
ATOM      8  H   UNL     1       7.163  -2.001  -0.453  0.00  0.00    +0.155 HD
BRANCH   7   9
ATOM      9  C   UNL     1       7.035  -2.811  -2.346  0.00  0.00    +0.080 A 
ATOM     10  C   UNL     1       6.219  -2.764  -3.468  0.00  0.00    +0.027 A 
ATOM     11  C   UNL     1       6.697  -3.199  -4.689  0.00  0.00    +0.006 A 
ATOM     12  C   UNL     1       7.987  -3.684  -4.798  0.00  0.00    +0.049 A 
ATOM     13  C   UNL     1       8.810  -3.735  -3.682  0.00  0.00    +0.164 A 
ATOM     14  C   UNL     1       8.338  -3.292  -2.453  0.00  0.00    +0.183 A 
ATOM     15  O   UNL     1       9.133  -3.323  -1.348  0.00  0.00    -0.483 OA
ATOM     16  C   UNL     1      10.297  -4.153  -1.416  0.00  0.00    +0.270 C 
ATOM     17  C   UNL     1      10.996  -3.892  -2.757  0.00  0.00    +0.270 C 
ATOM     18  O   UNL     1      10.076  -4.219  -3.808  0.00  0.00    -0.485 OA
ENDBRANCH   7   9
ENDBRANCH   2   5
BRANCH   1  19
ATOM     19  C   UNL     1       2.925  -1.801   2.134  0.00  0.00    +0.092 C 
BRANCH  19  20
ATOM     20  C   UNL     1       1.425  -2.088   2.219  0.00  0.00    -0.055 C 
ATOM     21  C   UNL     1       0.894  -1.629   3.579  0.00  0.00    -0.008 C 
ATOM     22  C   UNL     1       1.183  -3.590   2.058  0.00  0.00    -0.008 C 
BRANCH  20  28
ATOM     23  C   UNL     1       0.652   2.320   0.233  0.00  0.00    +0.005 C 
ATOM     24  C   UNL     1       0.353   0.824   0.108  0.00  0.00    -0.031 C 
ATOM     25  C   UNL     1      -1.161   0.600   0.158  0.00  0.00    +0.003 C 
ATOM     26  C   UNL     1      -1.446  -0.904   0.111  0.00  0.00    -0.031 C 
ATOM     27  C   UNL     1      -0.719  -1.592   1.269  0.00  0.00    -0.075 C 
ATOM     28  N   UNL     1       0.726  -1.362   1.150  0.00  0.00    +0.384 N 
ATOM     29  C   UNL     1       1.014   0.073   1.266  0.00  0.00    -0.075 C 
ATOM     30  C   UNL     1      -2.951  -1.143   0.237  0.00  0.00    +0.005 C 
ATOM     31  H   UNL     1       1.046  -1.696   0.254  0.00  0.00    -0.081 HD
ENDBRANCH  20  28
ENDBRANCH  19  20
ENDBRANCH   1  19
TORSDOF 5
