REMARK  Name = ZINC37769875
REMARK  5 active torsions:
REMARK  status: ('A' for Active; 'I' for Inactive)
REMARK    1  A    between atoms: C_1  and  O_2
REMARK    2  A    between atoms: O_2  and  C_3
REMARK    3  A    between atoms: C_3  and  C_5
REMARK    4  A    between atoms: C_10  and  N_11
REMARK    5  A    between atoms: C_12  and  C_14
REMARK                            x       y       z     vdW  Elec       q    Type
REMARK                         _______ _______ _______ _____ _____    ______ ____
ROOT
ATOM      1  C   UNL     1      -1.649  -2.856   1.243  0.00  0.00    +0.082 A 
ATOM      2  C   UNL     1      -0.445  -3.560   1.156  0.00  0.00    +0.032 A 
ATOM      3  C   UNL     1      -0.107  -4.202  -0.017  0.00  0.00    +0.020 A 
ATOM      4  C   UNL     1      -0.957  -4.153  -1.111  0.00  0.00    +0.032 A 
ATOM      5  C   UNL     1      -2.149  -3.461  -1.040  0.00  0.00    +0.041 A 
ATOM      6  C   UNL     1      -2.509  -2.813   0.135  0.00  0.00    +0.062 A 
ATOM      7 BR   UNL     1      -3.298  -3.401  -2.541  0.00  0.00    -0.048 Br
ATOM      8 BR   UNL     1       1.522  -5.154  -0.132  0.00  0.00    -0.050 Br
ENDROOT
BRANCH   6   9
ATOM      9  N   UNL     1      -3.715  -2.119   0.211  0.00  0.00    -0.285 N 
ATOM     10  C   UNL     1      -4.883  -2.784   0.109  0.00  0.00    +0.203 C 
ATOM     11  O   UNL     1      -4.886  -3.993   0.015  0.00  0.00    -0.277 OA
ATOM     12  H   UNL     1      -3.713  -1.157   0.337  0.00  0.00    +0.155 HD
BRANCH  10  13
ATOM     13  C   UNL     1      -6.184  -2.025   0.112  0.00  0.00    +0.016 C 
ATOM     14  C   UNL     1      -6.208  -1.050  -1.067  0.00  0.00    -0.007 C 
ATOM     15  C   UNL     1      -7.532  -0.281  -1.060  0.00  0.00    -0.003 C 
ATOM     16  C   UNL     1      -8.692  -1.280  -1.109  0.00  0.00    -0.019 C 
ATOM     17  C   UNL     1      -8.576  -2.247   0.072  0.00  0.00    -0.082 C 
ATOM     18  N   UNL     1      -7.301  -2.970  -0.007  0.00  0.00    +0.387 N 
ATOM     19  H   UNL     1      -7.242  -3.449  -0.893  0.00  0.00    -0.085 HD
ATOM     20  H   UNL     1      -7.252  -3.644   0.742  0.00  0.00    -0.085 HD
ENDBRANCH  10  13
ENDBRANCH   6   9
BRANCH   1  21
ATOM     21  C   UNL     1      -2.017  -2.168   2.493  0.00  0.00    +0.341 C 
ATOM     22  O   UNL     1      -3.111  -1.651   2.603  0.00  0.00    -0.245 OA
BRANCH  21  24
ATOM     23  C   UNL     1      -1.562  -1.430   4.697  0.00  0.00    +0.280 C 
ATOM     24  O   UNL     1      -1.140  -2.113   3.515  0.00  0.00    -0.464 OA
ENDBRANCH  21  24
ENDBRANCH   1  21
TORSDOF 4
