REMARK  Name = ZINC67476426
REMARK  7 active torsions:
REMARK  status: ('A' for Active; 'I' for Inactive)
REMARK    1  A    between atoms: C_1  and  C_2
REMARK    2  A    between atoms: C_2  and  C_3
REMARK    3  A    between atoms: C_2  and  C_4
REMARK    4  A    between atoms: C_2  and  C_5
REMARK    5  A    between atoms: C_8  and  C_10
REMARK    6  A    between atoms: N_12  and  C_13
REMARK    7  A    between atoms: C_14  and  C_22
REMARK                            x       y       z     vdW  Elec       q    Type
REMARK                         _______ _______ _______ _____ _____    ______ ____
ROOT
ATOM      1  C   UNL     1       1.802  -2.206  -4.759  0.00  0.00    +0.257 C 
ATOM      2  O   UNL     1       0.906  -2.846  -5.278  0.00  0.00    -0.269 OA
ATOM      3  N   UNL     1       3.006  -2.124  -5.358  0.00  0.00    -0.274 N 
ATOM      4  H   UNL     1       3.720  -1.614  -4.944  0.00  0.00    +0.156 HD
ENDROOT
BRANCH   3   5
ATOM      5  C   UNL     1       3.225  -2.770  -6.566  0.00  0.00    +0.090 A 
ATOM      6  C   UNL     1       4.389  -2.801  -7.316  0.00  0.00    +0.084 A 
ATOM      7  C   UNL     1       4.361  -3.556  -8.556  0.00  0.00    -0.018 A 
ATOM      8  C   UNL     1       3.172  -4.141  -8.819  0.00  0.00    -0.004 A 
ATOM      9  S   UNL     1       2.142  -3.699  -7.450  0.00  0.00    -0.077 S 
ATOM     10  C   UNL     1       2.826  -4.979 -10.011  0.00  0.00    +0.043 C 
ATOM     11  C   UNL     1       3.907  -4.766 -11.081  0.00  0.00    +0.005 C 
ATOM     12  C   UNL     1       5.285  -4.897 -10.426  0.00  0.00    +0.005 C 
ATOM     13  C   UNL     1       5.541  -3.702  -9.505  0.00  0.00    +0.037 C 
BRANCH   6  14
ATOM     14  C   UNL     1       5.572  -2.116  -6.887  0.00  0.00    +0.102 C 
ATOM     15  N   UNL     1       6.510  -1.574  -6.546  0.00  0.00    -0.191 NA
ENDBRANCH   6  14
ENDBRANCH   3   5
BRANCH   1  19
ATOM     16  C   UNL     1       0.707  -0.490  -1.238  0.00  0.00    +0.084 A 
ATOM     17  N   UNL     1       1.946  -0.261  -1.613  0.00  0.00    -0.251 NA
ATOM     18  C   UNL     1       2.428  -0.754  -2.726  0.00  0.00    +0.132 A 
ATOM     19  C   UNL     1       1.570  -1.523  -3.482  0.00  0.00    +0.094 A 
ATOM     20  S   UNL     1       0.100  -1.462  -2.470  0.00  0.00    -0.067 S 
BRANCH  16  22
ATOM     21  C   UNL     1      -0.019   1.526   0.010  0.00  0.00    +0.017 C 
ATOM     22  C   UNL     1       0.002  -0.004   0.002  0.00  0.00    +0.011 C 
ATOM     23  C   UNL     1       0.742  -0.511   1.242  0.00  0.00    +0.017 C 
ATOM     24  C   UNL     1      -1.433  -0.534   0.013  0.00  0.00    +0.017 C 
ENDBRANCH  16  22
ENDBRANCH   1  19
TORSDOF 4
