REMARK  Name = ZINC20753876
REMARK  5 active torsions:
REMARK  status: ('A' for Active; 'I' for Inactive)
REMARK    1  A    between atoms: C_14  and  C_15
REMARK    2  A    between atoms: C_26  and  S_31
REMARK    3  A    between atoms: S_31  and  N_34
REMARK    4  A    between atoms: N_34  and  C_35
REMARK    5  A    between atoms: C_35  and  C_36
REMARK                            x       y       z     vdW  Elec       q    Type
REMARK                         _______ _______ _______ _____ _____    ______ ____
ROOT
ATOM      1  C   UNL     1      -2.473  -0.424   0.022  0.00  0.00    +0.106 C 
ATOM      2  C   UNL     1      -2.113  -0.934  -1.376  0.00  0.00    +0.029 C 
ATOM      3  C   UNL     1      -3.341  -0.683  -2.295  0.00  0.00    +0.033 C 
ATOM      4  C   UNL     1      -4.244  -1.867  -2.002  0.00  0.00    -0.030 C 
ATOM      5  C   UNL     1      -3.551  -2.860  -1.501  0.00  0.00    -0.023 C 
ATOM      6  C   UNL     1      -2.095  -2.475  -1.384  0.00  0.00    +0.049 C 
ATOM      7  C   UNL     1      -1.471  -3.059  -0.157  0.00  0.00    -0.018 A 
ATOM      8  C   UNL     1      -1.163  -4.413  -0.146  0.00  0.00    +0.034 A 
ATOM      9  C   UNL     1      -0.583  -4.992   0.964  0.00  0.00    +0.106 A 
ATOM     10  C   UNL     1      -0.300  -4.228   2.081  0.00  0.00    +0.030 A 
ATOM     11  C   UNL     1      -0.603  -2.881   2.083  0.00  0.00    +0.025 A 
ATOM     12  C   UNL     1      -1.188  -2.298   0.966  0.00  0.00    +0.031 A 
ATOM     13  N   UNL     1      -1.490  -0.932   0.984  0.00  0.00    -0.336 N 
ATOM     14  H   UNL     1      -1.010  -0.244   1.696  0.00  0.00    +0.147 HD
ENDROOT
BRANCH   1  28
ATOM     15  C   UNL     1       1.169   3.170   0.008  0.00  0.00    +0.001 A 
ATOM     16  C   UNL     1       1.151   1.775   0.001  0.00  0.00    +0.001 A 
ATOM     17  C   UNL     1      -0.013   1.076   0.008  0.00  0.00    +0.009 A 
ATOM     18  C   UNL     1      -1.242   1.770   0.018  0.00  0.00    -0.012 A 
ATOM     19  C   UNL     1      -1.224   3.236   0.030  0.00  0.00    -0.017 A 
ATOM     20  C   UNL     1       0.023   3.898   0.022  0.00  0.00    +0.008 A 
ATOM     21  C   UNL     1      -2.419   3.952   0.044  0.00  0.00    +0.017 A 
ATOM     22  C   UNL     1      -3.632   3.266   0.051  0.00  0.00    -0.017 A 
ATOM     23  C   UNL     1      -4.862   3.959   0.065  0.00  0.00    +0.008 A 
ATOM     24  C   UNL     1      -6.025   3.259   0.071  0.00  0.00    +0.001 A 
ATOM     25  C   UNL     1      -6.042   1.864   0.065  0.00  0.00    +0.001 A 
ATOM     26  C   UNL     1      -4.896   1.136   0.051  0.00  0.00    +0.009 A 
ATOM     27  C   UNL     1      -3.650   1.800   0.044  0.00  0.00    -0.012 A 
ATOM     28  C   UNL     1      -2.455   1.083   0.030  0.00  0.00    -0.012 A 
ENDBRANCH   1  28
BRANCH   9  29
ATOM     29  S   UNL     1      -0.200  -6.712   0.957  0.00  0.00    +0.058 S 
ATOM     30  O   UNL     1      -0.060  -7.092  -0.405  0.00  0.00    -0.153 OA
ATOM     31  O   UNL     1       0.837  -6.901   1.911  0.00  0.00    -0.153 OA
BRANCH  29  32
ATOM     32  N   UNL     1      -1.528  -7.511   1.538  0.00  0.00    -0.187 NA
ATOM     33  H   UNL     1      -1.507  -7.918   2.560  0.00  0.00    +0.148 HD
BRANCH  32  34
ATOM     34  C   UNL     1      -2.785  -7.486   0.786  0.00  0.00    +0.137 C 
BRANCH  34  35
ATOM     35  C   UNL     1      -3.719  -8.575   1.317  0.00  0.00    +0.134 C 
ATOM     36  C   UNL     1      -5.042  -8.562   0.527  0.00  0.00    +0.035 C 
ATOM     37  C   UNL     1      -5.141  -9.985  -0.073  0.00  0.00    +0.031 C 
ATOM     38  C   UNL     1      -4.195 -10.793   0.851  0.00  0.00    +0.160 C 
ATOM     39  O   UNL     1      -3.119  -9.868   1.129  0.00  0.00    -0.375 OA
ENDBRANCH  34  35
ENDBRANCH  32  34
ENDBRANCH  29  32
ENDBRANCH   9  29
TORSDOF 5
