REMARK  Name = ZINC63717871
REMARK  9 active torsions:
REMARK  status: ('A' for Active; 'I' for Inactive)
REMARK    1  A    between atoms: C_1  and  O_2
REMARK    2  A    between atoms: O_2  and  C_3
REMARK    3  A    between atoms: C_6  and  C_9
REMARK    4  A    between atoms: C_10  and  C_11
REMARK    5  A    between atoms: C_10  and  N_25
REMARK    6  A    between atoms: N_13  and  C_14
REMARK    7  A    between atoms: C_14  and  C_15
REMARK    8  A    between atoms: C_15  and  C_16
REMARK    9  A    between atoms: C_26  and  C_28
REMARK                            x       y       z     vdW  Elec       q    Type
REMARK                         _______ _______ _______ _____ _____    ______ ____
ROOT
ATOM      1  C   UNL     1       2.538  -2.468  -4.354  0.00  0.00    +0.036 C 
ATOM      2  C   UNL     1       2.589  -3.820  -4.319  0.00  0.00    +0.097 C 
ENDROOT
BRANCH   1   6
ATOM      3  C   UNL     1       1.051  -0.313  -1.017  0.00  0.00    +0.120 A 
ATOM      4  C   UNL     1       1.032   0.267  -2.280  0.00  0.00    +0.046 A 
ATOM      5  C   UNL     1       1.514  -0.428  -3.367  0.00  0.00    +0.011 A 
ATOM      6  C   UNL     1       2.023  -1.721  -3.198  0.00  0.00    -0.023 A 
ATOM      7  C   UNL     1       2.040  -2.300  -1.924  0.00  0.00    +0.011 A 
ATOM      8  C   UNL     1       1.560  -1.594  -0.843  0.00  0.00    +0.046 A 
BRANCH   3  10
ATOM      9  C   UNL     1       0.065   1.688  -0.199  0.00  0.00    +0.277 C 
ATOM     10  O   UNL     1       0.574   0.377   0.051  0.00  0.00    -0.495 OA
ENDBRANCH   3  10
ENDBRANCH   1   6
BRANCH   2  11
ATOM     11  C   UNL     1       3.251  -4.559  -5.402  0.00  0.00    +0.258 C 
ATOM     12  O   UNL     1       3.849  -3.955  -6.273  0.00  0.00    -0.269 OA
ATOM     13  N   UNL     1       3.195  -5.905  -5.431  0.00  0.00    -0.310 N 
ATOM     14  H   UNL     1       2.658  -6.383  -4.780  0.00  0.00    +0.149 HD
BRANCH  13  15
ATOM     15  C   UNL     1       3.946  -6.647  -6.447  0.00  0.00    +0.109 C 
BRANCH  15  16
ATOM     16  C   UNL     1       3.712  -8.148  -6.259  0.00  0.00    +0.052 C 
BRANCH  16  17
ATOM     17  C   UNL     1       4.485  -8.911  -7.304  0.00  0.00    -0.040 C 
ATOM     18  C   UNL     1       5.715  -9.458  -7.167  0.00  0.00    -0.001 A 
ATOM     19  C   UNL     1       6.664  -9.503  -6.049  0.00  0.00    +0.010 A 
ATOM     20  C   UNL     1       7.846 -10.140  -6.217  0.00  0.00    +0.001 A 
ATOM     21  C   UNL     1       8.186 -10.755  -7.430  0.00  0.00    +0.002 A 
ATOM     22  C   UNL     1       7.366 -10.755  -8.502  0.00  0.00    +0.026 A 
ATOM     23  C   UNL     1       6.097 -10.116  -8.437  0.00  0.00    +0.043 A 
ATOM     24  N   UNL     1       5.141  -9.981  -9.324  0.00  0.00    -0.380 N 
ATOM     25  C   UNL     1       4.041  -9.226  -8.714  0.00  0.00    +0.144 C 
ATOM     26  H   UNL     1       5.157 -10.325 -10.230  0.00  0.00    +0.160 HD
ENDBRANCH  16  17
ENDBRANCH  15  16
ENDBRANCH  13  15
ENDBRANCH   2  11
BRANCH   2  27
ATOM     27  N   UNL     1       2.010  -4.514  -3.251  0.00  0.00    -0.277 N 
ATOM     28  C   UNL     1       2.749  -5.383  -2.532  0.00  0.00    +0.248 C 
ATOM     29  O   UNL     1       3.938  -5.500  -2.757  0.00  0.00    -0.270 OA
ATOM     30  H   UNL     1       1.077  -4.370  -3.027  0.00  0.00    +0.155 HD
BRANCH  28  31
ATOM     31  C   UNL     1       2.114  -6.193  -1.472  0.00  0.00    +0.037 A 
ATOM     32  C   UNL     1       0.747  -6.065  -1.216  0.00  0.00    +0.013 A 
ATOM     33  C   UNL     1       0.160  -6.824  -0.225  0.00  0.00    +0.001 A 
ATOM     34  C   UNL     1       0.923  -7.711   0.514  0.00  0.00    +0.000 A 
ATOM     35  C   UNL     1       2.277  -7.843   0.266  0.00  0.00    +0.001 A 
ATOM     36  C   UNL     1       2.876  -7.094  -0.726  0.00  0.00    +0.013 A 
ENDBRANCH  28  31
ENDBRANCH   2  27
TORSDOF 8
