REMARK  Name = ZINC04548651
REMARK  5 active torsions:
REMARK  status: ('A' for Active; 'I' for Inactive)
REMARK    1  A    between atoms: C_4  and  C_7
REMARK    2  A    between atoms: C_10  and  C_13
REMARK    3  A    between atoms: N_15  and  N_16
REMARK    4  A    between atoms: N_16  and  C_17
REMARK    5  A    between atoms: C_22  and  N_23
REMARK                            x       y       z     vdW  Elec       q    Type
REMARK                         _______ _______ _______ _____ _____    ______ ____
ROOT
ATOM      1  C   UNL     1      -0.070   5.740  -0.113  0.00  0.00    +0.260 C 
ATOM      2  O   UNL     1       0.967   6.346   0.074  0.00  0.00    -0.269 OA
ATOM      3  N   UNL     1      -1.245   6.399  -0.118  0.00  0.00    -0.232 N 
ATOM      4  H   UNL     1      -2.072   5.915  -0.268  0.00  0.00    +0.173 HD
ENDROOT
BRANCH   1   8
ATOM      5  C   UNL     1       0.013   1.539  -0.752  0.00  0.00    -0.018 A 
ATOM      6  C   UNL     1      -1.203   2.222  -0.763  0.00  0.00    +0.009 A 
ATOM      7  C   UNL     1      -1.232   3.582  -0.550  0.00  0.00    +0.014 A 
ATOM      8  C   UNL     1      -0.041   4.279  -0.335  0.00  0.00    +0.038 A 
ATOM      9  C   UNL     1       1.177   3.595  -0.329  0.00  0.00    +0.014 A 
ATOM     10  C   UNL     1       1.203   2.235  -0.536  0.00  0.00    +0.009 A 
BRANCH   5  14
ATOM     11  C   UNL     1       0.097  -2.663  -1.395  0.00  0.00    +0.000 A 
ATOM     12  C   UNL     1      -1.111  -1.989  -1.400  0.00  0.00    +0.001 A 
ATOM     13  C   UNL     1      -1.145  -0.625  -1.192  0.00  0.00    +0.008 A 
ATOM     14  C   UNL     1       0.042   0.073  -0.976  0.00  0.00    -0.018 A 
ATOM     15  C   UNL     1       1.257  -0.610  -0.977  0.00  0.00    +0.008 A 
ATOM     16  C   UNL     1       1.278  -1.975  -1.181  0.00  0.00    +0.001 A 
ENDBRANCH   5  14
ENDBRANCH   1   8
BRANCH   3  17
ATOM     17  N   UNL     1      -1.272   7.784   0.092  0.00  0.00    -0.262 N 
ATOM     18  H   UNL     1      -0.445   8.268   0.241  0.00  0.00    +0.170 HD
BRANCH  17  19
ATOM     19  C   UNL     1      -2.491   8.467   0.086  0.00  0.00    +0.075 A 
ATOM     20  C   UNL     1      -3.684   7.763  -0.016  0.00  0.00    +0.027 A 
ATOM     21  C   UNL     1      -4.886   8.441  -0.017  0.00  0.00    +0.002 A 
ATOM     22  C   UNL     1      -4.904   9.821   0.074  0.00  0.00    +0.002 A 
ATOM     23  C   UNL     1      -3.718  10.526   0.171  0.00  0.00    +0.034 A 
ATOM     24  C   UNL     1      -2.512   9.853   0.177  0.00  0.00    +0.148 A 
BRANCH  24  25
ATOM     25  N   UNL     1      -1.243  10.608   0.280  0.00  0.00    +0.058 N 
ATOM     26  O   UNL     1      -1.185  11.610   0.970  0.00  0.00    -0.126 OA
ATOM     27  O   UNL     1      -0.257  10.227  -0.325  0.00  0.00    -0.126 OA
ENDBRANCH  24  25
ENDBRANCH  17  19
ENDBRANCH   3  17
TORSDOF 5
