REMARK  Name = ZINC39604466
REMARK  11 active torsions:
REMARK  status: ('A' for Active; 'I' for Inactive)
REMARK    1  A    between atoms: C_1  and  C_2
REMARK    2  A    between atoms: C_2  and  O_3
REMARK    3  A    between atoms: O_3  and  C_4
REMARK    4  A    between atoms: C_4  and  C_5
REMARK    5  A    between atoms: C_5  and  C_6
REMARK    6  A    between atoms: C_6  and  N_7
REMARK    7  A    between atoms: C_8  and  C_10
REMARK    8  A    between atoms: C_21  and  C_23
REMARK    9  A    between atoms: C_28  and  O_29
REMARK   10  A    between atoms: O_29  and  C_30
REMARK   11  A    between atoms: C_33  and  C_36
REMARK                            x       y       z     vdW  Elec       q    Type
REMARK                         _______ _______ _______ _____ _____    ______ ____
ROOT
ATOM      1  C   UNL     1       2.905  -5.972   4.957  0.00  0.00    +0.100 C 
ATOM      2  C   UNL     1       2.399  -5.340   6.273  0.00  0.00    +0.121 C 
ATOM      3  N   UNL     1       1.607  -6.411   6.922  0.00  0.00    -0.296 N 
ATOM      4  C   UNL     1       2.378  -7.650   6.660  0.00  0.00    +0.115 C 
ATOM      5  C   UNL     1       2.894  -7.488   5.216  0.00  0.00    -0.004 C 
ATOM      6  C   UNL     1       1.951  -8.184   4.239  0.00  0.00    -0.010 C 
ATOM      7  C   UNL     1       1.999  -9.695   4.480  0.00  0.00    -0.082 C 
ATOM      8  N   UNL     1       3.373 -10.178   4.294  0.00  0.00    +0.379 N 
ATOM      9  C   UNL     1       4.257  -9.573   5.298  0.00  0.00    -0.082 C 
ATOM     10  C   UNL     1       4.304  -8.057   5.092  0.00  0.00    -0.010 C 
ATOM     11  C   UNL     1       0.447  -6.287   7.597  0.00  0.00    +0.252 C 
ATOM     12  O   UNL     1      -0.037  -7.252   8.157  0.00  0.00    -0.270 OA
ATOM     13  H   UNL     1       3.391 -11.182   4.393  0.00  0.00    -0.086 HD
ATOM     14  H   UNL     1       3.694  -9.928   3.371  0.00  0.00    -0.086 HD
ENDROOT
BRANCH  11  15
ATOM     15  C   UNL     1      -0.235  -4.981   7.658  0.00  0.00    +0.099 A 
ATOM     16  C   UNL     1       0.504  -3.793   7.709  0.00  0.00    +0.020 A 
ATOM     17  C   UNL     1      -0.184  -2.593   7.764  0.00  0.00    +0.021 A 
ATOM     18  C   UNL     1      -1.567  -2.602   7.768  0.00  0.00    +0.114 A 
ATOM     19  N   UNL     1      -2.244  -3.733   7.720  0.00  0.00    -0.220 NA
ATOM     20  C   UNL     1      -1.636  -4.906   7.660  0.00  0.00    +0.233 A 
BRANCH  20  21
ATOM     21  O   UNL     1      -2.371  -6.042   7.606  0.00  0.00    -0.437 OA
BRANCH  21  22
ATOM     22  C   UNL     1      -3.722  -5.934   7.710  0.00  0.00    +0.130 A 
ATOM     23  C   UNL     1      -4.354  -6.243   8.905  0.00  0.00    +0.046 A 
ATOM     24  C   UNL     1      -5.727  -6.132   9.008  0.00  0.00    +0.007 A 
ATOM     25  C   UNL     1      -6.471  -5.713   7.920  0.00  0.00    -0.050 A 
ATOM     26  C   UNL     1      -5.844  -5.405   6.728  0.00  0.00    +0.007 A 
ATOM     27  C   UNL     1      -4.470  -5.509   6.621  0.00  0.00    +0.046 A 
ATOM     28  C   UNL     1      -7.969  -5.593   8.035  0.00  0.00    +0.044 C 
ENDBRANCH  21  22
ENDBRANCH  20  21
ENDBRANCH  11  15
BRANCH   1  30
ATOM     29  N   UNL     1       2.458  -5.549   2.561  0.00  0.00    -0.315 N 
ATOM     30  C   UNL     1       1.980  -5.627   3.819  0.00  0.00    +0.218 C 
ATOM     31  O   UNL     1       0.805  -5.420   4.035  0.00  0.00    -0.275 OA
ATOM     32  H   UNL     1       3.398  -5.715   2.389  0.00  0.00    +0.149 HD
BRANCH  29  33
ATOM     33  C   UNL     1       1.559  -5.214   1.455  0.00  0.00    +0.106 C 
BRANCH  33  34
ATOM     34  C   UNL     1       2.348  -5.191   0.144  0.00  0.00    +0.047 C 
BRANCH  34  35
ATOM     35  C   UNL     1       1.408  -4.841  -1.011  0.00  0.00    +0.161 C 
BRANCH  35  36
ATOM     36  O   UNL     1       2.146  -4.820  -2.235  0.00  0.00    -0.380 OA
BRANCH  36  38
ATOM     37  C   UNL     1       2.245  -4.507  -4.629  0.00  0.00    +0.034 C 
ATOM     38  C   UNL     1       1.357  -4.501  -3.383  0.00  0.00    +0.156 C 
ENDBRANCH  36  38
ENDBRANCH  35  36
ENDBRANCH  34  35
ENDBRANCH  33  34
ENDBRANCH  29  33
ENDBRANCH   1  30
TORSDOF 9
