REMARK  Name = ZINC52604259
REMARK  7 active torsions:
REMARK  status: ('A' for Active; 'I' for Inactive)
REMARK    1  A    between atoms: C_1  and  N_2
REMARK    2  A    between atoms: C_6  and  C_8
REMARK    3  A    between atoms: C_8  and  C_9
REMARK    4  A    between atoms: C_12  and  C_18
REMARK    5  A    between atoms: N_21  and  C_24
REMARK    6  A    between atoms: C_24  and  N_25
REMARK    7  A    between atoms: N_25  and  C_26
REMARK                            x       y       z     vdW  Elec       q    Type
REMARK                         _______ _______ _______ _____ _____    ______ ____
ROOT
ATOM      1  C   UNL     1      -0.973  -0.064   1.758  0.00  0.00    -0.043 C 
ATOM      2  C   UNL     1      -2.121   0.106   1.058  0.00  0.00    -0.001 A 
ATOM      3  C   UNL     1      -2.805  -0.733   0.072  0.00  0.00    +0.018 A 
ATOM      4  C   UNL     1      -3.974  -0.302  -0.484  0.00  0.00    -0.021 A 
ATOM      5  C   UNL     1      -4.562   0.981  -0.119  0.00  0.00    +0.010 A 
ATOM      6  C   UNL     1      -3.982   1.798   0.781  0.00  0.00    +0.026 A 
ATOM      7  C   UNL     1      -2.723   1.407   1.426  0.00  0.00    +0.043 A 
ATOM      8  N   UNL     1      -1.979   2.017   2.315  0.00  0.00    -0.380 N 
ATOM      9  C   UNL     1      -0.822   1.169   2.620  0.00  0.00    +0.144 C 
ATOM     10  H   UNL     1      -2.165   2.884   2.710  0.00  0.00    +0.160 HD
ENDROOT
BRANCH   4  11
ATOM     11  C   UNL     1      -4.658  -1.153  -1.478  0.00  0.00    -0.041 C 
ATOM     12  C   UNL     1      -5.131  -2.308  -1.073  0.00  0.00    -0.004 C 
ATOM     13  C   UNL     1      -5.833  -3.280  -1.981  0.00  0.00    +0.134 C 
ATOM     14  N   UNL     1      -6.122  -2.620  -3.262  0.00  0.00    -0.308 N 
ATOM     15  C   UNL     1      -5.056  -1.790  -3.851  0.00  0.00    +0.112 C 
ATOM     16  C   UNL     1      -4.770  -0.638  -2.882  0.00  0.00    +0.054 C 
BRANCH  14  17
ATOM     17  C   UNL     1      -7.313  -2.769  -3.875  0.00  0.00    +0.137 C 
ATOM     18  S   UNL     1      -7.676  -1.853  -5.275  0.00  0.00    -0.018 S 
BRANCH  17  19
ATOM     19  N   UNL     1      -8.218  -3.639  -3.385  0.00  0.00    -0.297 N 
ATOM     20  H   UNL     1      -8.048  -4.096  -2.547  0.00  0.00    +0.154 HD
BRANCH  19  21
ATOM     21  C   UNL     1      -9.405  -3.882  -4.086  0.00  0.00    +0.033 A 
ATOM     22  C   UNL     1      -9.386  -3.985  -5.471  0.00  0.00    +0.025 A 
ATOM     23  C   UNL     1     -10.559  -4.226  -6.160  0.00  0.00    +0.022 A 
ATOM     24  C   UNL     1     -11.751  -4.364  -5.472  0.00  0.00    +0.041 A 
ATOM     25  C   UNL     1     -11.773  -4.263  -4.092  0.00  0.00    +0.022 A 
ATOM     26  C   UNL     1     -10.602  -4.027  -3.397  0.00  0.00    +0.025 A 
ATOM     27 CL   UNL     1     -13.223  -4.666  -6.341  0.00  0.00    -0.084 Cl
ENDBRANCH  19  21
ENDBRANCH  17  19
ENDBRANCH  14  17
ENDBRANCH   4  11
BRANCH   1  28
ATOM     28  C   UNL     1      -0.039  -1.245   1.695  0.00  0.00    +0.018 C 
BRANCH  28  34
ATOM     29  C   UNL     1       0.885   0.510  -1.194  0.00  0.00    -0.096 C 
ATOM     30  N   UNL     1       0.548  -0.815  -0.655  0.00  0.00    +0.380 N 
ATOM     31  C   UNL     1       1.146  -1.865  -1.506  0.00  0.00    -0.079 C 
ATOM     32  C   UNL     1       2.482  -2.225  -0.810  0.00  0.00    -0.020 C 
ATOM     33  C   UNL     1       2.092  -2.124   0.689  0.00  0.00    -0.017 C 
ATOM     34  C   UNL     1       1.093  -0.949   0.709  0.00  0.00    -0.065 C 
ATOM     35  H   UNL     1      -0.455  -0.928  -0.632  0.00  0.00    -0.082 HD
ENDBRANCH  28  34
ENDBRANCH   1  28
TORSDOF 6
