REMARK  Name = ZINC66413599
REMARK  4 active torsions:
REMARK  status: ('A' for Active; 'I' for Inactive)
REMARK    1  A    between atoms: C_1  and  C_2
REMARK    2  A    between atoms: C_5  and  C_27
REMARK    3  A    between atoms: N_16  and  C_19
REMARK    4  A    between atoms: C_19  and  C_20
REMARK                            x       y       z     vdW  Elec       q    Type
REMARK                         _______ _______ _______ _____ _____    ______ ____
ROOT
ATOM      1  C   UNL     1      -0.018   1.503   0.010  0.00  0.00    +0.111 C 
ATOM      2  C   UNL     1       0.002  -0.004   0.002  0.00  0.00    +0.229 C 
ATOM      3  O   UNL     1       1.060  -0.596  -0.011  0.00  0.00    -0.274 OA
ATOM      4  N   UNL     1      -1.156  -0.694   0.009  0.00  0.00    -0.215 N 
ATOM      5  C   UNL     1      -1.272  -2.159   0.009  0.00  0.00    +0.134 C 
ATOM      6  C   UNL     1      -2.789  -2.424   0.019  0.00  0.00    +0.082 C 
ATOM      7  C   UNL     1      -3.410  -1.045   0.025  0.00  0.00    +0.041 C 
ATOM      8  N   UNL     1      -2.430  -0.130   0.025  0.00  0.00    -0.264 N 
ATOM      9  C   UNL     1      -4.765  -0.772   0.034  0.00  0.00    +0.118 C 
ATOM     10  C   UNL     1      -5.767  -1.853   0.045  0.00  0.00    +0.258 C 
ATOM     11  N   UNL     1      -7.072  -1.513   0.054  0.00  0.00    -0.235 N 
ATOM     12  H   UNL     1      -7.744  -2.212   0.061  0.00  0.00    +0.159 HD
ATOM     13  C   UNL     1      -7.462  -0.231   0.053  0.00  0.00    +0.316 C 
ATOM     14  O   UNL     1      -8.653   0.009   0.063  0.00  0.00    -0.252 OA
ATOM     15  N   UNL     1      -6.607   0.802   0.044  0.00  0.00    -0.217 N 
ATOM     16  C   UNL     1      -5.271   0.612   0.039  0.00  0.00    +0.261 C 
ATOM     17  O   UNL     1      -4.506   1.557   0.035  0.00  0.00    -0.269 OA
ATOM     18  O   UNL     1      -5.426  -3.021   0.046  0.00  0.00    -0.270 OA
ATOM     19  H   UNL     1      -2.591   0.827   0.032  0.00  0.00    +0.170 HD
ENDROOT
BRANCH   5  20
ATOM     20  C   UNL     1      -0.626  -2.739   1.240  0.00  0.00    +0.000 A 
ATOM     21  C   UNL     1      -0.421  -2.107   2.407  0.00  0.00    +0.089 A 
ATOM     22  N   UNL     1       0.191  -2.952   3.293  0.00  0.00    -0.360 N 
ATOM     23  H   UNL     1       0.440  -2.721   4.201  0.00  0.00    +0.165 HD
ATOM     24  C   UNL     1       0.401  -4.178   2.702  0.00  0.00    +0.047 A 
ATOM     25  C   UNL     1      -0.107  -4.100   1.393  0.00  0.00    +0.005 A 
ATOM     26  C   UNL     1      -0.036  -5.211   0.551  0.00  0.00    +0.010 A 
ATOM     27  C   UNL     1       0.525  -6.372   1.005  0.00  0.00    +0.001 A 
ATOM     28  C   UNL     1       1.024  -6.455   2.297  0.00  0.00    +0.002 A 
ATOM     29  C   UNL     1       0.973  -5.367   3.142  0.00  0.00    +0.026 A 
ENDBRANCH   5  20
BRANCH  15  30
ATOM     30  C   UNL     1      -7.135   2.168   0.043  0.00  0.00    +0.153 C 
BRANCH  30  31
ATOM     31  C   UNL     1      -7.305   2.642   1.464  0.00  0.00    -0.030 A 
ATOM     32  C   UNL     1      -8.498   2.422   2.128  0.00  0.00    +0.005 A 
ATOM     33  C   UNL     1      -8.654   2.856   3.431  0.00  0.00    +0.000 A 
ATOM     34  C   UNL     1      -7.617   3.509   4.071  0.00  0.00    +0.000 A 
ATOM     35  C   UNL     1      -6.424   3.728   3.408  0.00  0.00    +0.000 A 
ATOM     36  C   UNL     1      -6.267   3.290   2.106  0.00  0.00    +0.005 A 
ENDBRANCH  30  31
ENDBRANCH  15  30
TORSDOF 3
