REMARK  Name = ZINC00134745
REMARK  4 active torsions:
REMARK  status: ('A' for Active; 'I' for Inactive)
REMARK    1  A    between atoms: C_1  and  C_2
REMARK    2  A    between atoms: C_5  and  S_8
REMARK    3  A    between atoms: S_8  and  N_11
REMARK    4  A    between atoms: N_11  and  N_12
REMARK                            x       y       z     vdW  Elec       q    Type
REMARK                         _______ _______ _______ _____ _____    ______ ____
ROOT
ATOM      1  N   UNL     1       1.647  -5.009  -0.028  0.00  0.00    -0.137 N 
ATOM      2  H   UNL     1       1.987  -5.551  -0.757  0.00  0.00    +0.197 HD
ENDROOT
BRANCH   1   3
ATOM      3  N   UNL     1       2.500  -4.622   1.014  0.00  0.00    -0.175 NA
ATOM      4  C   UNL     1       3.701  -5.063   1.055  0.00  0.00    +0.044 C 
ATOM      5  C   UNL     1       4.303  -5.903  -0.061  0.00  0.00    +0.036 C 
ATOM      6  C   UNL     1       5.542  -5.160  -0.577  0.00  0.00    +0.013 C 
ATOM      7  C   UNL     1       6.517  -4.915   0.573  0.00  0.00    -0.009 C 
ATOM      8  C   UNL     1       6.954  -6.256   1.167  0.00  0.00    +0.007 C 
ATOM      9  C   UNL     1       5.719  -6.984   1.701  0.00  0.00    -0.009 C 
ATOM     10  C   UNL     1       4.740  -7.237   0.556  0.00  0.00    +0.013 C 
ATOM     11  C   UNL     1       5.065  -6.142   2.796  0.00  0.00    +0.013 C 
ATOM     12  C   UNL     1       4.637  -4.781   2.221  0.00  0.00    +0.036 C 
ATOM     13  C   UNL     1       5.867  -4.064   1.663  0.00  0.00    +0.013 C 
ENDBRANCH   1   3
BRANCH   1  14
ATOM     14  S   UNL     1       0.059  -4.540  -0.015  0.00  0.00    +0.086 S 
ATOM     15  O   UNL     1      -0.475  -4.949   1.237  0.00  0.00    -0.149 OA
ATOM     16  O   UNL     1      -0.498  -4.957  -1.254  0.00  0.00    -0.149 OA
BRANCH  14  21
ATOM     17  C   UNL     1      -0.024   1.493  -0.034  0.00  0.00    +0.044 C 
ATOM     18  C   UNL     1      -0.003  -0.014  -0.029  0.00  0.00    -0.050 A 
ATOM     19  C   UNL     1      -0.004  -0.709  -1.224  0.00  0.00    +0.005 A 
ATOM     20  C   UNL     1       0.015  -2.091  -1.220  0.00  0.00    +0.029 A 
ATOM     21  C   UNL     1       0.036  -2.778  -0.020  0.00  0.00    +0.110 A 
ATOM     22  C   UNL     1       0.037  -2.083   1.175  0.00  0.00    +0.029 A 
ATOM     23  C   UNL     1       0.022  -0.701   1.170  0.00  0.00    +0.005 A 
ENDBRANCH  14  21
ENDBRANCH   1  14
TORSDOF 3
