REMARK  Name = ZINC38673154
REMARK  8 active torsions:
REMARK  status: ('A' for Active; 'I' for Inactive)
REMARK    1  A    between atoms: C_1  and  N_2
REMARK    2  A    between atoms: N_5  and  C_8
REMARK    3  A    between atoms: C_8  and  C_10
REMARK    4  A    between atoms: C_8  and  C_22
REMARK    5  A    between atoms: C_10  and  N_11
REMARK    6  A    between atoms: N_11  and  S_12
REMARK    7  A    between atoms: S_12  and  C_15
REMARK    8  A    between atoms: N_31  and  C_32
REMARK                            x       y       z     vdW  Elec       q    Type
REMARK                         _______ _______ _______ _____ _____    ______ ____
ROOT
ATOM      1  C   UNL     1       1.475  -3.905  -0.226  0.00  0.00    +0.102 C 
ENDROOT
BRANCH   1   2
ATOM      2  C   UNL     1       2.351  -4.306  -1.385  0.00  0.00    -0.029 A 
ATOM      3  C   UNL     1       3.456  -3.541  -1.711  0.00  0.00    +0.007 A 
ATOM      4  C   UNL     1       4.257  -3.908  -2.773  0.00  0.00    +0.024 A 
ATOM      5  C   UNL     1       3.954  -5.045  -3.514  0.00  0.00    +0.033 A 
ATOM      6  C   UNL     1       2.848  -5.813  -3.184  0.00  0.00    -0.026 A 
ATOM      7  C   UNL     1       2.051  -5.439  -2.115  0.00  0.00    +0.010 A 
ATOM      8  C   UNL     1       2.494  -7.056  -3.957  0.00  0.00    +0.038 C 
ATOM      9  C   UNL     1       3.145  -7.030  -5.340  0.00  0.00    +0.024 C 
ATOM     10  C   UNL     1       4.642  -6.736  -5.179  0.00  0.00    +0.105 C 
ATOM     11  N   UNL     1       4.776  -5.396  -4.590  0.00  0.00    -0.333 N 
ATOM     12  C   UNL     1       5.754  -4.444  -5.122  0.00  0.00    +0.129 C 
ENDBRANCH   1   2
BRANCH   1  17
ATOM     13  C   UNL     1      -0.336   1.430  -0.282  0.00  0.00    -0.096 C 
ATOM     14  N   UNL     1      -0.223  -0.034  -0.290  0.00  0.00    +0.379 N 
ATOM     15  C   UNL     1       0.578  -0.456  -1.447  0.00  0.00    -0.064 C 
ATOM     16  C   UNL     1       0.680  -1.983  -1.467  0.00  0.00    +0.066 C 
ATOM     17  N   UNL     1       1.307  -2.446  -0.221  0.00  0.00    -0.298 NA
ATOM     18  C   UNL     1       0.530  -2.009   0.948  0.00  0.00    +0.066 C 
ATOM     19  C   UNL     1       0.429  -0.482   0.948  0.00  0.00    -0.064 C 
ATOM     20  H   UNL     1      -1.143  -0.442  -0.352  0.00  0.00    -0.082 HD
ENDBRANCH   1  17
BRANCH   1  21
ATOM     21  C   UNL     1       2.129  -4.348   1.085  0.00  0.00    +0.129 C 
BRANCH  21  22
ATOM     22  N   UNL     1       2.222  -5.809   1.115  0.00  0.00    -0.188 NA
ATOM     23  H   UNL     1       1.689  -6.342   0.504  0.00  0.00    +0.148 HD
BRANCH  22  24
ATOM     24  S   UNL     1       3.237  -6.552   2.192  0.00  0.00    +0.058 S 
ATOM     25  O   UNL     1       3.084  -7.951   1.995  0.00  0.00    -0.153 OA
ATOM     26  O   UNL     1       4.495  -5.901   2.080  0.00  0.00    -0.153 OA
BRANCH  24  27
ATOM     27  C   UNL     1       2.630  -6.202   3.808  0.00  0.00    +0.105 A 
ATOM     28  C   UNL     1       3.065  -5.075   4.481  0.00  0.00    +0.029 A 
ATOM     29  C   UNL     1       2.588  -4.799   5.748  0.00  0.00    +0.017 A 
ATOM     30  C   UNL     1       1.675  -5.651   6.344  0.00  0.00    +0.018 A 
ATOM     31  C   UNL     1       1.240  -6.778   5.670  0.00  0.00    +0.017 A 
ATOM     32  C   UNL     1       1.713  -7.050   4.401  0.00  0.00    +0.029 A 
ATOM     33 BR   UNL     1       1.023  -5.274   8.078  0.00  0.00    -0.050 Br
ENDBRANCH  24  27
ENDBRANCH  22  24
ENDBRANCH  21  22
ENDBRANCH   1  21
TORSDOF 6
