REMARK  Name = ZINC28052312
REMARK  5 active torsions:
REMARK  status: ('A' for Active; 'I' for Inactive)
REMARK    1  A    between atoms: C_1  and  C_2
REMARK    2  A    between atoms: C_10  and  C_12
REMARK    3  A    between atoms: C_15  and  N_18
REMARK    4  A    between atoms: C_19  and  C_21
REMARK    5  A    between atoms: C_25  and  C_28
REMARK                            x       y       z     vdW  Elec       q    Type
REMARK                         _______ _______ _______ _____ _____    ______ ____
ROOT
ATOM      1  C   UNL     1      -0.431   0.987   0.225  0.00  0.00    +0.069 C 
ATOM      2  C   UNL     1      -0.949   1.536   1.529  0.00  0.00    +0.087 A 
ATOM      3  C   UNL     1      -0.201   1.855   2.659  0.00  0.00    +0.049 A 
ATOM      4  C   UNL     1      -1.124   2.312   3.564  0.00  0.00    +0.226 A 
ATOM      5  O   UNL     1      -2.305   2.243   2.959  0.00  0.00    -0.339 OA
ATOM      6  N   UNL     1      -2.194   1.817   1.826  0.00  0.00    -0.081 NA
ATOM      7  N   UNL     1      -0.743   2.731   4.822  0.00  0.00    -0.286 N 
ATOM      8  C   UNL     1       0.591   2.960   5.063  0.00  0.00    +0.019 C 
ATOM      9  C   UNL     1       1.563   2.542   4.225  0.00  0.00    +0.024 C 
ATOM     10  C   UNL     1       1.262   1.768   2.957  0.00  0.00    +0.091 C 
ATOM     11  C   UNL     1       2.917   2.815   4.494  0.00  0.00    +0.162 C 
ATOM     12  O   UNL     1       3.767   2.410   3.726  0.00  0.00    -0.292 OA
ATOM     13  C   UNL     1       3.336   3.596   5.707  0.00  0.00    +0.088 C 
ATOM     14  C   UNL     1       2.199   4.543   6.107  0.00  0.00    +0.032 C 
ATOM     15  C   UNL     1       0.936   3.709   6.331  0.00  0.00    +0.059 C 
ATOM     16  H   UNL     1      -1.500   2.875   5.607  0.00  0.00    +0.155 HD
ENDROOT
BRANCH  14  17
ATOM     17  C   UNL     1       2.562   5.265   7.379  0.00  0.00    -0.043 A 
ATOM     18  C   UNL     1       2.811   4.548   8.534  0.00  0.00    +0.005 A 
ATOM     19  C   UNL     1       3.150   5.209   9.699  0.00  0.00    +0.020 A 
ATOM     20  C   UNL     1       3.229   6.590   9.712  0.00  0.00    +0.041 A 
ATOM     21  C   UNL     1       2.975   7.308   8.557  0.00  0.00    +0.020 A 
ATOM     22  C   UNL     1       2.642   6.645   7.391  0.00  0.00    +0.005 A 
ATOM     23 CL   UNL     1       3.649   7.422  11.177  0.00  0.00    -0.084 Cl
ENDBRANCH  14  17
BRANCH  10  24
ATOM     24  C   UNL     1       1.652   0.325   3.145  0.00  0.00    -0.035 A 
ATOM     25  C   UNL     1       1.065  -0.424   4.149  0.00  0.00    +0.006 A 
ATOM     26  C   UNL     1       1.417  -1.748   4.320  0.00  0.00    +0.023 A 
ATOM     27  C   UNL     1       2.369  -2.325   3.489  0.00  0.00    +0.033 A 
ATOM     28  C   UNL     1       2.960  -1.569   2.485  0.00  0.00    +0.023 A 
ATOM     29  C   UNL     1       2.600  -0.247   2.316  0.00  0.00    +0.006 A 
BRANCH  27  30
ATOM     30  N   UNL     1       2.732  -3.665   3.664  0.00  0.00    -0.286 N 
ATOM     31  C   UNL     1       3.995  -4.060   3.409  0.00  0.00    +0.214 C 
ATOM     32  O   UNL     1       4.841  -3.239   3.122  0.00  0.00    -0.276 OA
ATOM     33  C   UNL     1       4.357  -5.521   3.482  0.00  0.00    +0.109 C 
ATOM     34  H   UNL     1       1.986  -4.397   4.008  0.00  0.00    +0.155 HD
ENDBRANCH  27  30
ENDBRANCH  10  24
TORSDOF 3
