REMARK  Name = ZINC64059741
REMARK  4 active torsions:
REMARK  status: ('A' for Active; 'I' for Inactive)
REMARK    1  A    between atoms: C_1  and  C_2
REMARK    2  A    between atoms: C_3  and  C_16
REMARK    3  A    between atoms: C_4  and  C_8
REMARK    4  A    between atoms: N_18  and  C_19
REMARK                            x       y       z     vdW  Elec       q    Type
REMARK                         _______ _______ _______ _____ _____    ______ ____
ROOT
ATOM      1  C   UNL     1       0.571   0.924  -1.625  0.00  0.00    +0.089 C 
ATOM      2  C   UNL     1       0.299  -0.447  -1.062  0.00  0.00    +0.132 C 
ATOM      3  C   UNL     1      -0.922  -0.890  -0.718  0.00  0.00    +0.079 C 
ATOM      4  C   UNL     1      -0.764  -2.311  -0.209  0.00  0.00    +0.165 C 
ATOM      5  N   UNL     1       0.588  -2.683  -0.702  0.00  0.00    -0.143 NA
ATOM      6  O   UNL     1       1.249  -1.376  -0.847  0.00  0.00    -0.410 OA
ATOM      7  H   UNL     1       1.071  -3.262  -0.031  0.00  0.00    +0.168 HD
ENDROOT
BRANCH   4   8
ATOM      8  C   UNL     1      -1.818  -3.212  -0.800  0.00  0.00    +0.031 A 
ATOM      9  C   UNL     1      -1.766  -3.553  -2.141  0.00  0.00    +0.130 A 
ATOM     10  C   UNL     1      -2.735  -4.380  -2.682  0.00  0.00    +0.039 A 
ATOM     11  C   UNL     1      -3.755  -4.864  -1.884  0.00  0.00    +0.004 A 
ATOM     12  C   UNL     1      -3.807  -4.523  -0.545  0.00  0.00    +0.020 A 
ATOM     13  C   UNL     1      -2.836  -3.701  -0.002  0.00  0.00    +0.049 A 
ATOM     14 CL   UNL     1      -2.898  -3.279   1.681  0.00  0.00    -0.083 Cl
ATOM     15  F   UNL     1      -0.769  -3.079  -2.920  0.00  0.00    -0.205 F 
ENDBRANCH   4   8
BRANCH   3  16
ATOM     16  C   UNL     1      -2.136  -0.164  -0.814  0.00  0.00    +0.249 C 
ATOM     17  O   UNL     1      -2.147   0.939  -1.328  0.00  0.00    -0.270 OA
ATOM     18  N   UNL     1      -3.279  -0.696  -0.335  0.00  0.00    -0.282 N 
ATOM     19  H   UNL     1      -3.258  -1.540   0.142  0.00  0.00    +0.155 HD
BRANCH  18  20
ATOM     20  C   UNL     1      -4.495  -0.029  -0.526  0.00  0.00    +0.036 A 
ATOM     21  C   UNL     1      -4.533   1.361  -0.519  0.00  0.00    +0.027 A 
ATOM     22  C   UNL     1      -5.729   2.024  -0.707  0.00  0.00    +0.050 A 
ATOM     23  C   UNL     1      -6.898   1.304  -0.904  0.00  0.00    +0.157 A 
ATOM     24  C   UNL     1      -6.861  -0.090  -0.912  0.00  0.00    +0.089 A 
ATOM     25  C   UNL     1      -5.659  -0.754  -0.728  0.00  0.00    +0.052 A 
ATOM     26  N   UNL     1      -8.169  -0.522  -1.128  0.00  0.00    -0.288 N 
ATOM     27  H   UNL     1      -8.467  -1.443  -1.185  0.00  0.00    +0.172 HD
ATOM     28  C   UNL     1      -8.944   0.575  -1.243  0.00  0.00    +0.419 A 
ATOM     29  O   UNL     1     -10.145   0.569  -1.438  0.00  0.00    -0.223 OA
ATOM     30  O   UNL     1      -8.186   1.674  -1.109  0.00  0.00    -0.408 OA
ENDBRANCH  18  20
ENDBRANCH   3  16
TORSDOF 3
