REMARK  Name = ZINC36760977
REMARK  7 active torsions:
REMARK  status: ('A' for Active; 'I' for Inactive)
REMARK    1  A    between atoms: C_1  and  C_2
REMARK    2  A    between atoms: C_2  and  C_3
REMARK    3  A    between atoms: C_3  and  C_5
REMARK    4  A    between atoms: C_3  and  N_15
REMARK    5  A    between atoms: C_16  and  C_18
REMARK    6  A    between atoms: C_18  and  N_19
REMARK    7  A    between atoms: C_25  and  C_28
REMARK                            x       y       z     vdW  Elec       q    Type
REMARK                         _______ _______ _______ _____ _____    ______ ____
ROOT
ATOM      1  N   UNL     1       2.125  -0.091  -1.209  0.00  0.00    -0.311 N 
ATOM      2  C   UNL     1       2.487   1.134  -1.640  0.00  0.00    +0.231 C 
ATOM      3  O   UNL     1       1.649   1.899  -2.066  0.00  0.00    -0.274 OA
ATOM      4  H   UNL     1       2.795  -0.703  -0.868  0.00  0.00    +0.149 HD
ENDROOT
BRANCH   1   5
ATOM      5  C   UNL     1       0.718  -0.497  -1.257  0.00  0.00    +0.079 C 
BRANCH   5   6
ATOM      6  C   UNL     1       0.630  -2.023  -1.329  0.00  0.00    -0.010 C 
ATOM      7  C   UNL     1       1.295  -2.631  -0.092  0.00  0.00    +0.012 C 
ATOM      8  C   UNL     1       1.208  -4.157  -0.164  0.00  0.00    -0.010 C 
ATOM      9  C   UNL     1       1.924  -4.650  -1.423  0.00  0.00    +0.007 C 
ATOM     10  C   UNL     1       1.259  -4.043  -2.659  0.00  0.00    -0.010 C 
ATOM     11  C   UNL     1       1.347  -2.517  -2.587  0.00  0.00    +0.012 C 
ATOM     12  C   UNL     1      -0.210  -4.467  -2.709  0.00  0.00    +0.007 C 
ATOM     13  C   UNL     1      -0.927  -3.974  -1.450  0.00  0.00    -0.010 C 
ATOM     14  C   UNL     1      -0.262  -4.581  -0.213  0.00  0.00    +0.007 C 
ATOM     15  C   UNL     1      -0.839  -2.448  -1.378  0.00  0.00    +0.012 C 
ENDBRANCH   5   6
BRANCH   5  17
ATOM     16  C   UNL     1      -0.019   1.526   0.010  0.00  0.00    +0.006 C 
ATOM     17  C   UNL     1       0.002  -0.004   0.002  0.00  0.00    +0.019 C 
ENDBRANCH   5  17
ENDBRANCH   1   5
BRANCH   2  18
ATOM     18  C   UNL     1       3.934   1.552  -1.591  0.00  0.00    +0.213 C 
BRANCH  18  19
ATOM     19  N   UNL     1       4.066   2.915  -2.110  0.00  0.00    -0.215 N 
ATOM     20  C   UNL     1       4.282   3.215  -3.408  0.00  0.00    +0.247 C 
ATOM     21  O   UNL     1       4.398   2.438  -4.331  0.00  0.00    -0.273 OA
ATOM     22  C   UNL     1       4.347   4.724  -3.468  0.00  0.00    +0.113 C 
ATOM     23  C   UNL     1       3.236   5.269  -4.360  0.00  0.00    +0.035 C 
ATOM     24  C   UNL     1       3.301   6.798  -4.383  0.00  0.00    +0.006 C 
ATOM     25  C   UNL     1       4.666   7.241  -4.912  0.00  0.00    -0.014 C 
ATOM     26  C   UNL     1       5.768   6.707  -3.994  0.00  0.00    +0.006 C 
ATOM     27  C   UNL     1       5.713   5.178  -3.970  0.00  0.00    +0.035 C 
ATOM     28  C   UNL     1       4.728   8.770  -4.946  0.00  0.00    +0.007 C 
ATOM     29  N   UNL     1       4.143   5.146  -2.076  0.00  0.00    -0.285 N 
ATOM     30  C   UNL     1       3.983   4.019  -1.357  0.00  0.00    +0.310 C 
ATOM     31  O   UNL     1       3.788   4.005  -0.157  0.00  0.00    -0.252 OA
ATOM     32  H   UNL     1       4.124   6.056  -1.742  0.00  0.00    +0.151 HD
ENDBRANCH  18  19
ENDBRANCH   2  18
TORSDOF 5
