REMARK  Name = ZINC20218966
REMARK  6 active torsions:
REMARK  status: ('A' for Active; 'I' for Inactive)
REMARK    1  A    between atoms: C_3  and  C_6
REMARK    2  A    between atoms: C_6  and  N_7
REMARK    3  A    between atoms: N_11  and  C_20
REMARK    4  A    between atoms: C_20  and  C_21
REMARK    5  A    between atoms: C_21  and  N_22
REMARK    6  A    between atoms: C_26  and  C_29
REMARK                            x       y       z     vdW  Elec       q    Type
REMARK                         _______ _______ _______ _____ _____    ______ ____
ROOT
ATOM      1  N   UNL     1      -3.705  -6.400   2.312  0.00  0.00    -0.318 N 
ATOM      2  C   UNL     1      -3.087  -6.046   1.126  0.00  0.00    +0.185 A 
ATOM      3  C   UNL     1      -1.792  -5.339   1.153  0.00  0.00    +0.292 A 
ATOM      4  O   UNL     1      -1.262  -5.064   2.213  0.00  0.00    -0.264 OA
ATOM      5  N   UNL     1      -1.206  -4.997  -0.015  0.00  0.00    -0.302 N 
ATOM      6  C   UNL     1      -1.832  -5.329  -1.204  0.00  0.00    +0.071 A 
ATOM      7  C   UNL     1      -1.245  -4.992  -2.420  0.00  0.00    +0.029 A 
ATOM      8  C   UNL     1      -1.870  -5.324  -3.602  0.00  0.00    +0.022 A 
ATOM      9  C   UNL     1      -3.087  -5.995  -3.591  0.00  0.00    +0.043 A 
ATOM     10  C   UNL     1      -3.684  -6.337  -2.400  0.00  0.00    +0.050 A 
ATOM     11  C   UNL     1      -3.062  -6.007  -1.187  0.00  0.00    +0.091 A 
ATOM     12  N   UNL     1      -3.647  -6.343  -0.018  0.00  0.00    -0.225 NA
ATOM     13 CL   UNL     1      -3.858  -6.404  -5.091  0.00  0.00    -0.083 Cl
ATOM     14  H   UNL     1      -3.234  -6.151   3.274  0.00  0.00    +0.148 HD
ENDROOT
BRANCH   1  15
ATOM     15  C   UNL     1      -4.988  -7.108   2.286  0.00  0.00    +0.177 C 
BRANCH  15  18
ATOM     16  C   UNL     1      -6.390  -7.197   5.693  0.00  0.00    +0.041 A 
ATOM     17  C   UNL     1      -6.208  -6.558   4.445  0.00  0.00    +0.046 A 
ATOM     18  C   UNL     1      -5.443  -7.375   3.697  0.00  0.00    +0.122 A 
ATOM     19  O   UNL     1      -5.159  -8.470   4.421  0.00  0.00    -0.466 OA
ATOM     20  C   UNL     1      -5.726  -8.365   5.634  0.00  0.00    +0.195 A 
ENDBRANCH  15  18
ENDBRANCH   1  15
BRANCH   5  21
ATOM     21  C   UNL     1       0.077  -4.290  -0.023  0.00  0.00    +0.144 C 
BRANCH  21  22
ATOM     22  C   UNL     1      -0.173  -2.780  -0.012  0.00  0.00    +0.124 C 
BRANCH  22  23
ATOM     23  N   UNL     1       1.111  -2.073  -0.020  0.00  0.00    -0.326 N 
ATOM     24  C   UNL     1       1.138  -0.683  -0.013  0.00  0.00    +0.137 A 
ATOM     25  C   UNL     1       2.361  -0.017  -0.021  0.00  0.00    +0.081 A 
ATOM     26  C   UNL     1       2.373   1.367  -0.013  0.00  0.00    +0.037 A 
ATOM     27  C   UNL     1       1.159   2.040   0.002  0.00  0.00    +0.074 A 
ATOM     28  C   UNL     1      -0.016   1.316   0.009  0.00  0.00    +0.125 A 
ATOM     29  N   UNL     1       0.002  -0.004   0.002  0.00  0.00    -0.238 NA
ATOM     30 CL   UNL     1       3.850  -0.910  -0.039  0.00  0.00    -0.080 Cl
ATOM     31  H   UNL     1       2.052  -2.642  -0.032  0.00  0.00    +0.148 HD
BRANCH  27  32
ATOM     32  C   UNL     1       1.124   3.547   0.010  0.00  0.00    +0.419 C 
ATOM     33  F   UNL     1      -0.205   3.982   0.025  0.00  0.00    -0.166 F 
ATOM     34  F   UNL     1       1.783   4.022   1.149  0.00  0.00    -0.166 F 
ATOM     35  F   UNL     1       1.762   4.034  -1.136  0.00  0.00    -0.166 F 
ENDBRANCH  27  32
ENDBRANCH  22  23
ENDBRANCH  21  22
ENDBRANCH   5  21
TORSDOF 6
