REMARK  Name = ZINC38903995
REMARK  10 active torsions:
REMARK  status: ('A' for Active; 'I' for Inactive)
REMARK    1  A    between atoms: C_1  and  C_2
REMARK    2  A    between atoms: C_2  and  C_3
REMARK    3  A    between atoms: C_3  and  C_4
REMARK    4  A    between atoms: C_6  and  C_18
REMARK    5  A    between atoms: C_8  and  C_16
REMARK    6  A    between atoms: C_9  and  N_15
REMARK    7  A    between atoms: C_20  and  O_26
REMARK    8  A    between atoms: C_22  and  O_24
REMARK    9  A    between atoms: O_24  and  C_25
REMARK   10  A    between atoms: O_26  and  C_27
REMARK                            x       y       z     vdW  Elec       q    Type
REMARK                         _______ _______ _______ _____ _____    ______ ____
ROOT
ATOM      1  C   UNL     1       0.739  -2.004  -1.265  0.00  0.00    +0.069 C 
ATOM      2  C   UNL     1      -0.135  -2.762  -1.882  0.00  0.00    +0.030 C 
ATOM      3  C   UNL     1      -1.270  -2.477  -2.828  0.00  0.00    +0.098 C 
ATOM      4  C   UNL     1      -1.180  -3.541  -3.905  0.00  0.00    +0.097 C 
ATOM      5  C   UNL     1      -0.337  -4.590  -3.798  0.00  0.00    +0.195 C 
ATOM      6  O   UNL     1       0.524  -4.828  -2.792  0.00  0.00    -0.448 OA
ATOM      7  C   UNL     1       0.266  -4.197  -1.536  0.00  0.00    +0.343 C 
ATOM      8  N   UNL     1       1.490  -3.990  -0.756  0.00  0.00    -0.138 NA
ATOM      9  N   UNL     1       1.668  -2.771  -0.639  0.00  0.00    -0.155 NA
ENDROOT
BRANCH   3  10
ATOM     10  C   UNL     1      -1.113  -1.105  -3.432  0.00  0.00    -0.028 A 
ATOM     11  C   UNL     1       0.009  -0.806  -4.181  0.00  0.00    +0.050 A 
ATOM     12  C   UNL     1       0.156   0.456  -4.738  0.00  0.00    +0.124 A 
ATOM     13  C   UNL     1      -0.824   1.418  -4.543  0.00  0.00    +0.091 A 
ATOM     14  C   UNL     1      -1.948   1.115  -3.790  0.00  0.00    +0.124 A 
ATOM     15  C   UNL     1      -2.093  -0.150  -3.240  0.00  0.00    +0.050 A 
BRANCH  14  16
ATOM     16  O   UNL     1      -2.910   2.055  -3.596  0.00  0.00    -0.495 OA
ATOM     17  C   UNL     1      -2.697   3.335  -4.197  0.00  0.00    +0.277 C 
ENDBRANCH  14  16
BRANCH  12  18
ATOM     18  O   UNL     1       1.260   0.750  -5.475  0.00  0.00    -0.495 OA
ATOM     19  C   UNL     1       1.345   2.069  -6.018  0.00  0.00    +0.277 C 
ENDBRANCH  12  18
ENDBRANCH   3  10
BRANCH   5  20
ATOM     20  N   UNL     1      -0.361  -5.506  -4.818  0.00  0.00    -0.329 N 
ATOM     21  H   UNL     1      -0.964  -5.382  -5.568  0.00  0.00    +0.145 HD
ATOM     22  H   UNL     1       0.225  -6.279  -4.790  0.00  0.00    +0.145 HD
ENDBRANCH   5  20
BRANCH   4  23
ATOM     23  C   UNL     1      -2.010  -3.431  -5.066  0.00  0.00    +0.101 C 
ATOM     24  N   UNL     1      -2.670  -3.343  -5.987  0.00  0.00    -0.191 NA
ENDBRANCH   4  23
BRANCH   1  25
ATOM     25  C   UNL     1       0.718  -0.497  -1.257  0.00  0.00    +0.057 C 
BRANCH  25  27
ATOM     26  C   UNL     1      -0.019   1.526   0.010  0.00  0.00    +0.004 C 
ATOM     27  C   UNL     1       0.002  -0.004   0.002  0.00  0.00    +0.003 C 
ENDBRANCH  25  27
ENDBRANCH   1  25
TORSDOF 7
