REMARK  Name = ZINC00633872
REMARK  11 active torsions:
REMARK  status: ('A' for Active; 'I' for Inactive)
REMARK    1  A    between atoms: C_1  and  C_2
REMARK    2  A    between atoms: C_2  and  C_3
REMARK    3  A    between atoms: C_6  and  N_9
REMARK    4  A    between atoms: C_10  and  C_12
REMARK    5  A    between atoms: C_12  and  S_13
REMARK    6  A    between atoms: S_13  and  C_14
REMARK    7  A    between atoms: C_17  and  C_20
REMARK    8  A    between atoms: N_18  and  C_19
REMARK    9  A    between atoms: C_20  and  C_21
REMARK   10  A    between atoms: N_23  and  C_24
REMARK   11  A    between atoms: C_27  and  C_30
REMARK                            x       y       z     vdW  Elec       q    Type
REMARK                         _______ _______ _______ _____ _____    ______ ____
ROOT
ATOM      1  C   UNL     1      -1.000   3.435  -2.834  0.00  0.00    +0.192 A 
ATOM      2  N   UNL     1      -1.809   2.402  -2.874  0.00  0.00    -0.122 NA
ATOM      3  N   UNL     1      -1.500   1.569  -1.945  0.00  0.00    -0.133 NA
ATOM      4  C   UNL     1      -0.490   2.022  -1.256  0.00  0.00    +0.143 A 
ATOM      5  N   UNL     1      -0.133   3.225  -1.800  0.00  0.00    -0.309 N 
ATOM      6  C   UNL     1       0.954   4.105  -1.364  0.00  0.00    +0.152 C 
ENDROOT
BRANCH   1   7
ATOM      7  S   UNL     1      -1.028   4.830  -3.910  0.00  0.00    -0.077 S 
BRANCH   7   8
ATOM      8  C   UNL     1      -2.419   4.377  -4.976  0.00  0.00    +0.173 C 
BRANCH   8  10
ATOM      9  N   UNL     1      -3.625   5.332  -6.912  0.00  0.00    -0.285 N 
ATOM     10  C   UNL     1      -2.636   5.455  -6.005  0.00  0.00    +0.227 C 
ATOM     11  O   UNL     1      -1.920   6.434  -6.017  0.00  0.00    -0.275 OA
ATOM     12  H   UNL     1      -4.155   4.520  -6.946  0.00  0.00    +0.155 HD
BRANCH   9  16
ATOM     13  C   UNL     1      -4.409   8.440  -9.574  0.00  0.00    -0.048 A 
ATOM     14  C   UNL     1      -3.108   8.174  -9.187  0.00  0.00    +0.005 A 
ATOM     15  C   UNL     1      -2.845   7.145  -8.305  0.00  0.00    +0.023 A 
ATOM     16  C   UNL     1      -3.888   6.376  -7.806  0.00  0.00    +0.033 A 
ATOM     17  C   UNL     1      -5.193   6.642  -8.201  0.00  0.00    +0.023 A 
ATOM     18  C   UNL     1      -5.450   7.677  -9.079  0.00  0.00    +0.005 A 
BRANCH  13  20
ATOM     19  C   UNL     1      -4.645   9.032 -11.970  0.00  0.00    +0.009 C 
ATOM     20  C   UNL     1      -4.692   9.564 -10.537  0.00  0.00    +0.032 C 
ENDBRANCH  13  20
ENDBRANCH   9  16
ENDBRANCH   8  10
ENDBRANCH   7   8
ENDBRANCH   1   7
BRANCH   4  21
ATOM     21  C   UNL     1       0.166   1.343  -0.082  0.00  0.00    +0.172 C 
BRANCH  21  22
ATOM     22  C   UNL     1      -0.508   1.780   1.193  0.00  0.00    +0.225 C 
ATOM     23  O   UNL     1      -1.430   2.567   1.152  0.00  0.00    -0.275 OA
ATOM     24  N   UNL     1      -0.085   1.298   2.378  0.00  0.00    -0.285 N 
ATOM     25  H   UNL     1       0.698   0.728   2.419  0.00  0.00    +0.155 HD
BRANCH  24  26
ATOM     26  C   UNL     1      -0.777   1.621   3.551  0.00  0.00    +0.033 A 
ATOM     27  C   UNL     1      -0.088   1.761   4.749  0.00  0.00    +0.023 A 
ATOM     28  C   UNL     1      -0.773   2.083   5.904  0.00  0.00    +0.005 A 
ATOM     29  C   UNL     1      -2.145   2.256   5.871  0.00  0.00    -0.050 A 
ATOM     30  C   UNL     1      -2.834   2.112   4.681  0.00  0.00    +0.005 A 
ATOM     31  C   UNL     1      -2.154   1.795   3.521  0.00  0.00    +0.023 A 
ATOM     32  C   UNL     1      -2.890   2.603   7.134  0.00  0.00    +0.044 C 
ENDBRANCH  24  26
ENDBRANCH  21  22
ENDBRANCH   4  21
TORSDOF 8
