REMARK  Name = ZINC39672197
REMARK  6 active torsions:
REMARK  status: ('A' for Active; 'I' for Inactive)
REMARK    1  A    between atoms: C_1  and  N_2
REMARK    2  A    between atoms: C_10  and  C_12
REMARK    3  A    between atoms: C_12  and  N_13
REMARK    4  A    between atoms: C_14  and  C_16
REMARK    5  A    between atoms: C_27  and  C_29
REMARK    6  A    between atoms: C_29  and  C_30
REMARK                            x       y       z     vdW  Elec       q    Type
REMARK                         _______ _______ _______ _____ _____    ______ ____
ROOT
ATOM      1  C   UNL     1       7.166  -3.753   2.425  0.00  0.00    +0.100 C 
ATOM      2  C   UNL     1       6.300  -4.650   3.338  0.00  0.00    +0.121 C 
ATOM      3  N   UNL     1       6.922  -5.992   3.243  0.00  0.00    -0.300 N 
ATOM      4  C   UNL     1       8.380  -5.722   3.228  0.00  0.00    +0.115 C 
ATOM      5  C   UNL     1       8.531  -4.458   2.359  0.00  0.00    -0.004 C 
ATOM      6  C   UNL     1       9.621  -3.554   2.926  0.00  0.00    -0.010 C 
ATOM      7  C   UNL     1      10.977  -4.253   2.796  0.00  0.00    -0.082 C 
ATOM      8  N   UNL     1      11.244  -4.548   1.383  0.00  0.00    +0.379 N 
ATOM      9  C   UNL     1      10.244  -5.492   0.871  0.00  0.00    -0.082 C 
ATOM     10  C   UNL     1       8.857  -4.845   0.919  0.00  0.00    -0.010 C 
ATOM     11  C   UNL     1       6.302  -7.188   3.184  0.00  0.00    +0.220 C 
ATOM     12  O   UNL     1       6.956  -8.206   3.109  0.00  0.00    -0.275 OA
ATOM     13  H   UNL     1      11.202  -3.692   0.849  0.00  0.00    -0.086 HD
ATOM     14  H   UNL     1      12.164  -4.952   1.293  0.00  0.00    -0.086 HD
ENDROOT
BRANCH   1  16
ATOM     15  N   UNL     1       6.764  -2.564   0.294  0.00  0.00    -0.311 N 
ATOM     16  C   UNL     1       6.556  -3.660   1.050  0.00  0.00    +0.218 C 
ATOM     17  O   UNL     1       5.878  -4.571   0.624  0.00  0.00    -0.275 OA
ATOM     18  H   UNL     1       7.306  -1.835   0.635  0.00  0.00    +0.149 HD
BRANCH  15  19
ATOM     19  C   UNL     1       6.171  -2.473  -1.043  0.00  0.00    +0.139 C 
BRANCH  19  29
ATOM     20  C   UNL     1       8.973   2.646  -3.962  0.00  0.00    +0.129 C 
ATOM     21  N   UNL     1       7.625   2.469  -3.416  0.00  0.00    -0.333 N 
ATOM     22  C   UNL     1       6.642   3.559  -3.484  0.00  0.00    +0.105 C 
ATOM     23  C   UNL     1       5.951   3.654  -2.118  0.00  0.00    +0.024 C 
ATOM     24  C   UNL     1       5.192   2.354  -1.857  0.00  0.00    +0.038 C 
ATOM     25  C   UNL     1       6.094   1.166  -2.064  0.00  0.00    -0.026 A 
ATOM     26  C   UNL     1       7.250   1.257  -2.826  0.00  0.00    +0.033 A 
ATOM     27  C   UNL     1       8.056   0.139  -3.007  0.00  0.00    +0.024 A 
ATOM     28  C   UNL     1       7.706  -1.066  -2.430  0.00  0.00    +0.007 A 
ATOM     29  C   UNL     1       6.553  -1.159  -1.673  0.00  0.00    -0.030 A 
ATOM     30  C   UNL     1       5.753  -0.044  -1.483  0.00  0.00    +0.010 A 
ENDBRANCH  19  29
ENDBRANCH  15  19
ENDBRANCH   1  16
BRANCH  11  31
ATOM     31  C   UNL     1       4.797  -7.258   3.212  0.00  0.00    +0.131 C 
BRANCH  31  32
ATOM     32  C   UNL     1       4.361  -8.699   3.135  0.00  0.00    -0.039 A 
ATOM     33  C   UNL     1       4.140  -9.289   1.904  0.00  0.00    +0.005 A 
ATOM     34  C   UNL     1       3.740 -10.609   1.832  0.00  0.00    +0.020 A 
ATOM     35  C   UNL     1       3.559 -11.341   2.992  0.00  0.00    +0.041 A 
ATOM     36  C   UNL     1       3.780 -10.750   4.224  0.00  0.00    +0.020 A 
ATOM     37  C   UNL     1       4.186  -9.431   4.294  0.00  0.00    +0.005 A 
ATOM     38 CL   UNL     1       3.056 -13.000   2.903  0.00  0.00    -0.084 Cl
ENDBRANCH  31  32
ENDBRANCH  11  31
TORSDOF 5
