REMARK  Name = ZINC60343618
REMARK  10 active torsions:
REMARK  status: ('A' for Active; 'I' for Inactive)
REMARK    1  A    between atoms: C_1  and  C_2
REMARK    2  A    between atoms: C_2  and  C_23
REMARK    3  A    between atoms: N_5  and  C_9
REMARK    4  A    between atoms: C_9  and  C_10
REMARK    5  A    between atoms: C_10  and  C_12
REMARK    6  A    between atoms: C_10  and  O_22
REMARK    7  A    between atoms: C_12  and  N_13
REMARK    8  A    between atoms: N_13  and  C_14
REMARK    9  A    between atoms: N_13  and  C_15
REMARK   10  A    between atoms: C_15  and  C_16
REMARK                            x       y       z     vdW  Elec       q    Type
REMARK                         _______ _______ _______ _____ _____    ______ ____
ROOT
ATOM      1  C   UNL     1       0.452   1.317   0.585  0.00  0.00    +0.047 C 
ATOM      2  C   UNL     1       0.378  -0.209   0.500  0.00  0.00    +0.135 C 
ATOM      3  C   UNL     1      -1.065  -0.674   0.517  0.00  0.00    +0.251 C 
ATOM      4  O   UNL     1      -1.928  -0.413  -0.293  0.00  0.00    -0.272 OA
ATOM      5  N   UNL     1      -1.187  -1.440   1.619  0.00  0.00    -0.222 N 
ATOM      6  C   UNL     1      -0.035  -1.522   2.294  0.00  0.00    +0.310 C 
ATOM      7  O   UNL     1       0.103  -2.157   3.321  0.00  0.00    -0.252 OA
ATOM      8  N   UNL     1       0.955  -0.824   1.708  0.00  0.00    -0.281 N 
ATOM      9  H   UNL     1       1.869  -0.742   2.020  0.00  0.00    +0.152 HD
ENDROOT
BRANCH   2  10
ATOM     10  C   UNL     1       1.083  -0.705  -0.736  0.00  0.00    -0.012 A 
ATOM     11  C   UNL     1       0.382  -0.856  -1.917  0.00  0.00    +0.010 A 
ATOM     12  C   UNL     1       1.025  -1.311  -3.053  0.00  0.00    +0.050 A 
ATOM     13  C   UNL     1       2.377  -1.618  -3.009  0.00  0.00    +0.162 A 
ATOM     14  C   UNL     1       3.083  -1.463  -1.822  0.00  0.00    +0.162 A 
ATOM     15  C   UNL     1       2.432  -1.002  -0.688  0.00  0.00    +0.055 A 
ATOM     16  O   UNL     1       4.412  -1.751  -1.760  0.00  0.00    -0.485 OA
ATOM     17  C   UNL     1       4.947  -2.557  -2.816  0.00  0.00    +0.270 C 
ATOM     18  C   UNL     1       4.426  -2.007  -4.151  0.00  0.00    +0.270 C 
ATOM     19  O   UNL     1       2.996  -2.069  -4.134  0.00  0.00    -0.485 OA
ENDBRANCH   2  10
BRANCH   5  20
ATOM     20  C   UNL     1      -2.429  -2.100   2.029  0.00  0.00    +0.147 C 
BRANCH  20  21
ATOM     21  C   UNL     1      -2.496  -3.495   1.403  0.00  0.00    +0.116 C 
BRANCH  21  22
ATOM     22  O   UNL     1      -1.445  -4.305   1.933  0.00  0.00    -0.392 OA
ATOM     23  H   UNL     1      -1.483  -4.421   2.892  0.00  0.00    +0.210 HD
ENDBRANCH  21  22
BRANCH  21  24
ATOM     24  C   UNL     1      -3.847  -4.135   1.728  0.00  0.00    -0.046 C 
BRANCH  24  25
ATOM     25  N   UNL     1      -3.939  -5.445   1.069  0.00  0.00    +0.382 N 
ATOM     26  C   UNL     1      -5.170  -6.123   1.496  0.00  0.00    -0.096 C 
ATOM     27  H   UNL     1      -3.140  -6.006   1.322  0.00  0.00    -0.082 HD
BRANCH  25  28
ATOM     28  C   UNL     1      -3.964  -5.258  -0.389  0.00  0.00    -0.043 C 
BRANCH  28  29
ATOM     29  C   UNL     1      -3.934  -6.604  -1.067  0.00  0.00    -0.064 A 
ATOM     30  C   UNL     1      -2.724  -7.189  -1.390  0.00  0.00    +0.002 A 
ATOM     31  C   UNL     1      -2.697  -8.423  -2.012  0.00  0.00    +0.000 A 
ATOM     32  C   UNL     1      -3.881  -9.072  -2.312  0.00  0.00    +0.000 A 
ATOM     33  C   UNL     1      -5.091  -8.487  -1.989  0.00  0.00    +0.000 A 
ATOM     34  C   UNL     1      -5.117  -7.255  -1.363  0.00  0.00    +0.002 A 
ENDBRANCH  28  29
ENDBRANCH  25  28
ENDBRANCH  24  25
ENDBRANCH  21  24
ENDBRANCH  20  21
ENDBRANCH   5  20
TORSDOF 8
