REMARK  Name = ZINC16571565
REMARK  10 active torsions:
REMARK  status: ('A' for Active; 'I' for Inactive)
REMARK    1  A    between atoms: C_1  and  C_2
REMARK    2  A    between atoms: C_2  and  C_3
REMARK    3  A    between atoms: C_6  and  C_9
REMARK    4  A    between atoms: N_11  and  C_12
REMARK    5  A    between atoms: C_12  and  C_14
REMARK    6  A    between atoms: C_12  and  C_19
REMARK    7  A    between atoms: C_14  and  C_16
REMARK    8  A    between atoms: C_14  and  C_17
REMARK    9  A    between atoms: C_17  and  C_18
REMARK   10  A    between atoms: C_25  and  C_27
REMARK                            x       y       z     vdW  Elec       q    Type
REMARK                         _______ _______ _______ _____ _____    ______ ____
ROOT
ATOM      1  C   UNL     1      -3.048   4.595   6.500  0.00  0.00    +0.162 C 
ENDROOT
BRANCH   1   2
ATOM      2  C   UNL     1      -2.961   6.098   6.570  0.00  0.00    +0.239 C 
ATOM      3  O   UNL     1      -2.383   6.713   5.700  0.00  0.00    -0.273 OA
ATOM      4  N   UNL     1      -3.526   6.758   7.601  0.00  0.00    -0.262 N 
ATOM      5  C   UNL     1      -3.446   8.143   7.666  0.00  0.00    +0.188 A 
ATOM      6  N   UNL     1      -2.866   9.003   6.838  0.00  0.00    -0.125 NA
ATOM      7  N   UNL     1      -2.889  10.247   7.046  0.00  0.00    -0.140 NA
ATOM      8  C   UNL     1      -3.486  10.769   8.110  0.00  0.00    +0.134 A 
ATOM      9  S   UNL     1      -4.089   9.276   8.894  0.00  0.00    -0.030 S 
ATOM     10  H   UNL     1      -3.989   6.265   8.297  0.00  0.00    +0.157 HD
BRANCH   8  11
ATOM     11  C   UNL     1      -3.617  12.181   8.529  0.00  0.00    +0.009 A 
ATOM     12  C   UNL     1      -4.303  12.504   9.701  0.00  0.00    +0.012 A 
ATOM     13  C   UNL     1      -4.417  13.822  10.089  0.00  0.00    +0.016 A 
ATOM     14  C   UNL     1      -3.862  14.826   9.314  0.00  0.00    +0.018 A 
ATOM     15  C   UNL     1      -3.184  14.512   8.148  0.00  0.00    +0.016 A 
ATOM     16  C   UNL     1      -3.059  13.197   7.752  0.00  0.00    +0.012 A 
ATOM     17 BR   UNL     1      -4.030  16.632   9.849  0.00  0.00    -0.050 Br
ENDBRANCH   8  11
ENDBRANCH   1   2
BRANCH   1  20
ATOM     18  C   UNL     1      -2.707   2.942   4.742  0.00  0.00    +0.245 C 
ATOM     19  O   UNL     1      -3.588   2.271   5.242  0.00  0.00    -0.270 OA
ATOM     20  N   UNL     1      -2.362   4.122   5.295  0.00  0.00    -0.300 N 
ATOM     21  H   UNL     1      -1.659   4.657   4.896  0.00  0.00    +0.150 HD
BRANCH  18  25
ATOM     22  C   UNL     1      -0.718   1.572   1.248  0.00  0.00    -0.048 A 
ATOM     23  C   UNL     1      -0.357   2.780   1.817  0.00  0.00    +0.004 A 
ATOM     24  C   UNL     1      -1.003   3.234   2.948  0.00  0.00    +0.013 A 
ATOM     25  C   UNL     1      -2.015   2.465   3.526  0.00  0.00    +0.037 A 
ATOM     26  C   UNL     1      -2.370   1.244   2.950  0.00  0.00    +0.013 A 
ATOM     27  C   UNL     1      -1.720   0.805   1.816  0.00  0.00    +0.004 A 
BRANCH  22  29
ATOM     28  C   UNL     1      -0.753   1.593  -1.232  0.00  0.00    +0.009 C 
ATOM     29  C   UNL     1      -0.013   1.086   0.008  0.00  0.00    +0.032 C 
ENDBRANCH  22  29
ENDBRANCH  18  25
ENDBRANCH   1  20
BRANCH   1  30
ATOM     30  C   UNL     1      -2.384   3.987   7.737  0.00  0.00    +0.015 C 
ATOM     31  C   UNL     1      -2.472   2.461   7.665  0.00  0.00    +0.010 C 
BRANCH  30  32
ATOM     32  C   UNL     1      -0.915   4.411   7.787  0.00  0.00    +0.002 C 
ATOM     33  C   UNL     1      -0.283   3.907   9.087  0.00  0.00    +0.004 C 
ENDBRANCH  30  32
ENDBRANCH   1  30
TORSDOF 7
