REMARK  Name = ZINC65506932
REMARK  6 active torsions:
REMARK  status: ('A' for Active; 'I' for Inactive)
REMARK    1  A    between atoms: C_1  and  C_2
REMARK    2  A    between atoms: C_4  and  CA_9
REMARK    3  A    between atoms: C_5  and  C_8
REMARK    4  A    between atoms: CA_9  and  C_11
REMARK    5  A    between atoms: CA_9  and  N_14
REMARK    6  A    between atoms: C_15  and  CA_17
REMARK                            x       y       z     vdW  Elec       q    Type
REMARK                         _______ _______ _______ _____ _____    ______ ____
ROOT
ATOM      1  N   UNL     1       0.178   1.107  -3.000  0.00  0.00    -0.297 N 
ATOM      2  C   UNL     1       0.204   1.521  -4.282  0.00  0.00    +0.240 C 
ATOM      3  O   UNL     1       0.246   0.708  -5.181  0.00  0.00    -0.273 OA
ATOM      4  H   UNL     1       0.145   1.758  -2.281  0.00  0.00    +0.150 HD
ENDROOT
BRANCH   2   5
ATOM      5  CA  UNL     1       0.182   2.994  -4.599  0.00  0.00    +0.190 C 
ATOM      6  C   UNL     1      -1.104   3.615  -4.101  0.00  0.00    +0.016 C 
ATOM      7  C   UNL     1      -1.729   4.110  -5.194  0.00  0.00    -0.004 A 
ATOM      8  C   UNL     1      -3.000   4.821  -5.375  0.00  0.00    +0.010 A 
ATOM      9  C   UNL     1      -3.369   5.198  -6.620  0.00  0.00    +0.001 A 
ATOM     10  C   UNL     1      -2.569   4.929  -7.739  0.00  0.00    +0.002 A 
ATOM     11  C   UNL     1      -1.388   4.280  -7.652  0.00  0.00    +0.026 A 
ATOM     12  C   UNL     1      -0.903   3.837  -6.391  0.00  0.00    +0.043 A 
ATOM     13  N   UNL     1       0.193   3.199  -6.052  0.00  0.00    -0.370 N 
ATOM     14  H   UNL     1       0.892   2.910  -6.659  0.00  0.00    +0.161 HD
ENDBRANCH   2   5
BRANCH   1  15
ATOM     15  CA  UNL     1       0.200  -0.325  -2.692  0.00  0.00    +0.217 C 
BRANCH  15  18
ATOM     16  C   UNL     1       0.349   1.570  -0.016  0.00  0.00    +0.039 C 
ATOM     17  C   UNL     1       0.280   0.042   0.002  0.00  0.00    +0.155 C 
ATOM     18  C   UNL     1       0.773  -0.533  -1.314  0.00  0.00    +0.010 C 
ATOM     19  C   UNL     1       1.833  -1.267  -0.967  0.00  0.00    +0.064 C 
ATOM     20  N   UNL     1       2.040  -1.210   0.368  0.00  0.00    -0.159 NA
ATOM     21  N   UNL     1       1.228  -0.510   0.985  0.00  0.00    -0.180 NA
ATOM     22  C   UNL     1       2.683  -2.053  -1.932  0.00  0.00    +0.067 C 
ENDBRANCH  15  18
BRANCH  15  23
ATOM     23  C   UNL     1      -1.204  -0.870  -2.739  0.00  0.00    +0.380 C 
ATOM     24  O   UNL     1      -2.152  -0.108  -2.823  0.00  0.00    -0.244 OA
ATOM     25  OXT UNL     1      -1.393  -2.074  -2.692  0.00  0.00    -0.244 OA
ENDBRANCH  15  23
ENDBRANCH   1  15
TORSDOF 4
