REMARK  Name = ZINC40388602
REMARK  6 active torsions:
REMARK  status: ('A' for Active; 'I' for Inactive)
REMARK    1  A    between atoms: C_1  and  C_2
REMARK    2  A    between atoms: C_2  and  C_3
REMARK    3  A    between atoms: C_8  and  N_9
REMARK    4  A    between atoms: C_10  and  C_12
REMARK    5  A    between atoms: C_28  and  C_35
REMARK    6  A    between atoms: C_31  and  C_34
REMARK                            x       y       z     vdW  Elec       q    Type
REMARK                         _______ _______ _______ _____ _____    ______ ____
ROOT
ATOM      1  C   UNL     1      -3.478  -0.347   3.694  0.00  0.00    +0.122 C 
ATOM      2  C   UNL     1      -3.772   1.123   3.388  0.00  0.00    +0.114 C 
ATOM      3  C   UNL     1      -3.355   1.976   4.558  0.00  0.00    +0.219 C 
ATOM      4  O   UNL     1      -2.863   3.066   4.360  0.00  0.00    -0.275 OA
ATOM      5  N   UNL     1      -3.525   1.542   5.818  0.00  0.00    -0.270 N 
ATOM      6  C   UNL     1      -3.986   0.262   6.074  0.00  0.00    +0.138 A 
ATOM      7  C   UNL     1      -3.992  -0.688   5.067  0.00  0.00    +0.069 A 
ATOM      8  C   UNL     1      -4.482  -1.968   5.343  0.00  0.00    +0.258 A 
ATOM      9  O   UNL     1      -4.512  -2.824   4.473  0.00  0.00    -0.267 OA
ATOM     10  N   UNL     1      -4.922  -2.238   6.590  0.00  0.00    -0.295 N 
ATOM     11  H   UNL     1      -5.280  -3.115   6.799  0.00  0.00    +0.172 HD
ATOM     12  C   UNL     1      -4.862  -1.280   7.556  0.00  0.00    +0.200 A 
ATOM     13  N   UNL     1      -4.405  -0.074   7.299  0.00  0.00    -0.200 NA
ATOM     14  N   UNL     1      -5.289  -1.579   8.822  0.00  0.00    -0.301 N 
ATOM     15  C   UNL     1      -5.351  -0.537   9.856  0.00  0.00    +0.111 C 
ATOM     16  C   UNL     1      -6.760  -0.523  10.458  0.00  0.00    +0.004 C 
ATOM     17  C   UNL     1      -7.111  -1.927  10.957  0.00  0.00    +0.009 C 
ATOM     18  C   UNL     1      -7.097  -2.907   9.782  0.00  0.00    +0.004 C 
ATOM     19  C   UNL     1      -5.698  -2.946   9.171  0.00  0.00    +0.111 C 
ATOM     20  C   UNL     1      -7.481  -4.303  10.276  0.00  0.00    +0.009 C 
ATOM     21  C   UNL     1      -7.767  -0.094   9.389  0.00  0.00    +0.009 C 
ATOM     22  H   UNL     1      -3.321   2.133   6.560  0.00  0.00    +0.156 HD
ENDROOT
BRANCH   1  24
ATOM     23  N   UNL     1      -1.310  -0.345   2.503  0.00  0.00    -0.285 N 
ATOM     24  C   UNL     1      -1.991  -0.584   3.642  0.00  0.00    +0.225 C 
ATOM     25  O   UNL     1      -1.406  -0.989   4.624  0.00  0.00    -0.275 OA
ATOM     26  H   UNL     1      -1.765   0.039   1.738  0.00  0.00    +0.155 HD
BRANCH  23  32
ATOM     27  C   UNL     1       0.596  -1.110   1.233  0.00  0.00    -0.026 A 
ATOM     28  C   UNL     1       1.943  -1.406   1.158  0.00  0.00    +0.005 A 
ATOM     29  C   UNL     1       2.749  -1.254   2.271  0.00  0.00    +0.000 A 
ATOM     30  C   UNL     1       2.210  -0.803   3.462  0.00  0.00    +0.002 A 
ATOM     31  C   UNL     1       0.864  -0.504   3.543  0.00  0.00    +0.023 A 
ATOM     32  C   UNL     1       0.053  -0.652   2.426  0.00  0.00    +0.037 A 
BRANCH  27  34
ATOM     33  C   UNL     1      -0.395   0.060  -0.716  0.00  0.00    +0.009 C 
ATOM     34  C   UNL     1      -0.281  -1.277   0.019  0.00  0.00    +0.033 C 
ENDBRANCH  27  34
ENDBRANCH  23  32
ENDBRANCH   1  24
TORSDOF 3
