REMARK  Name = ZINC67252693
REMARK  3 active torsions:
REMARK  status: ('A' for Active; 'I' for Inactive)
REMARK    1  A    between atoms: C_1  and  C_2
REMARK    2  A    between atoms: C_2  and  C_3
REMARK    3  A    between atoms: C_15  and  C_18
REMARK                            x       y       z     vdW  Elec       q    Type
REMARK                         _______ _______ _______ _____ _____    ______ ____
ROOT
ATOM      1  C   UNL     1      -1.313  -0.869   3.455  0.00  0.00    +0.103 A 
ATOM      2  N   UNL     1      -0.137  -0.877   2.861  0.00  0.00    -0.145 NA
ATOM      3  N   UNL     1       0.879  -1.246   3.515  0.00  0.00    -0.126 NA
ATOM      4  C   UNL     1       0.797  -1.623   4.776  0.00  0.00    +0.189 A 
ATOM      5  S   UNL     1      -0.851  -1.441   5.084  0.00  0.00    -0.035 S 
ATOM      6  N   UNL     1       1.807  -2.053   5.631  0.00  0.00    -0.247 N 
ATOM      7  C   UNL     1       3.078  -2.124   5.189  0.00  0.00    +0.308 C 
ATOM      8  O   UNL     1       3.330  -1.900   4.021  0.00  0.00    -0.252 OA
ATOM      9  N   UNL     1       4.071  -2.443   6.043  0.00  0.00    -0.280 N 
ATOM     10  C   UNL     1       5.478  -2.410   5.615  0.00  0.00    +0.137 C 
ATOM     11  C   UNL     1       6.133  -3.742   6.001  0.00  0.00    +0.179 C 
ATOM     12  O   UNL     1       5.897  -3.997   7.388  0.00  0.00    -0.369 OA
ATOM     13  C   UNL     1       4.516  -4.145   7.729  0.00  0.00    +0.166 C 
ATOM     14  C   UNL     1       3.780  -2.829   7.433  0.00  0.00    +0.145 C 
ATOM     15  H   UNL     1       1.596  -2.301   6.544  0.00  0.00    +0.158 HD
ENDROOT
BRANCH  13  16
ATOM     16  C   UNL     1       4.393  -4.472   9.195  0.00  0.00    -0.015 A 
ATOM     17  C   UNL     1       5.205  -3.836  10.115  0.00  0.00    +0.009 A 
ATOM     18  C   UNL     1       5.094  -4.133  11.460  0.00  0.00    +0.041 A 
ATOM     19  C   UNL     1       4.167  -5.069  11.888  0.00  0.00    +0.158 A 
ATOM     20  C   UNL     1       3.352  -5.706  10.965  0.00  0.00    +0.159 A 
ATOM     21  C   UNL     1       3.463  -5.402   9.619  0.00  0.00    +0.047 A 
ATOM     22  F   UNL     1       2.448  -6.620  11.380  0.00  0.00    -0.202 F 
ATOM     23  F   UNL     1       4.058  -5.361  13.202  0.00  0.00    -0.202 F 
ENDBRANCH  13  16
BRANCH   1  25
ATOM     24  C   UNL     1      -3.350  -1.711   2.318  0.00  0.00    +0.011 C 
ATOM     25  C   UNL     1      -2.666  -0.480   2.915  0.00  0.00    +0.061 C 
ENDBRANCH   1  25
TORSDOF 2
