REMARK  Name = ZINC02335177
REMARK  7 active torsions:
REMARK  status: ('A' for Active; 'I' for Inactive)
REMARK    1  A    between atoms: C_1  and  S_2
REMARK    2  A    between atoms: S_2  and  C_3
REMARK    3  A    between atoms: C_9  and  C_24
REMARK    4  A    between atoms: C_14  and  N_16
REMARK    5  A    between atoms: N_16  and  C_17
REMARK    6  A    between atoms: C_17  and  C_18
REMARK    7  A    between atoms: C_18  and  N_60
REMARK                            x       y       z     vdW  Elec       q    Type
REMARK                         _______ _______ _______ _____ _____    ______ ____
ROOT
ATOM      1  C   UNL     1       3.078   0.554  -3.190  0.00  0.00    +0.190 A 
ATOM      2  N   UNL     1       1.979   0.834  -2.522  0.00  0.00    -0.221 NA
ATOM      3  C   UNL     1       0.896   1.359  -3.138  0.00  0.00    +0.094 A 
ATOM      4  C   UNL     1      -0.399   1.727  -2.537  0.00  0.00    +0.037 A 
ATOM      5  C   UNL     1      -0.786   1.607  -1.181  0.00  0.00    -0.030 A 
ATOM      6  C   UNL     1      -2.034   2.001  -0.800  0.00  0.00    -0.018 A 
ATOM      7  C   UNL     1      -2.922   2.520  -1.750  0.00  0.00    +0.076 A 
ATOM      8  N   UNL     1      -2.555   2.629  -3.020  0.00  0.00    -0.239 NA
ATOM      9  C   UNL     1      -1.358   2.258  -3.419  0.00  0.00    +0.112 A 
ATOM     10  S   UNL     1      -0.546   2.262  -4.998  0.00  0.00    -0.064 S 
ATOM     11  C   UNL     1       1.017   1.583  -4.514  0.00  0.00    +0.080 A 
ATOM     12  C   UNL     1       2.191   1.275  -5.189  0.00  0.00    +0.138 A 
ATOM     13  N   UNL     1       3.205   0.760  -4.495  0.00  0.00    -0.206 NA
ATOM     14  C   UNL     1      -2.212   1.777   0.687  0.00  0.00    +0.038 C 
ATOM     15  C   UNL     1      -0.779   1.605   1.244  0.00  0.00    +0.009 C 
ATOM     16  C   UNL     1      -0.013   1.086   0.008  0.00  0.00    +0.036 C 
ENDROOT
BRANCH   7  17
ATOM     17  C   UNL     1      -4.279   2.948  -1.335  0.00  0.00    +0.001 A 
ATOM     18  C   UNL     1      -4.957   2.252  -0.335  0.00  0.00    +0.010 A 
ATOM     19  C   UNL     1      -6.218   2.658   0.051  0.00  0.00    +0.001 A 
ATOM     20  C   UNL     1      -6.814   3.746  -0.559  0.00  0.00    +0.000 A 
ATOM     21  C   UNL     1      -6.149   4.437  -1.556  0.00  0.00    +0.001 A 
ATOM     22  C   UNL     1      -4.885   4.044  -1.946  0.00  0.00    +0.010 A 
ENDBRANCH   7  17
BRANCH   1  24
ATOM     23  C   UNL     1       5.631  -0.308  -3.666  0.00  0.00    +0.093 C 
ATOM     24  S   UNL     1       4.444  -0.129  -2.311  0.00  0.00    -0.089 S 
ENDBRANCH   1  24
BRANCH  12  25
ATOM     25  N   UNL     1       2.305   1.498  -6.552  0.00  0.00    -0.330 N 
ATOM     26  H   UNL     1       1.560   1.872  -7.047  0.00  0.00    +0.147 HD
BRANCH  25  27
ATOM     27  C   UNL     1       3.552   1.167  -7.247  0.00  0.00    +0.084 C 
BRANCH  27  28
ATOM     28  C   UNL     1       3.415   1.507  -8.732  0.00  0.00    -0.060 C 
BRANCH  28  34
ATOM     29  C   UNL     1       5.764   2.041  -8.978  0.00  0.00    -0.050 C 
ATOM     30  C   UNL     1       7.057   1.623  -9.683  0.00  0.00    +0.141 C 
ATOM     31  O   UNL     1       6.864   1.685 -11.099  0.00  0.00    -0.383 OA
ATOM     32  C   UNL     1       5.801   0.853 -11.572  0.00  0.00    +0.141 C 
ATOM     33  C   UNL     1       4.495   1.264 -10.886  0.00  0.00    -0.050 C 
ATOM     34  N   UNL     1       4.673   1.150  -9.423  0.00  0.00    +0.384 N 
ATOM     35  H   UNL     1       4.917   0.180  -9.190  0.00  0.00    -0.082 HD
ENDBRANCH  28  34
ENDBRANCH  27  28
ENDBRANCH  25  27
ENDBRANCH  12  25
TORSDOF 6
