REMARK  Name = ZINC59913672
REMARK  11 active torsions:
REMARK  status: ('A' for Active; 'I' for Inactive)
REMARK    1  A    between atoms: C_1  and  C_2
REMARK    2  A    between atoms: C_2  and  C_3
REMARK    3  A    between atoms: C_2  and  C_4
REMARK    4  A    between atoms: C_7  and  S_10
REMARK    5  A    between atoms: N_8  and  N_9
REMARK    6  A    between atoms: S_10  and  C_11
REMARK    7  A    between atoms: C_11  and  C_12
REMARK    8  A    between atoms: N_14  and  C_15
REMARK    9  A    between atoms: C_18  and  S_21
REMARK   10  A    between atoms: S_21  and  N_24
REMARK   11  A    between atoms: N_27  and  C_30
REMARK                            x       y       z     vdW  Elec       q    Type
REMARK                         _______ _______ _______ _____ _____    ______ ____
ROOT
ATOM      1  C   UNL     1      -8.171  -3.078   1.134  0.00  0.00    +0.227 C 
ATOM      2  O   UNL     1      -8.993  -3.595   1.860  0.00  0.00    -0.275 OA
ATOM      3  N   UNL     1      -8.272  -3.214  -0.203  0.00  0.00    -0.285 N 
ATOM      4  H   UNL     1      -7.655  -2.746  -0.786  0.00  0.00    +0.155 HD
ENDROOT
BRANCH   3   5
ATOM      5  C   UNL     1      -9.268  -4.031  -0.749  0.00  0.00    +0.034 A 
ATOM      6  C   UNL     1      -9.013  -4.765  -1.900  0.00  0.00    +0.025 A 
ATOM      7  C   UNL     1      -9.998  -5.570  -2.437  0.00  0.00    +0.030 A 
ATOM      8  C   UNL     1     -11.238  -5.646  -1.830  0.00  0.00    +0.106 A 
ATOM      9  C   UNL     1     -11.496  -4.916  -0.684  0.00  0.00    +0.030 A 
ATOM     10  C   UNL     1     -10.513  -4.114  -0.139  0.00  0.00    +0.025 A 
BRANCH   8  11
ATOM     11  S   UNL     1     -12.493  -6.674  -2.518  0.00  0.00    +0.061 S 
ATOM     12  O   UNL     1     -13.737  -6.150  -2.074  0.00  0.00    -0.153 OA
ATOM     13  O   UNL     1     -12.180  -6.830  -3.896  0.00  0.00    -0.153 OA
BRANCH  11  14
ATOM     14  N   UNL     1     -12.334  -8.170  -1.825  0.00  0.00    -0.174 NA
ATOM     15  C   UNL     1     -11.469  -9.194  -2.430  0.00  0.00    +0.125 C 
ATOM     16  C   UNL     1     -10.527  -9.736  -1.348  0.00  0.00    +0.101 C 
ATOM     17  N   UNL     1     -11.319 -10.192  -0.198  0.00  0.00    -0.303 NA
ATOM     18  C   UNL     1     -12.052  -9.078   0.419  0.00  0.00    +0.101 C 
ATOM     19  C   UNL     1     -13.051  -8.508  -0.586  0.00  0.00    +0.125 C 
ATOM     20  C   UNL     1     -10.471 -10.874   0.788  0.00  0.00    +0.105 C 
ENDBRANCH  11  14
ENDBRANCH   8  11
ENDBRANCH   3   5
BRANCH   1  21
ATOM     21  C   UNL     1      -7.036  -2.283   1.726  0.00  0.00    +0.173 C 
BRANCH  21  22
ATOM     22  S   UNL     1      -7.176  -2.285   3.535  0.00  0.00    -0.075 S 
BRANCH  22  26
ATOM     23  C   UNL     1      -4.327  -0.278   5.289  0.00  0.00    +0.154 A 
ATOM     24  N   UNL     1      -4.032  -0.142   4.027  0.00  0.00    -0.132 NA
ATOM     25  N   UNL     1      -4.895  -0.761   3.303  0.00  0.00    -0.121 NA
ATOM     26  C   UNL     1      -5.796  -1.329   4.070  0.00  0.00    +0.209 A 
ATOM     27  N   UNL     1      -5.459  -1.043   5.362  0.00  0.00    -0.228 N 
BRANCH  23  29
ATOM     28  C   UNL     1      -2.129  -0.244   6.436  0.00  0.00    +0.015 C 
ATOM     29  C   UNL     1      -3.561   0.296   6.452  0.00  0.00    +0.052 C 
ATOM     30  C   UNL     1      -3.532   1.822   6.341  0.00  0.00    +0.015 C 
ENDBRANCH  23  29
BRANCH  27  31
ATOM     31  N   UNL     1      -6.116  -1.437   6.493  0.00  0.00    -0.295 N 
ATOM     32  H   UNL     1      -6.819  -0.762   6.756  0.00  0.00    +0.163 HD
ATOM     33  H   UNL     1      -6.521  -2.353   6.375  0.00  0.00    +0.163 HD
ENDBRANCH  27  31
ENDBRANCH  22  26
ENDBRANCH  21  22
ENDBRANCH   1  21
TORSDOF 8
