REMARK  Name = ZINC00450182
REMARK  5 active torsions:
REMARK  status: ('A' for Active; 'I' for Inactive)
REMARK    1  A    between atoms: C_3  and  O_10
REMARK    2  A    between atoms: C_6  and  N_7
REMARK    3  A    between atoms: O_10  and  C_11
REMARK    4  A    between atoms: C_11  and  C_12
REMARK    5  A    between atoms: N_14  and  C_15
REMARK                            x       y       z     vdW  Elec       q    Type
REMARK                         _______ _______ _______ _____ _____    ______ ____
ROOT
ATOM      1  C   UNL     1       2.211   5.600   0.010  0.00  0.00    +0.255 C 
ATOM      2  O   UNL     1       1.085   6.050   0.015  0.00  0.00    -0.272 OA
ATOM      3  N   UNL     1       3.270   6.433   0.006  0.00  0.00    -0.283 N 
ATOM      4  H   UNL     1       4.169   6.075   0.070  0.00  0.00    +0.155 HD
ENDROOT
BRANCH   3   5
ATOM      5  C   UNL     1       3.072   7.815  -0.089  0.00  0.00    +0.036 A 
ATOM      6  C   UNL     1       3.982   8.601  -0.785  0.00  0.00    +0.043 A 
ATOM      7  C   UNL     1       3.781   9.966  -0.883  0.00  0.00    +0.044 A 
ATOM      8  C   UNL     1       2.682  10.550  -0.279  0.00  0.00    +0.040 A 
ATOM      9  C   UNL     1       1.777   9.769   0.420  0.00  0.00    +0.044 A 
ATOM     10  C   UNL     1       1.970   8.404   0.516  0.00  0.00    +0.043 A 
ATOM     11 CL   UNL     1       0.399  10.506   1.176  0.00  0.00    -0.083 Cl
ATOM     12 CL   UNL     1       4.913  10.948  -1.759  0.00  0.00    -0.083 Cl
ENDBRANCH   3   5
BRANCH   1  13
ATOM     13  C   UNL     1       2.426   4.108   0.008  0.00  0.00    +0.324 C 
BRANCH  13  14
ATOM     14  O   UNL     1       1.161   3.445   0.013  0.00  0.00    -0.483 OA
BRANCH  14  17
ATOM     15  C   UNL     1       0.003  -0.004   0.016  0.00  0.00    +0.036 A 
ATOM     16  C   UNL     1      -0.016   1.377   0.016  0.00  0.00    +0.048 A 
ATOM     17  C   UNL     1       1.177   2.086   0.012  0.00  0.00    +0.121 A 
ATOM     18  C   UNL     1       2.385   1.405   0.008  0.00  0.00    +0.048 A 
ATOM     19  C   UNL     1       2.399   0.024   0.007  0.00  0.00    +0.036 A 
ATOM     20  C   UNL     1       1.209  -0.680   0.011  0.00  0.00    +0.126 A 
BRANCH  20  21
ATOM     21  N   UNL     1       1.226  -2.160   0.010  0.00  0.00    +0.056 N 
ATOM     22  O   UNL     1       0.179  -2.782   0.014  0.00  0.00    -0.126 OA
ATOM     23  O   UNL     1       2.288  -2.757   0.006  0.00  0.00    -0.126 OA
ENDBRANCH  20  21
ENDBRANCH  14  17
ENDBRANCH  13  14
ENDBRANCH   1  13
TORSDOF 5
