REMARK  Name = ZINC32124969
REMARK  9 active torsions:
REMARK  status: ('A' for Active; 'I' for Inactive)
REMARK    1  A    between atoms: C_1  and  C_2
REMARK    2  A    between atoms: C_5  and  S_8
REMARK    3  A    between atoms: S_8  and  C_9
REMARK    4  A    between atoms: C_12  and  C_18
REMARK    5  A    between atoms: C_14  and  N_15
REMARK    6  A    between atoms: N_19  and  N_20
REMARK    7  A    between atoms: N_20  and  C_21
REMARK    8  A    between atoms: C_21  and  N_23
REMARK    9  A    between atoms: N_23  and  C_24
REMARK                            x       y       z     vdW  Elec       q    Type
REMARK                         _______ _______ _______ _____ _____    ______ ____
ROOT
ATOM      1  C   UNL     1       4.784   1.523  -0.133  0.00  0.00    +0.043 A 
ATOM      2  C   UNL     1       3.585   2.191   0.097  0.00  0.00    +0.018 A 
ATOM      3  C   UNL     1       2.397   1.494   0.102  0.00  0.00    +0.011 A 
ATOM      4  C   UNL     1       2.399   0.112  -0.114  0.00  0.00    -0.003 A 
ATOM      5  C   UNL     1       3.605  -0.555  -0.344  0.00  0.00    +0.043 A 
ATOM      6  C   UNL     1       4.789   0.149  -0.353  0.00  0.00    +0.140 A 
ENDROOT
BRANCH   6   7
ATOM      7  N   UNL     1       6.071  -0.558  -0.598  0.00  0.00    +0.058 N 
ATOM      8  O   UNL     1       6.075  -1.761  -0.791  0.00  0.00    -0.126 OA
ATOM      9  O   UNL     1       7.118   0.064  -0.606  0.00  0.00    -0.126 OA
ENDBRANCH   6   7
BRANCH   4  10
ATOM     10  C   UNL     1       1.130  -0.638  -0.104  0.00  0.00    +0.138 C 
ATOM     11  N   UNL     1      -0.001  -0.002  -0.151  0.00  0.00    -0.188 NA
BRANCH  11  12
ATOM     12  N   UNL     1      -0.049   1.303  -0.659  0.00  0.00    -0.218 N 
ATOM     13  H   UNL     1       0.849   1.752  -1.109  0.00  0.00    +0.176 HD
BRANCH  12  14
ATOM     14  C   UNL     1      -1.196   2.008  -0.596  0.00  0.00    +0.150 C 
ATOM     15  S   UNL     1      -1.255   3.603  -1.217  0.00  0.00    -0.017 S 
BRANCH  14  16
ATOM     16  N   UNL     1      -2.296   1.458  -0.045  0.00  0.00    -0.328 N 
ATOM     17  C   UNL     1      -3.542   2.225   0.024  0.00  0.00    +0.127 C 
ATOM     18  H   UNL     1      -2.258   0.434   0.354  0.00  0.00    +0.147 HD
ENDBRANCH  14  16
ENDBRANCH  12  14
ENDBRANCH  11  12
ENDBRANCH   4  10
BRANCH   1  19
ATOM     19  S   UNL     1       6.301   2.420  -0.145  0.00  0.00    -0.087 S 
BRANCH  19  24
ATOM     20  C   UNL     1       4.595   8.184   0.410  0.00  0.00    +0.044 C 
ATOM     21  C   UNL     1       5.021   6.745   0.271  0.00  0.00    -0.050 A 
ATOM     22  C   UNL     1       5.380   6.020   1.393  0.00  0.00    +0.004 A 
ATOM     23  C   UNL     1       5.771   4.702   1.270  0.00  0.00    +0.015 A 
ATOM     24  C   UNL     1       5.803   4.103   0.017  0.00  0.00    +0.013 A 
ATOM     25  C   UNL     1       5.446   4.835  -1.109  0.00  0.00    +0.015 A 
ATOM     26  C   UNL     1       5.051   6.151  -0.978  0.00  0.00    +0.004 A 
ENDBRANCH  19  24
ENDBRANCH   1  19
TORSDOF 7
