REMARK  Name = ZINC33722438
REMARK  15 active torsions:
REMARK  status: ('A' for Active; 'I' for Inactive)
REMARK    1  A    between atoms: C_1  and  C_2
REMARK    2  A    between atoms: C_2  and  C_4
REMARK    3  A    between atoms: C_2  and  N_19
REMARK    4  A    between atoms: N_14  and  C_15
REMARK    5  A    between atoms: C_15  and  C_16
REMARK    6  A    between atoms: C_16  and  O_17
REMARK    7  A    between atoms: O_17  and  C_18
REMARK    8  A    between atoms: N_19  and  C_20
REMARK    9  A    between atoms: C_20  and  C_21
REMARK   10  A    between atoms: C_21  and  C_22
REMARK   11  A    between atoms: C_22  and  C_23
REMARK   12  A    between atoms: C_23  and  C_24
REMARK   13  A    between atoms: C_24  and  C_25
REMARK   14  A    between atoms: C_25  and  N_26
REMARK   15  A    between atoms: C_27  and  C_29
REMARK                            x       y       z     vdW  Elec       q    Type
REMARK                         _______ _______ _______ _____ _____    ______ ____
ROOT
ATOM      1  N   UNL     1       0.869   2.940  -0.450  0.00  0.00    -0.288 N 
ATOM      2  C   UNL     1       1.252   3.440   0.742  0.00  0.00    +0.247 C 
ATOM      3  O   UNL     1       0.731   4.450   1.173  0.00  0.00    -0.270 OA
ENDROOT
BRANCH   2   4
ATOM      4  C   UNL     1       2.305   2.759   1.524  0.00  0.00    +0.038 A 
ATOM      5  C   UNL     1       3.265   3.508   2.207  0.00  0.00    +0.013 A 
ATOM      6  C   UNL     1       4.246   2.867   2.936  0.00  0.00    +0.002 A 
ATOM      7  C   UNL     1       4.279   1.485   2.991  0.00  0.00    +0.015 A 
ATOM      8  C   UNL     1       3.330   0.736   2.317  0.00  0.00    +0.019 A 
ATOM      9  C   UNL     1       2.341   1.366   1.588  0.00  0.00    +0.028 A 
ATOM     10 BR   UNL     1       3.385  -1.152   2.400  0.00  0.00    -0.050 Br
ENDBRANCH   2   4
BRANCH   1  12
ATOM     11  C   UNL     1      -0.028   0.782   0.270  0.00  0.00    +0.036 C 
ATOM     12  C   UNL     1       0.924   1.496  -0.691  0.00  0.00    +0.139 C 
BRANCH  12  13
ATOM     13  C   UNL     1       2.330   1.003  -0.466  0.00  0.00    +0.133 A 
ATOM     14  N   UNL     1       3.265   1.880  -0.263  0.00  0.00    -0.232 NA
ATOM     15  C   UNL     1       4.553   1.510  -0.052  0.00  0.00    +0.078 A 
ATOM     16  C   UNL     1       5.560   2.453   0.166  0.00  0.00    +0.028 A 
ATOM     17  C   UNL     1       6.854   2.033   0.376  0.00  0.00    +0.002 A 
ATOM     18  C   UNL     1       7.172   0.681   0.373  0.00  0.00    +0.001 A 
ATOM     19  C   UNL     1       6.197  -0.268   0.160  0.00  0.00    +0.015 A 
ATOM     20  C   UNL     1       4.881   0.136  -0.055  0.00  0.00    +0.065 A 
ATOM     21  C   UNL     1       3.798  -0.831  -0.287  0.00  0.00    +0.262 A 
ATOM     22  O   UNL     1       4.013  -2.029  -0.302  0.00  0.00    -0.267 OA
ATOM     23  N   UNL     1       2.553  -0.337  -0.479  0.00  0.00    -0.292 N 
BRANCH  23  24
ATOM     24  C   UNL     1       1.435  -1.256  -0.710  0.00  0.00    +0.154 C 
BRANCH  24  25
ATOM     25  C   UNL     1       1.298  -1.527  -2.209  0.00  0.00    +0.181 C 
BRANCH  25  26
ATOM     26  O   UNL     1       2.458  -2.218  -2.677  0.00  0.00    -0.381 OA
ATOM     27  C   UNL     1       2.432  -2.521  -4.073  0.00  0.00    +0.194 C 
ENDBRANCH  25  26
ENDBRANCH  24  25
ENDBRANCH  23  24
ENDBRANCH  12  13
ENDBRANCH   1  12
BRANCH   1  28
ATOM     28  C   UNL     1       0.397   3.841  -1.504  0.00  0.00    +0.109 C 
BRANCH  28  29
ATOM     29  C   UNL     1      -1.095   4.118  -1.309  0.00  0.00    +0.019 C 
BRANCH  29  30
ATOM     30  C   UNL     1      -1.588   5.059  -2.411  0.00  0.00    +0.001 C 
BRANCH  30  31
ATOM     31  C   UNL     1      -3.080   5.336  -2.216  0.00  0.00    -0.002 C 
BRANCH  31  32
ATOM     32  C   UNL     1      -3.572   6.277  -3.317  0.00  0.00    -0.020 C 
BRANCH  32  33
ATOM     33  C   UNL     1      -5.064   6.553  -3.122  0.00  0.00    -0.086 C 
BRANCH  33  34
ATOM     34  N   UNL     1      -5.537   7.457  -4.179  0.00  0.00    +0.378 N 
ATOM     35  H   UNL     1      -6.610   7.655  -4.038  0.00  0.00    -0.090 HD
ATOM     36  H   UNL     1      -5.377   6.988  -5.161  0.00  0.00    -0.090 HD
ATOM     37  H   UNL     1      -4.979   8.403  -4.129  0.00  0.00    -0.090 HD
ENDBRANCH  33  34
ENDBRANCH  32  33
ENDBRANCH  31  32
ENDBRANCH  30  31
ENDBRANCH  29  30
ENDBRANCH  28  29
ENDBRANCH   1  28
TORSDOF 13
