REMARK  Name = ZINC39508899
REMARK  8 active torsions:
REMARK  status: ('A' for Active; 'I' for Inactive)
REMARK    1  A    between atoms: C_1  and  C_2
REMARK    2  A    between atoms: C_2  and  C_3
REMARK    3  A    between atoms: C_2  and  S_4
REMARK    4  A    between atoms: S_4  and  N_7
REMARK    5  A    between atoms: C_9  and  C_25
REMARK    6  A    between atoms: C_15  and  C_18
REMARK    7  A    between atoms: C_23  and  O_24
REMARK    8  A    between atoms: C_30  and  O_31
REMARK                            x       y       z     vdW  Elec       q    Type
REMARK                         _______ _______ _______ _____ _____    ______ ____
ROOT
ATOM      1  N   UNL     1      -1.437  -2.271   0.317  0.00  0.00    -0.174 NA
ATOM      2  C   UNL     1      -1.174  -3.279  -0.731  0.00  0.00    +0.118 C 
ATOM      3  C   UNL     1      -1.630  -4.625  -0.112  0.00  0.00    +0.040 C 
ATOM      4  C   UNL     1      -1.213  -4.446   1.375  0.00  0.00    +0.033 C 
ATOM      5  C   UNL     1      -1.441  -2.947   1.611  0.00  0.00    +0.044 C 
ATOM      6  C   UNL     1      -0.368  -2.370   2.550  0.00  0.00    +0.024 C 
ATOM      7  C   UNL     1      -1.041  -1.126   3.172  0.00  0.00    +0.010 C 
ATOM      8  C   UNL     1      -2.561  -1.343   3.054  0.00  0.00    +0.024 C 
ATOM      9  C   UNL     1      -2.761  -2.710   2.365  0.00  0.00    +0.032 C 
ENDROOT
BRANCH   8  10
ATOM     10  C   UNL     1      -3.188  -1.357   4.425  0.00  0.00    -0.003 A 
ATOM     11  C   UNL     1      -2.771  -2.279   5.366  0.00  0.00    +0.007 A 
ATOM     12  C   UNL     1      -3.345  -2.294   6.623  0.00  0.00    +0.001 A 
ATOM     13  C   UNL     1      -4.339  -1.386   6.942  0.00  0.00    +0.004 A 
ATOM     14  C   UNL     1      -4.759  -0.462   6.005  0.00  0.00    +0.046 A 
ATOM     15  C   UNL     1      -4.180  -0.442   4.744  0.00  0.00    +0.120 A 
BRANCH  15  16
ATOM     16  O   UNL     1      -4.588   0.469   3.822  0.00  0.00    -0.506 OA
ATOM     17  H   UNL     1      -5.320   0.167   3.268  0.00  0.00    +0.292 HD
ENDBRANCH  15  16
ENDBRANCH   8  10
BRANCH   3  18
ATOM     18  C   UNL     1      -0.901  -5.783  -0.742  0.00  0.00    -0.002 A 
ATOM     19  C   UNL     1       0.478  -5.845  -0.686  0.00  0.00    +0.007 A 
ATOM     20  C   UNL     1       1.148  -6.907  -1.264  0.00  0.00    +0.001 A 
ATOM     21  C   UNL     1       0.440  -7.911  -1.899  0.00  0.00    +0.004 A 
ATOM     22  C   UNL     1      -0.939  -7.854  -1.957  0.00  0.00    +0.046 A 
ATOM     23  C   UNL     1      -1.614  -6.792  -1.373  0.00  0.00    +0.120 A 
BRANCH  23  24
ATOM     24  O   UNL     1      -2.971  -6.737  -1.423  0.00  0.00    -0.506 OA
ATOM     25  H   UNL     1      -3.317  -6.277  -2.200  0.00  0.00    +0.292 HD
ENDBRANCH  23  24
ENDBRANCH   3  18
BRANCH   1  26
ATOM     26  S   UNL     1      -1.679  -0.652   0.068  0.00  0.00    +0.035 S 
ATOM     27  O   UNL     1      -1.851  -0.106   1.368  0.00  0.00    -0.158 OA
ATOM     28  O   UNL     1      -2.727  -0.586  -0.890  0.00  0.00    -0.158 OA
BRANCH  26  30
ATOM     29  C   UNL     1      -0.185   1.466  -0.807  0.00  0.00    +0.033 C 
ATOM     30  C   UNL     1      -0.128  -0.056  -0.660  0.00  0.00    +0.142 C 
ATOM     31  C   UNL     1       1.042  -0.437   0.249  0.00  0.00    +0.033 C 
ENDBRANCH  26  30
ENDBRANCH   1  26
TORSDOF 6
