REMARK  Name = ZINC09187553
REMARK  6 active torsions:
REMARK  status: ('A' for Active; 'I' for Inactive)
REMARK    1  A    between atoms: C_1  and  C_2
REMARK    2  A    between atoms: C_2  and  C_3
REMARK    3  A    between atoms: C_2  and  C_4
REMARK    4  A    between atoms: C_4  and  C_6
REMARK    5  A    between atoms: C_4  and  N_20
REMARK    6  A    between atoms: C_6  and  N_8
REMARK                            x       y       z     vdW  Elec       q    Type
REMARK                         _______ _______ _______ _____ _____    ______ ____
ROOT
ATOM      1  C   UNL     1      -1.415  -0.531   0.004  0.00  0.00    +0.185 C 
ENDROOT
BRANCH   1   2
ATOM      2  N   UNL     1      -1.380  -1.996  -0.011  0.00  0.00    -0.248 N 
ATOM      3  C   UNL     1      -1.948  -2.683   1.004  0.00  0.00    +0.265 A 
ATOM      4  O   UNL     1      -2.486  -2.102   1.926  0.00  0.00    -0.267 OA
ATOM      5  C   UNL     1      -1.899  -4.156   0.964  0.00  0.00    +0.063 A 
ATOM      6  C   UNL     1      -2.461  -4.935   1.971  0.00  0.00    +0.015 A 
ATOM      7  C   UNL     1      -2.389  -6.310   1.887  0.00  0.00    +0.001 A 
ATOM      8  C   UNL     1      -1.762  -6.915   0.809  0.00  0.00    +0.002 A 
ATOM      9  C   UNL     1      -1.200  -6.154  -0.196  0.00  0.00    +0.026 A 
ATOM     10  C   UNL     1      -1.263  -4.770  -0.129  0.00  0.00    +0.056 A 
ATOM     11  N   UNL     1      -0.712  -3.969  -1.118  0.00  0.00    -0.307 N 
ATOM     12  H   UNL     1      -0.270  -4.379  -1.879  0.00  0.00    +0.170 HD
ATOM     13  C   UNL     1      -0.788  -2.629  -1.036  0.00  0.00    +0.330 A 
ATOM     14  O   UNL     1      -0.297  -1.963  -1.926  0.00  0.00    -0.246 OA
ENDBRANCH   1   2
BRANCH   1  16
ATOM     15  C   UNL     1      -0.022   1.543   0.013  0.00  0.00    +0.010 C 
ATOM     16  C   UNL     1       0.015   0.013  -0.003  0.00  0.00    +0.015 C 
ATOM     17  C   UNL     1       0.759  -0.492   1.234  0.00  0.00    +0.010 C 
ENDBRANCH   1  16
BRANCH   1  18
ATOM     18  C   UNL     1      -2.148  -0.034  -1.214  0.00  0.00    +0.262 C 
ATOM     19  O   UNL     1      -2.599  -0.827  -2.019  0.00  0.00    -0.271 OA
BRANCH  18  20
ATOM     20  N   UNL     1      -2.303   1.272  -1.410  0.00  0.00    -0.145 NA
ATOM     21  C   UNL     1      -2.858   1.715  -2.535  0.00  0.00    +0.198 A 
ATOM     22  N   UNL     1      -3.409   0.934  -3.502  0.00  0.00    -0.326 N 
ATOM     23  H   UNL     1      -3.464  -0.034  -3.487  0.00  0.00    +0.169 HD
ATOM     24  C   UNL     1      -3.881   1.762  -4.515  0.00  0.00    +0.065 A 
ATOM     25  C   UNL     1      -4.522   1.514  -5.721  0.00  0.00    +0.028 A 
ATOM     26  C   UNL     1      -4.878   2.566  -6.540  0.00  0.00    +0.002 A 
ATOM     27  C   UNL     1      -4.600   3.869  -6.164  0.00  0.00    +0.002 A 
ATOM     28  C   UNL     1      -3.963   4.128  -4.967  0.00  0.00    +0.028 A 
ATOM     29  C   UNL     1      -3.600   3.077  -4.136  0.00  0.00    +0.065 A 
ATOM     30  N   UNL     1      -2.969   3.020  -2.897  0.00  0.00    -0.326 N 
ATOM     31  H   UNL     1      -2.659   3.781  -2.382  0.00  0.00    +0.169 HD
ENDBRANCH  18  20
ENDBRANCH   1  18
TORSDOF 4
