REMARK  Name = ZINC63912505
REMARK  10 active torsions:
REMARK  status: ('A' for Active; 'I' for Inactive)
REMARK    1  A    between atoms: C_1  and  C_2
REMARK    2  A    between atoms: C_2  and  C_3
REMARK    3  A    between atoms: C_3  and  C_4
REMARK    4  A    between atoms: C_3  and  C_5
REMARK    5  A    between atoms: C_3  and  N_6
REMARK    6  A    between atoms: C_7  and  C_9
REMARK    7  A    between atoms: C_12  and  N_15
REMARK    8  A    between atoms: N_15  and  S_16
REMARK    9  A    between atoms: S_16  and  C_19
REMARK   10  A    between atoms: C_22  and  N_24
REMARK                            x       y       z     vdW  Elec       q    Type
REMARK                         _______ _______ _______ _____ _____    ______ ____
ROOT
ATOM      1  C   UNL     1       1.341  -4.098  -2.293  0.00  0.00    +0.037 A 
ATOM      2  C   UNL     1       0.751  -4.812  -1.246  0.00  0.00    +0.015 A 
ATOM      3  C   UNL     1       0.771  -6.188  -1.257  0.00  0.00    +0.027 A 
ATOM      4  C   UNL     1       1.378  -6.869  -2.308  0.00  0.00    +0.074 A 
ATOM      5  C   UNL     1       1.968  -6.160  -3.352  0.00  0.00    +0.027 A 
ATOM      6  C   UNL     1       1.945  -4.784  -3.350  0.00  0.00    +0.015 A 
ENDROOT
BRANCH   1   8
ATOM      7  N   UNL     1       0.738  -1.962  -1.265  0.00  0.00    -0.306 N 
ATOM      8  C   UNL     1       1.321  -2.623  -2.285  0.00  0.00    +0.244 C 
ATOM      9  O   UNL     1       1.831  -2.003  -3.198  0.00  0.00    -0.270 OA
ATOM     10  H   UNL     1       0.332  -2.457  -0.536  0.00  0.00    +0.150 HD
BRANCH   7  11
ATOM     11  C   UNL     1       0.718  -0.497  -1.257  0.00  0.00    +0.029 C 
ATOM     12  C   UNL     1      -0.022   0.009  -2.496  0.00  0.00    +0.031 C 
ATOM     13  C   UNL     1       2.154   0.032  -1.268  0.00  0.00    +0.031 C 
BRANCH  11  15
ATOM     14  C   UNL     1      -0.019   1.526   0.010  0.00  0.00    +0.006 C 
ATOM     15  C   UNL     1       0.002  -0.004   0.002  0.00  0.00    +0.022 C 
ENDBRANCH  11  15
ENDBRANCH   7  11
ENDBRANCH   1   8
BRANCH   4  16
ATOM     16  N   UNL     1       1.397  -8.259  -2.316  0.00  0.00    -0.097 NA
BRANCH  16  17
ATOM     17  S   UNL     1       2.119  -9.070  -3.566  0.00  0.00    +0.098 S 
ATOM     18  O   UNL     1       1.345  -8.800  -4.727  0.00  0.00    -0.148 OA
ATOM     19  O   UNL     1       3.508  -8.778  -3.491  0.00  0.00    -0.148 OA
BRANCH  17  20
ATOM     20  C   UNL     1       1.949 -10.793  -3.236  0.00  0.00    +0.150 A 
ATOM     21  C   UNL     1       0.955 -11.638  -3.604  0.00  0.00    +0.039 A 
ATOM     22  C   UNL     1       1.032 -12.966  -3.229  0.00  0.00    +0.042 A 
ATOM     23  C   UNL     1       2.099 -13.384  -2.505  0.00  0.00    +0.165 A 
ATOM     24  S   UNL     1       3.045 -11.880  -2.339  0.00  0.00    -0.044 S 
BRANCH  23  25
ATOM     25  N   UNL     1       2.403 -14.739  -1.990  0.00  0.00    +0.063 N 
ATOM     26  O   UNL     1       1.641 -15.652  -2.205  0.00  0.00    -0.126 OA
ATOM     27  O   UNL     1       3.414 -14.931  -1.355  0.00  0.00    -0.126 OA
ENDBRANCH  23  25
ENDBRANCH  17  20
ENDBRANCH  16  17
ENDBRANCH   4  16
TORSDOF 7
