REMARK  Name = ZINC16399423
REMARK  6 active torsions:
REMARK  status: ('A' for Active; 'I' for Inactive)
REMARK    1  A    between atoms: C_3  and  C_25
REMARK    2  A    between atoms: C_5  and  N_7
REMARK    3  A    between atoms: N_7  and  C_8
REMARK    4  A    between atoms: C_8  and  N_10
REMARK    5  A    between atoms: C_11  and  C_13
REMARK    6  A    between atoms: C_16  and  C_18
REMARK                            x       y       z     vdW  Elec       q    Type
REMARK                         _______ _______ _______ _____ _____    ______ ____
ROOT
ATOM      1  C   UNL     1      -2.153   4.361  -0.229  0.00  0.00    +0.141 C 
ATOM      2  S   UNL     1      -3.675   3.647  -0.552  0.00  0.00    -0.018 S 
ENDROOT
BRANCH   1   3
ATOM      3  N   UNL     1      -1.037   3.606  -0.246  0.00  0.00    -0.261 N 
ATOM      4  C   UNL     1      -1.119   2.288  -0.517  0.00  0.00    +0.285 C 
ATOM      5  O   UNL     1      -2.201   1.781  -0.747  0.00  0.00    -0.266 OA
ATOM      6  H   UNL     1      -0.175   4.011  -0.062  0.00  0.00    +0.157 HD
BRANCH   4   7
ATOM      7  C   UNL     1       0.093   1.468  -0.536  0.00  0.00    +0.190 A 
ATOM      8  C   UNL     1       0.152   0.116  -0.798  0.00  0.00    +0.055 A 
ATOM      9  C   UNL     1       1.498  -0.253  -0.717  0.00  0.00    +0.050 A 
ATOM     10  C   UNL     1       2.205   0.875  -0.412  0.00  0.00    +0.136 A 
ATOM     11  O   UNL     1       1.349   1.905  -0.305  0.00  0.00    -0.450 OA
BRANCH  10  12
ATOM     12  C   UNL     1       3.669   0.950  -0.230  0.00  0.00    +0.017 A 
ATOM     13  C   UNL     1       4.452  -0.200  -0.363  0.00  0.00    +0.013 A 
ATOM     14  C   UNL     1       5.819  -0.122  -0.197  0.00  0.00    +0.021 A 
ATOM     15  C   UNL     1       6.414   1.089   0.112  0.00  0.00    +0.041 A 
ATOM     16  C   UNL     1       5.643   2.232   0.251  0.00  0.00    +0.021 A 
ATOM     17  C   UNL     1       4.276   2.168   0.082  0.00  0.00    +0.013 A 
ATOM     18 CL   UNL     1       8.135   1.177   0.327  0.00  0.00    -0.084 Cl
ENDBRANCH  10  12
ENDBRANCH   4   7
ENDBRANCH   1   3
BRANCH   1  19
ATOM     19  N   UNL     1      -2.071   5.679   0.043  0.00  0.00    -0.297 N 
ATOM     20  H   UNL     1      -1.222   6.068   0.305  0.00  0.00    +0.154 HD
BRANCH  19  25
ATOM     21  C   UNL     1      -5.219   7.113  -1.213  0.00  0.00    +0.003 A 
ATOM     22  C   UNL     1      -5.476   8.076  -0.258  0.00  0.00    +0.013 A 
ATOM     23  C   UNL     1      -4.597   8.251   0.811  0.00  0.00    +0.039 A 
ATOM     24  C   UNL     1      -3.459   7.450   0.911  0.00  0.00    +0.036 A 
ATOM     25  C   UNL     1      -3.210   6.485  -0.052  0.00  0.00    +0.033 A 
ATOM     26  C   UNL     1      -4.089   6.323  -1.117  0.00  0.00    +0.023 A 
BRANCH  23  27
ATOM     27  C   UNL     1      -4.870   9.282   1.835  0.00  0.00    +0.230 A 
ATOM     28  N   UNL     1      -4.115   9.524   2.877  0.00  0.00    -0.189 NA
ATOM     29  C   UNL     1      -4.668  10.533   3.595  0.00  0.00    +0.199 A 
ATOM     30  C   UNL     1      -5.844  10.905   2.920  0.00  0.00    +0.174 A 
ATOM     31  O   UNL     1      -5.934  10.107   1.835  0.00  0.00    -0.434 OA
ATOM     32  C   UNL     1      -6.628  11.926   3.435  0.00  0.00    +0.051 A 
ATOM     33  C   UNL     1      -6.216  12.544   4.605  0.00  0.00    +0.023 A 
ATOM     34  C   UNL     1      -5.047  12.129   5.220  0.00  0.00    +0.113 A 
ATOM     35  N   UNL     1      -4.316  11.158   4.716  0.00  0.00    -0.233 NA
ENDBRANCH  23  27
ENDBRANCH  19  25
ENDBRANCH   1  19
TORSDOF 6
