REMARK  Name = ZINC13017207
REMARK  10 active torsions:
REMARK  status: ('A' for Active; 'I' for Inactive)
REMARK    1  A    between atoms: C_1  and  C_2
REMARK    2  A    between atoms: C_2  and  N_3
REMARK    3  A    between atoms: N_3  and  C_4
REMARK    4  A    between atoms: C_10  and  C_12
REMARK    5  A    between atoms: C_12  and  C_14
REMARK    6  A    between atoms: C_12  and  S_15
REMARK    7  A    between atoms: S_15  and  C_16
REMARK    8  A    between atoms: C_20  and  C_33
REMARK    9  A    between atoms: N_26  and  C_27
REMARK   10  A    between atoms: C_27  and  C_28
REMARK                            x       y       z     vdW  Elec       q    Type
REMARK                         _______ _______ _______ _____ _____    ______ ____
ROOT
ATOM      1  C   UNL     1       2.364   0.460   0.511  0.00  0.00    +0.173 A 
ATOM      2  N   UNL     1       2.629  -0.823   0.547  0.00  0.00    -0.223 NA
ATOM      3  C   UNL     1       1.650  -1.744   0.707  0.00  0.00    +0.080 A 
ATOM      4  C   UNL     1       1.934  -3.112   0.745  0.00  0.00    +0.043 A 
ATOM      5  C   UNL     1       0.897  -4.021   0.911  0.00  0.00    +0.065 A 
ATOM      6  C   UNL     1      -0.425  -3.575   1.039  0.00  0.00    +0.016 A 
ATOM      7  C   UNL     1      -0.715  -2.241   1.002  0.00  0.00    +0.016 A 
ATOM      8  C   UNL     1       0.311  -1.311   0.837  0.00  0.00    +0.065 A 
ATOM      9  C   UNL     1       0.043   0.135   0.792  0.00  0.00    +0.263 A 
ATOM     10  O   UNL     1      -1.089   0.570   0.894  0.00  0.00    -0.267 OA
ATOM     11  N   UNL     1       1.100   0.964   0.629  0.00  0.00    -0.280 N 
ENDROOT
BRANCH   5  12
ATOM     12  C   UNL     1       1.190  -5.470   0.953  0.00  0.00    +0.387 C 
ATOM     13  O   UNL     1       2.334  -5.862   0.843  0.00  0.00    -0.241 OA
ATOM     14  O   UNL     1       0.188  -6.356   1.114  0.00  0.00    -0.241 OA
ENDBRANCH   5  12
BRANCH   1  15
ATOM     15  S   UNL     1       3.701   1.588   0.300  0.00  0.00    -0.075 S 
BRANCH  15  16
ATOM     16  C   UNL     1       5.083   0.423   0.202  0.00  0.00    +0.137 C 
ATOM     17  C   UNL     1       4.936  -0.438  -1.054  0.00  0.00    +0.029 C 
BRANCH  16  19
ATOM     18  N   UNL     1       7.520   0.617   0.579  0.00  0.00    -0.271 N 
ATOM     19  C   UNL     1       6.380   1.187   0.139  0.00  0.00    +0.233 C 
ATOM     20  O   UNL     1       6.399   2.314  -0.308  0.00  0.00    -0.274 OA
BRANCH  18  21
ATOM     21  C   UNL     1       8.702   1.363   0.626  0.00  0.00    +0.036 A 
ATOM     22  C   UNL     1       9.840   0.828   1.215  0.00  0.00    +0.023 A 
ATOM     23  C   UNL     1      11.007   1.565   1.256  0.00  0.00    +0.002 A 
ATOM     24  C   UNL     1      11.040   2.840   0.720  0.00  0.00    +0.000 A 
ATOM     25  C   UNL     1       9.908   3.378   0.137  0.00  0.00    +0.002 A 
ATOM     26  C   UNL     1       8.739   2.643   0.088  0.00  0.00    +0.023 A 
ENDBRANCH  18  21
BRANCH  18  28
ATOM     27  C   UNL     1       8.002  -1.669  -0.144  0.00  0.00    +0.025 C 
ATOM     28  C   UNL     1       7.520  -0.784   1.007  0.00  0.00    +0.110 C 
ENDBRANCH  18  28
ENDBRANCH  16  19
ENDBRANCH  15  16
ENDBRANCH   1  15
BRANCH  11  29
ATOM     29  C   UNL     1       0.887   2.412   0.578  0.00  0.00    +0.201 C 
BRANCH  29  30
ATOM     30  C   UNL     1       0.975   2.982   1.970  0.00  0.00    +0.125 A 
ATOM     31  C   UNL     1       2.094   3.428   2.569  0.00  0.00    +0.046 A 
ATOM     32  C   UNL     1       1.719   3.874   3.857  0.00  0.00    +0.041 A 
ATOM     33  C   UNL     1       0.395   3.666   3.972  0.00  0.00    +0.195 A 
ATOM     34  O   UNL     1      -0.051   3.126   2.826  0.00  0.00    -0.466 OA
ENDBRANCH  29  30
ENDBRANCH  11  29
TORSDOF 8
