REMARK  Name = ZINC22781890
REMARK  10 active torsions:
REMARK  status: ('A' for Active; 'I' for Inactive)
REMARK    1  A    between atoms: C_1  and  C_2
REMARK    2  A    between atoms: C_2  and  C_3
REMARK    3  A    between atoms: C_8  and  N_9
REMARK    4  A    between atoms: C_10  and  C_12
REMARK    5  A    between atoms: C_12  and  N_13
REMARK    6  A    between atoms: N_16  and  C_19
REMARK    7  A    between atoms: C_19  and  C_20
REMARK    8  A    between atoms: N_22  and  C_23
REMARK    9  A    between atoms: C_23  and  C_25
REMARK   10  A    between atoms: C_23  and  C_26
REMARK                            x       y       z     vdW  Elec       q    Type
REMARK                         _______ _______ _______ _____ _____    ______ ____
ROOT
ATOM      1  N   UNL     1      -0.462  -0.527   0.390  0.00  0.00    -0.298 NA
ATOM      2  C   UNL     1       0.148  -1.086  -0.825  0.00  0.00    +0.066 C 
ATOM      3  C   UNL     1       0.040  -2.613  -0.789  0.00  0.00    -0.063 C 
ATOM      4  N   UNL     1      -1.374  -3.000  -0.687  0.00  0.00    +0.387 N 
ATOM      5  C   UNL     1      -1.983  -2.440   0.527  0.00  0.00    -0.063 C 
ATOM      6  C   UNL     1      -1.876  -0.914   0.492  0.00  0.00    +0.066 C 
ATOM      7  H   UNL     1      -1.904  -2.583  -1.556  0.00  0.00    -0.081 HD
ENDROOT
BRANCH   1   8
ATOM      8  C   UNL     1      -0.311   0.934   0.430  0.00  0.00    +0.180 C 
BRANCH   8  10
ATOM      9  N   UNL     1       1.527   2.577   0.628  0.00  0.00    -0.284 N 
ATOM     10  C   UNL     1       1.147   1.285   0.570  0.00  0.00    +0.231 C 
ATOM     11  O   UNL     1       1.980   0.405   0.631  0.00  0.00    -0.274 OA
ATOM     12  H   UNL     1       0.768   3.373   0.649  0.00  0.00    +0.155 HD
BRANCH   9  18
ATOM     13  C   UNL     1       3.336   4.069   0.051  0.00  0.00    -0.026 A 
ATOM     14  C   UNL     1       4.679   4.391   0.086  0.00  0.00    +0.005 A 
ATOM     15  C   UNL     1       5.575   3.556   0.727  0.00  0.00    +0.000 A 
ATOM     16  C   UNL     1       5.130   2.397   1.336  0.00  0.00    +0.002 A 
ATOM     17  C   UNL     1       3.788   2.072   1.310  0.00  0.00    +0.023 A 
ATOM     18  C   UNL     1       2.886   2.906   0.661  0.00  0.00    +0.037 A 
BRANCH  13  20
ATOM     19  C   UNL     1       1.731   5.932   0.372  0.00  0.00    +0.009 C 
ATOM     20  C   UNL     1       2.360   4.980  -0.648  0.00  0.00    +0.033 C 
ENDBRANCH  13  20
ENDBRANCH   9  18
ENDBRANCH   8  10
ENDBRANCH   1   8
BRANCH   4  21
ATOM     21  C   UNL     1      -1.524  -4.460  -0.727  0.00  0.00    +0.019 C 
BRANCH  21  22
ATOM     22  C   UNL     1      -1.113  -4.971  -2.084  0.00  0.00    +0.197 C 
ATOM     23  O   UNL     1      -0.733  -4.194  -2.934  0.00  0.00    -0.278 OA
ATOM     24  N   UNL     1      -1.169  -6.290  -2.353  0.00  0.00    -0.310 N 
ATOM     25  H   UNL     1      -1.514  -6.995  -1.581  0.00  0.00    +0.149 HD
BRANCH  24  26
ATOM     26  C   UNL     1      -0.769  -6.787  -3.672  0.00  0.00    +0.101 C 
ATOM     27  C   UNL     1      -1.982  -6.789  -4.604  0.00  0.00    +0.033 C 
BRANCH  26  28
ATOM     28  C   UNL     1      -0.235  -8.190  -3.540  0.00  0.00    -0.020 A 
ATOM     29  C   UNL     1      -0.648  -8.986  -2.516  0.00  0.00    +0.006 A 
ATOM     30  C   UNL     1      -0.169 -10.287  -2.381  0.00  0.00    +0.001 A 
ATOM     31  C   UNL     1       0.735 -10.797  -3.263  0.00  0.00    +0.008 A 
ATOM     32  C   UNL     1       1.188 -10.003  -4.329  0.00  0.00    -0.018 A 
ATOM     33  C   UNL     1       0.697  -8.681  -4.470  0.00  0.00    -0.013 A 
ATOM     34  C   UNL     1       1.151  -7.887  -5.537  0.00  0.00    +0.009 A 
ATOM     35  C   UNL     1       2.053  -8.397  -6.419  0.00  0.00    +0.001 A 
ATOM     36  C   UNL     1       2.536  -9.697  -6.281  0.00  0.00    +0.001 A 
ATOM     37  C   UNL     1       2.120 -10.494  -5.260  0.00  0.00    +0.008 A 
ENDBRANCH  26  28
ENDBRANCH  24  26
ENDBRANCH  21  22
ENDBRANCH   4  21
TORSDOF 8
