REMARK  Name = ZINC29065676
REMARK  7 active torsions:
REMARK  status: ('A' for Active; 'I' for Inactive)
REMARK    1  A    between atoms: C_4  and  O_25
REMARK    2  A    between atoms: C_5  and  C_7
REMARK    3  A    between atoms: N_9  and  C_10
REMARK    4  A    between atoms: C_12  and  S_17
REMARK    5  A    between atoms: C_15  and  O_16
REMARK    6  A    between atoms: S_17  and  N_20
REMARK    7  A    between atoms: O_25  and  C_26
REMARK                            x       y       z     vdW  Elec       q    Type
REMARK                         _______ _______ _______ _____ _____    ______ ____
ROOT
ATOM      1  C   UNL     1      -2.568   1.412   3.115  0.00  0.00    +0.077 A 
ATOM      2  C   UNL     1      -1.859   1.031   1.985  0.00  0.00    +0.055 A 
ATOM      3  C   UNL     1      -0.947   1.900   1.417  0.00  0.00    +0.107 A 
ATOM      4  C   UNL     1      -0.735   3.147   1.975  0.00  0.00    +0.032 A 
ATOM      5  C   UNL     1      -1.442   3.536   3.098  0.00  0.00    +0.049 A 
ATOM      6  C   UNL     1      -2.358   2.671   3.673  0.00  0.00    +0.138 A 
ENDROOT
BRANCH   1   9
ATOM      7  C   UNL     1      -3.365  -0.796   3.510  0.00  0.00    +0.252 C 
ATOM      8  O   UNL     1      -2.391  -1.239   2.931  0.00  0.00    -0.270 OA
ATOM      9  N   UNL     1      -3.493   0.533   3.692  0.00  0.00    -0.278 N 
ATOM     10  H   UNL     1      -4.325   0.928   4.294  0.00  0.00    +0.155 HD
BRANCH   7  15
ATOM     11  C   UNL     1      -6.490  -2.072   5.149  0.00  0.00    +0.001 A 
ATOM     12  C   UNL     1      -6.358  -3.438   4.962  0.00  0.00    +0.004 A 
ATOM     13  C   UNL     1      -5.258  -3.950   4.305  0.00  0.00    +0.046 A 
ATOM     14  C   UNL     1      -4.274  -3.097   3.827  0.00  0.00    +0.139 A 
ATOM     15  C   UNL     1      -4.404  -1.714   4.014  0.00  0.00    +0.079 A 
ATOM     16  C   UNL     1      -5.521  -1.210   4.685  0.00  0.00    +0.017 A 
BRANCH  14  17
ATOM     17  O   UNL     1      -3.192  -3.598   3.181  0.00  0.00    -0.433 OA
BRANCH  17  18
ATOM     18  C   UNL     1      -3.128  -5.018   3.028  0.00  0.00    +0.541 C 
ATOM     19  F   UNL     1      -3.128  -5.623   4.289  0.00  0.00    -0.166 F 
ATOM     20  F   UNL     1      -4.237  -5.458   2.299  0.00  0.00    -0.166 F 
ENDBRANCH  17  18
ENDBRANCH  14  17
ENDBRANCH   7  15
ENDBRANCH   1   9
BRANCH   3  21
ATOM     21  S   UNL     1      -0.046   1.415  -0.018  0.00  0.00    +0.061 S 
ATOM     22  O   UNL     1      -0.024  -0.006  -0.022  0.00  0.00    -0.153 OA
ATOM     23  O   UNL     1       1.141   2.196  -0.036  0.00  0.00    -0.153 OA
BRANCH  21  24
ATOM     24  N   UNL     1      -0.937   1.877  -1.335  0.00  0.00    -0.177 NA
ATOM     25  C   UNL     1      -1.952   1.058  -2.013  0.00  0.00    +0.109 C 
ATOM     26  C   UNL     1      -2.497   1.888  -3.194  0.00  0.00    +0.018 C 
ATOM     27  C   UNL     1      -1.353   2.902  -3.461  0.00  0.00    +0.018 C 
ATOM     28  C   UNL     1      -0.840   3.176  -2.025  0.00  0.00    +0.109 C 
ENDBRANCH  21  24
ENDBRANCH   3  21
BRANCH   6  29
ATOM     29  O   UNL     1      -3.050   3.049   4.781  0.00  0.00    -0.505 OA
ATOM     30  H   UNL     1      -2.883   4.043   5.221  0.00  0.00    +0.292 HD
ENDBRANCH   6  29
TORSDOF 7
