REMARK  Name = ZINC04330247
REMARK  4 active torsions:
REMARK  status: ('A' for Active; 'I' for Inactive)
REMARK    1  A    between atoms: C_6  and  C_7
REMARK    2  A    between atoms: C_13  and  C_15
REMARK    3  A    between atoms: C_16  and  C_17
REMARK    4  A    between atoms: C_20  and  N_22
REMARK                            x       y       z     vdW  Elec       q    Type
REMARK                         _______ _______ _______ _____ _____    ______ ____
ROOT
ATOM      1  C   UNL     1      -0.016   1.307   0.009  0.00  0.00    +0.250 A 
ATOM      2  N   UNL     1       0.002  -0.004   0.002  0.00  0.00    -0.106 NA
ATOM      3  N   UNL     1       1.221  -0.415  -0.012  0.00  0.00    -0.092 NA
ATOM      4  C   UNL     1       2.030   0.618  -0.014  0.00  0.00    +0.315 A 
ATOM      5  O   UNL     1       1.268   1.728  -0.001  0.00  0.00    -0.405 OA
ATOM      6  N   UNL     1       3.413   0.575  -0.028  0.00  0.00    -0.235 N 
ATOM      7  C   UNL     1       4.050  -0.613  -0.041  0.00  0.00    +0.244 C 
ATOM      8  O   UNL     1       3.409  -1.648  -0.040  0.00  0.00    -0.270 OA
ATOM      9  H   UNL     1       3.924   1.400  -0.029  0.00  0.00    +0.160 HD
ENDROOT
BRANCH   1  15
ATOM     10  C   UNL     1      -1.087   3.556   0.032  0.00  0.00    +0.014 A 
ATOM     11  C   UNL     1      -2.213   4.352   0.037  0.00  0.00    +0.021 A 
ATOM     12  C   UNL     1      -3.472   3.775   0.041  0.00  0.00    +0.041 A 
ATOM     13  C   UNL     1      -3.609   2.397   0.034  0.00  0.00    +0.021 A 
ATOM     14  C   UNL     1      -2.490   1.590   0.024  0.00  0.00    +0.014 A 
ATOM     15  C   UNL     1      -1.218   2.166   0.020  0.00  0.00    +0.039 A 
ATOM     16 CL   UNL     1      -4.885   4.784   0.054  0.00  0.00    -0.084 Cl
ENDBRANCH   1  15
BRANCH   7  17
ATOM     17  C   UNL     1       5.463  -0.656  -0.055  0.00  0.00    +0.069 C 
ATOM     18  C   UNL     1       6.105  -1.852  -0.068  0.00  0.00    +0.020 C 
BRANCH  18  19
ATOM     19  C   UNL     1       7.520  -1.896  -0.083  0.00  0.00    +0.015 A 
ATOM     20  C   UNL     1       8.362  -3.002  -0.091  0.00  0.00    +0.018 A 
ATOM     21  C   UNL     1       9.712  -2.757  -0.110  0.00  0.00    +0.041 A 
ATOM     22  C   UNL     1      10.153  -1.471  -0.107  0.00  0.00    +0.164 A 
ATOM     23  S   UNL     1       8.687  -0.547  -0.086  0.00  0.00    -0.065 S 
BRANCH  22  24
ATOM     24  N   UNL     1      11.550  -0.979  -0.118  0.00  0.00    +0.063 N 
ATOM     25  O   UNL     1      12.475  -1.772  -0.132  0.00  0.00    -0.126 OA
ATOM     26  O   UNL     1      11.774   0.218  -0.113  0.00  0.00    -0.126 OA
ENDBRANCH  22  24
ENDBRANCH  18  19
ENDBRANCH   7  17
TORSDOF 4
