REMARK  Name = ZINC05226301
REMARK  8 active torsions:
REMARK  status: ('A' for Active; 'I' for Inactive)
REMARK    1  A    between atoms: C_1  and  N_2
REMARK    2  A    between atoms: N_7  and  C_10
REMARK    3  A    between atoms: N_11  and  C_25
REMARK    4  A    between atoms: N_14  and  N_15
REMARK    5  A    between atoms: C_16  and  C_17
REMARK    6  A    between atoms: C_22  and  O_23
REMARK    7  A    between atoms: C_25  and  C_26
REMARK    8  A    between atoms: C_26  and  O_27
REMARK                            x       y       z     vdW  Elec       q    Type
REMARK                         _______ _______ _______ _____ _____    ______ ____
ROOT
ATOM      1  C   UNL     1      -2.235   3.905   4.967  0.00  0.00    +0.155 C 
ATOM      2  N   UNL     1      -1.315   3.853   3.828  0.00  0.00    -0.280 N 
ATOM      3  C   UNL     1      -1.339   2.767   2.967  0.00  0.00    +0.170 A 
ATOM      4  C   UNL     1      -0.452   2.741   1.897  0.00  0.00    +0.153 A 
ATOM      5  C   UNL     1       0.442   3.812   1.720  0.00  0.00    +0.282 A 
ATOM      6  O   UNL     1       1.226   3.812   0.787  0.00  0.00    -0.265 OA
ATOM      7  N   UNL     1       0.422   4.840   2.593  0.00  0.00    -0.262 N 
ATOM      8  C   UNL     1      -0.437   4.854   3.626  0.00  0.00    +0.333 A 
ATOM      9  O   UNL     1      -0.427   5.797   4.394  0.00  0.00    -0.246 OA
ATOM     10  C   UNL     1       1.351   5.958   2.412  0.00  0.00    +0.157 C 
ATOM     11  N   UNL     1      -0.698   1.558   1.213  0.00  0.00    -0.303 N 
ATOM     12  C   UNL     1      -1.696   0.920   1.883  0.00  0.00    +0.218 A 
ATOM     13  N   UNL     1      -2.064   1.649   2.918  0.00  0.00    -0.195 NA
ATOM     14  N   UNL     1      -2.237  -0.296   1.534  0.00  0.00    -0.206 N 
ATOM     15  H   UNL     1      -1.907  -0.768   0.753  0.00  0.00    +0.177 HD
ENDROOT
BRANCH  14  16
ATOM     16  N   UNL     1      -3.265  -0.853   2.305  0.00  0.00    -0.187 NA
ATOM     17  C   UNL     1      -3.775  -2.000   1.976  0.00  0.00    +0.142 C 
BRANCH  17  18
ATOM     18  C   UNL     1      -4.857  -2.586   2.788  0.00  0.00    +0.037 A 
ATOM     19  C   UNL     1      -5.408  -3.821   2.437  0.00  0.00    +0.028 A 
ATOM     20  C   UNL     1      -6.420  -4.364   3.202  0.00  0.00    +0.019 A 
ATOM     21  C   UNL     1      -6.891  -3.690   4.317  0.00  0.00    +0.019 A 
ATOM     22  C   UNL     1      -6.353  -2.468   4.673  0.00  0.00    +0.047 A 
ATOM     23  C   UNL     1      -5.333  -1.911   3.920  0.00  0.00    +0.126 A 
ATOM     24 BR   UNL     1      -7.168  -6.034   2.726  0.00  0.00    -0.050 Br
BRANCH  23  25
ATOM     25  O   UNL     1      -4.800  -0.712   4.273  0.00  0.00    -0.506 OA
ATOM     26  H   UNL     1      -5.246   0.049   3.876  0.00  0.00    +0.292 HD
ENDBRANCH  23  25
ENDBRANCH  17  18
ENDBRANCH  14  16
BRANCH  11  27
ATOM     27  C   UNL     1      -0.013   1.086   0.008  0.00  0.00    +0.153 C 
BRANCH  27  28
ATOM     28  C   UNL     1      -0.753   1.593  -1.232  0.00  0.00    +0.177 C 
BRANCH  28  29
ATOM     29  O   UNL     1      -0.084   1.132  -2.407  0.00  0.00    -0.393 OA
ATOM     30  H   UNL     1      -0.499   1.416  -3.233  0.00  0.00    +0.209 HD
ENDBRANCH  28  29
ENDBRANCH  27  28
ENDBRANCH  11  27
TORSDOF 6
