REMARK  Name = ZINC03535594
REMARK  8 active torsions:
REMARK  status: ('A' for Active; 'I' for Inactive)
REMARK    1  A    between atoms: C_1  and  C_2
REMARK    2  A    between atoms: C_8  and  C_10
REMARK    3  A    between atoms: C_10  and  S_11
REMARK    4  A    between atoms: S_11  and  C_12
REMARK    5  A    between atoms: C_15  and  C_18
REMARK    6  A    between atoms: N_16  and  N_17
REMARK    7  A    between atoms: C_21  and  O_24
REMARK    8  A    between atoms: O_24  and  C_25
REMARK                            x       y       z     vdW  Elec       q    Type
REMARK                         _______ _______ _______ _____ _____    ______ ____
ROOT
ATOM      1  C   UNL     1       4.806  -5.553   2.500  0.00  0.00    +0.209 A 
ATOM      2  N   UNL     1       4.331  -5.147   3.656  0.00  0.00    -0.121 NA
ATOM      3  N   UNL     1       4.978  -5.699   4.619  0.00  0.00    -0.127 NA
ATOM      4  C   UNL     1       5.906  -6.493   4.138  0.00  0.00    +0.182 A 
ATOM      5  N   UNL     1       5.822  -6.428   2.766  0.00  0.00    -0.224 N 
ENDROOT
BRANCH   4   6
ATOM      6  C   UNL     1       6.859  -7.306   4.922  0.00  0.00    +0.021 A 
ATOM      7  C   UNL     1       7.987  -7.851   4.305  0.00  0.00    +0.015 A 
ATOM      8  C   UNL     1       8.874  -8.609   5.040  0.00  0.00    +0.046 A 
ATOM      9  C   UNL     1       8.646  -8.831   6.392  0.00  0.00    +0.127 A 
ATOM     10  C   UNL     1       7.526  -8.291   7.009  0.00  0.00    +0.046 A 
ATOM     11  C   UNL     1       6.637  -7.527   6.282  0.00  0.00    +0.015 A 
BRANCH   9  12
ATOM     12  O   UNL     1       9.522  -9.579   7.113  0.00  0.00    -0.434 OA
BRANCH  12  13
ATOM     13  C   UNL     1       9.227  -9.768   8.498  0.00  0.00    +0.541 C 
ATOM     14  F   UNL     1       9.179  -8.524   9.138  0.00  0.00    -0.166 F 
ATOM     15  F   UNL     1       7.990 -10.407   8.629  0.00  0.00    -0.166 F 
ENDBRANCH  12  13
ENDBRANCH   9  12
ENDBRANCH   4   6
BRANCH   5  16
ATOM     16  N   UNL     1       6.594  -7.097   1.859  0.00  0.00    -0.295 N 
ATOM     17  H   UNL     1       7.413  -6.561   1.617  0.00  0.00    +0.163 HD
ATOM     18  H   UNL     1       6.848  -8.011   2.204  0.00  0.00    +0.163 HD
ENDBRANCH   5  16
BRANCH   1  19
ATOM     19  S   UNL     1       4.236  -5.067   0.906  0.00  0.00    -0.075 S 
BRANCH  19  20
ATOM     20  C   UNL     1       2.889  -3.904   1.257  0.00  0.00    +0.173 C 
BRANCH  20  28
ATOM     21  C   UNL     1      -0.019   1.526   0.010  0.00  0.00    +0.007 C 
ATOM     22  C   UNL     1       0.002  -0.004   0.002  0.00  0.00    -0.011 C 
ATOM     23  C   UNL     1       0.717  -0.497  -1.258  0.00  0.00    +0.022 C 
ATOM     24  C   UNL     1       0.705  -2.029  -1.280  0.00  0.00    +0.108 C 
ATOM     25  N   UNL     1       1.285  -2.525  -0.025  0.00  0.00    -0.301 N 
ATOM     26  C   UNL     1       0.731  -2.043   1.248  0.00  0.00    +0.108 C 
ATOM     27  C   UNL     1       0.742  -0.511   1.242  0.00  0.00    +0.022 C 
ATOM     28  C   UNL     1       2.305  -3.405  -0.040  0.00  0.00    +0.226 C 
ATOM     29  O   UNL     1       2.754  -3.796  -1.097  0.00  0.00    -0.275 OA
ENDBRANCH  20  28
ENDBRANCH  19  20
ENDBRANCH   1  19
TORSDOF 7
