REMARK  Name = ZINC39710896
REMARK  12 active torsions:
REMARK  status: ('A' for Active; 'I' for Inactive)
REMARK    1  A    between atoms: C_1  and  C_2
REMARK    2  A    between atoms: C_8  and  C_14
REMARK    3  A    between atoms: C_14  and  C_16
REMARK    4  A    between atoms: C_14  and  N_26
REMARK    5  A    between atoms: N_21  and  C_22
REMARK    6  A    between atoms: C_22  and  C_23
REMARK    7  A    between atoms: C_22  and  C_24
REMARK    8  A    between atoms: C_22  and  C_25
REMARK    9  A    between atoms: N_26  and  C_27
REMARK   10  A    between atoms: N_26  and  C_34
REMARK   11  A    between atoms: C_27  and  C_28
REMARK   12  A    between atoms: C_34  and  C_35
REMARK                            x       y       z     vdW  Elec       q    Type
REMARK                         _______ _______ _______ _____ _____    ______ ____
ROOT
ATOM      1  C   UNL     1      -1.215  -2.603   4.949  0.00  0.00    -0.008 C 
ENDROOT
BRANCH   1   9
ATOM      2  C   UNL     1       1.391   0.118   0.104  0.00  0.00    +0.045 C 
ATOM      3  C   UNL     1       1.307  -1.331   0.508  0.00  0.00    -0.029 A 
ATOM      4  C   UNL     1       1.587  -2.302  -0.400  0.00  0.00    +0.005 A 
ATOM      5  C   UNL     1       1.528  -3.661  -0.091  0.00  0.00    +0.001 A 
ATOM      6  C   UNL     1       1.184  -4.090   1.151  0.00  0.00    +0.009 A 
ATOM      7  C   UNL     1       0.870  -3.097   2.178  0.00  0.00    -0.007 A 
ATOM      8  C   UNL     1       0.519  -3.481   3.438  0.00  0.00    -0.006 C 
ATOM      9  C   UNL     1       0.211  -2.384   4.439  0.00  0.00    +0.088 C 
ATOM     10  C   UNL     1       0.316  -0.955   3.958  0.00  0.00    +0.223 C 
ATOM     11  O   UNL     1       0.080  -0.035   4.718  0.00  0.00    -0.275 OA
ATOM     12  N   UNL     1       0.667  -0.708   2.707  0.00  0.00    -0.284 N 
ATOM     13  C   UNL     1       0.945  -1.669   1.825  0.00  0.00    +0.043 A 
ATOM     14  H   UNL     1       0.729   0.216   2.418  0.00  0.00    +0.155 HD
ENDBRANCH   1   9
BRANCH   1  15
ATOM     15  C   UNL     1      -1.306  -3.963   5.643  0.00  0.00    +0.205 C 
ATOM     16  N   UNL     1      -0.047  -4.271   6.335  0.00  0.00    -0.152 NA
ATOM     17  N   UNL     1       0.434  -5.298   5.850  0.00  0.00    -0.070 NA
ATOM     18  N   UNL     1      -0.346  -5.831   4.825  0.00  0.00    -0.179 N 
ATOM     19  N   UNL     1      -1.456  -5.042   4.643  0.00  0.00    -0.183 NA
ATOM     20  H   UNL     1      -0.139  -6.632   4.320  0.00  0.00    +0.191 HD
BRANCH  19  21
ATOM     21  C   UNL     1      -2.690  -5.805   4.873  0.00  0.00    +0.035 C 
ATOM     22  C   UNL     1      -3.891  -4.859   4.824  0.00  0.00    +0.029 C 
ATOM     23  C   UNL     1      -2.838  -6.874   3.789  0.00  0.00    +0.029 C 
ATOM     24  C   UNL     1      -2.626  -6.477   6.246  0.00  0.00    +0.029 C 
ENDBRANCH  19  21
ENDBRANCH   1  15
BRANCH   1  25
ATOM     25  N   UNL     1      -1.560  -1.542   5.906  0.00  0.00    +0.392 N 
ATOM     26  H   UNL     1      -1.423  -0.641   5.473  0.00  0.00    -0.080 HD
BRANCH  25  27
ATOM     27  C   UNL     1      -2.966  -1.684   6.307  0.00  0.00    -0.042 C 
BRANCH  27  28
ATOM     28  C   UNL     1      -3.369  -0.503   7.153  0.00  0.00    -0.064 A 
ATOM     29  C   UNL     1      -3.207  -0.549   8.525  0.00  0.00    +0.002 A 
ATOM     30  C   UNL     1      -3.576   0.534   9.301  0.00  0.00    +0.000 A 
ATOM     31  C   UNL     1      -4.106   1.663   8.705  0.00  0.00    +0.000 A 
ATOM     32  C   UNL     1      -4.266   1.709   7.332  0.00  0.00    +0.000 A 
ATOM     33  C   UNL     1      -3.894   0.628   6.556  0.00  0.00    +0.002 A 
ENDBRANCH  27  28
ENDBRANCH  25  27
BRANCH  25  34
ATOM     34  C   UNL     1      -0.699  -1.652   7.091  0.00  0.00    -0.002 C 
BRANCH  34  35
ATOM     35  C   UNL     1       0.598  -0.927   6.838  0.00  0.00    +0.089 A 
ATOM     36  C   UNL     1       0.875   0.338   7.202  0.00  0.00    +0.042 A 
ATOM     37  C   UNL     1       2.194   0.608   6.769  0.00  0.00    +0.041 A 
ATOM     38  C   UNL     1       2.643  -0.507   6.167  0.00  0.00    +0.195 A 
ATOM     39  O   UNL     1       1.674  -1.436   6.217  0.00  0.00    -0.470 OA
ENDBRANCH  34  35
ENDBRANCH  25  34
ENDBRANCH   1  25
TORSDOF 8
