REMARK  Name = ZINC63392211
REMARK  5 active torsions:
REMARK  status: ('A' for Active; 'I' for Inactive)
REMARK    1  A    between atoms: C_1  and  N_2
REMARK    2  A    between atoms: C_3  and  C_5
REMARK    3  A    between atoms: C_8  and  N_11
REMARK    4  A    between atoms: N_14  and  C_15
REMARK    5  A    between atoms: C_20  and  N_21
REMARK                            x       y       z     vdW  Elec       q    Type
REMARK                         _______ _______ _______ _____ _____    ______ ____
ROOT
ATOM      1  N   UNL     1       3.451  -4.209  -1.065  0.00  0.00    -0.296 N 
ATOM      2  C   UNL     1       4.411  -4.869  -1.740  0.00  0.00    +0.304 C 
ATOM      3  O   UNL     1       4.138  -5.889  -2.344  0.00  0.00    -0.253 OA
ATOM      4  N   UNL     1       5.675  -4.400  -1.748  0.00  0.00    -0.268 N 
ATOM      5  H   UNL     1       3.668  -3.395  -0.583  0.00  0.00    +0.151 HD
ATOM      6  H   UNL     1       5.880  -3.553  -1.321  0.00  0.00    +0.156 HD
ENDROOT
BRANCH   4   7
ATOM      7  C   UNL     1       6.691  -5.133  -2.372  0.00  0.00    +0.062 A 
ATOM      8  C   UNL     1       6.416  -5.868  -3.517  0.00  0.00    +0.025 A 
ATOM      9  C   UNL     1       7.420  -6.592  -4.131  0.00  0.00    +0.003 A 
ATOM     10  C   UNL     1       8.700  -6.588  -3.609  0.00  0.00    +0.022 A 
ATOM     11  C   UNL     1       8.984  -5.858  -2.469  0.00  0.00    +0.068 A 
ATOM     12  C   UNL     1       7.982  -5.124  -1.848  0.00  0.00    +0.105 A 
ATOM     13 CL   UNL     1      10.592  -5.856  -1.817  0.00  0.00    -0.081 Cl
BRANCH  12  14
ATOM     14  N   UNL     1       8.268  -4.379  -0.695  0.00  0.00    -0.237 N 
ATOM     15  C   UNL     1       7.573  -4.408   0.464  0.00  0.00    +0.114 A 
ATOM     16  C   UNL     1       8.169  -3.550   1.325  0.00  0.00    +0.041 A 
ATOM     17  C   UNL     1       9.265  -2.977   0.671  0.00  0.00    +0.135 A 
ATOM     18  N   UNL     1       9.329  -3.477  -0.537  0.00  0.00    -0.175 NA
ENDBRANCH  12  14
ENDBRANCH   4   7
BRANCH   1  22
ATOM     19  C   UNL     1       0.594  -2.193  -1.045  0.00  0.00    +0.075 C 
ATOM     20  C   UNL     1       1.331  -2.692   0.199  0.00  0.00    +0.014 C 
ATOM     21  C   UNL     1       1.356  -4.222   0.197  0.00  0.00    +0.023 C 
ATOM     22  C   UNL     1       2.077  -4.719  -1.057  0.00  0.00    +0.074 C 
ATOM     23  C   UNL     1       1.341  -4.220  -2.301  0.00  0.00    +0.023 C 
ATOM     24  C   UNL     1       1.316  -2.690  -2.299  0.00  0.00    +0.014 C 
BRANCH  19  27
ATOM     25  C   UNL     1      -0.042   1.442  -0.027  0.00  0.00    +0.128 C 
ATOM     26  N   UNL     1      -0.018  -0.022  -0.029  0.00  0.00    -0.318 N 
ATOM     27  C   UNL     1       0.570  -0.686  -1.044  0.00  0.00    +0.216 C 
ATOM     28  O   UNL     1       1.080  -0.070  -1.956  0.00  0.00    -0.276 OA
ATOM     29  H   UNL     1      -0.426  -0.515   0.701  0.00  0.00    +0.148 HD
ENDBRANCH  19  27
ENDBRANCH   1  22
TORSDOF 4
