REMARK  Name = ZINC10432339
REMARK  6 active torsions:
REMARK  status: ('A' for Active; 'I' for Inactive)
REMARK    1  A    between atoms: C_3  and  S_24
REMARK    2  A    between atoms: C_6  and  C_7
REMARK    3  A    between atoms: C_7  and  N_8
REMARK    4  A    between atoms: C_9  and  C_11
REMARK    5  A    between atoms: C_16  and  C_17
REMARK    6  A    between atoms: S_24  and  N_27
REMARK                            x       y       z     vdW  Elec       q    Type
REMARK                         _______ _______ _______ _____ _____    ______ ____
ROOT
ATOM      1  N   UNL     1      -1.894  -0.786  -1.359  0.00  0.00    -0.307 N 
ATOM      2  C   UNL     1      -2.899  -1.650  -1.605  0.00  0.00    +0.248 C 
ATOM      3  O   UNL     1      -3.461  -2.208  -0.681  0.00  0.00    -0.270 OA
ATOM      4  H   UNL     1      -1.446  -0.341  -2.095  0.00  0.00    +0.149 HD
ENDROOT
BRANCH   2   5
ATOM      5  C   UNL     1      -3.317  -1.918  -2.991  0.00  0.00    +0.082 A 
ATOM      6  C   UNL     1      -2.713  -1.452  -4.141  0.00  0.00    +0.118 A 
ATOM      7  N   UNL     1      -3.404  -1.926  -5.189  0.00  0.00    -0.283 N 
ATOM      8  H   UNL     1      -3.194  -1.752  -6.121  0.00  0.00    +0.188 HD
ATOM      9  N   UNL     1      -4.469  -2.709  -4.737  0.00  0.00    -0.173 NA
ATOM     10  C   UNL     1      -4.453  -2.738  -3.423  0.00  0.00    +0.105 A 
BRANCH  10  11
ATOM     11  C   UNL     1      -5.405  -3.460  -2.545  0.00  0.00    +0.003 A 
ATOM     12  C   UNL     1      -5.925  -2.833  -1.414  0.00  0.00    +0.011 A 
ATOM     13  C   UNL     1      -6.811  -3.509  -0.599  0.00  0.00    +0.020 A 
ATOM     14  C   UNL     1      -7.182  -4.808  -0.904  0.00  0.00    +0.041 A 
ATOM     15  C   UNL     1      -6.668  -5.434  -2.027  0.00  0.00    +0.020 A 
ATOM     16  C   UNL     1      -5.786  -4.765  -2.850  0.00  0.00    +0.011 A 
ATOM     17 CL   UNL     1      -8.296  -5.653   0.124  0.00  0.00    -0.084 Cl
ENDBRANCH  10  11
ENDBRANCH   2   5
BRANCH   1  18
ATOM     18  C   UNL     1      -1.478  -0.519   0.021  0.00  0.00    +0.139 C 
BRANCH  18  24
ATOM     19  C   UNL     1      -0.614   1.829   0.084  0.00  0.00    +0.007 A 
ATOM     20  C   UNL     1       0.425   2.741   0.085  0.00  0.00    +0.029 A 
ATOM     21  C   UNL     1       1.733   2.298   0.021  0.00  0.00    +0.105 A 
ATOM     22  C   UNL     1       2.002   0.943  -0.042  0.00  0.00    +0.029 A 
ATOM     23  C   UNL     1       0.962   0.032  -0.042  0.00  0.00    +0.007 A 
ATOM     24  C   UNL     1      -0.346   0.475   0.021  0.00  0.00    -0.030 A 
BRANCH  21  25
ATOM     25  S   UNL     1       3.057   3.460   0.021  0.00  0.00    +0.061 S 
ATOM     26  O   UNL     1       4.163   2.814  -0.595  0.00  0.00    -0.153 OA
ATOM     27  O   UNL     1       2.523   4.684  -0.464  0.00  0.00    -0.153 OA
BRANCH  25  28
ATOM     28  N   UNL     1       3.481   3.720   1.600  0.00  0.00    -0.177 NA
ATOM     29  C   UNL     1       2.835   4.783   2.383  0.00  0.00    +0.109 C 
ATOM     30  C   UNL     1       2.276   4.175   3.673  0.00  0.00    +0.017 C 
ATOM     31  C   UNL     1       3.396   3.441   4.414  0.00  0.00    +0.003 C 
ATOM     32  C   UNL     1       3.931   2.306   3.537  0.00  0.00    +0.017 C 
ATOM     33  C   UNL     1       4.505   2.889   2.248  0.00  0.00    +0.109 C 
ENDBRANCH  25  28
ENDBRANCH  21  25
ENDBRANCH  18  24
ENDBRANCH   1  18
TORSDOF 6
