REMARK  Name = ZINC35430787
REMARK  4 active torsions:
REMARK  status: ('A' for Active; 'I' for Inactive)
REMARK    1  A    between atoms: C_6  and  C_7
REMARK    2  A    between atoms: N_12  and  C_15
REMARK    3  A    between atoms: C_15  and  C_16
REMARK    4  A    between atoms: N_18  and  C_19
REMARK                            x       y       z     vdW  Elec       q    Type
REMARK                         _______ _______ _______ _____ _____    ______ ____
ROOT
ATOM      1  C   UNL     1      -1.275  -0.759   0.023  0.00  0.00    +0.130 C 
ATOM      2  N   UNL     1      -1.368  -2.052   0.014  0.00  0.00    -0.253 NA
ATOM      3  C   UNL     1      -2.787  -2.411   0.028  0.00  0.00    +0.124 C 
ATOM      4  C   UNL     1      -3.110  -3.233   1.276  0.00  0.00    +0.031 C 
ATOM      5  C   UNL     1      -4.584  -3.645   1.241  0.00  0.00    -0.074 C 
ATOM      6  N   UNL     1      -4.844  -4.443   0.036  0.00  0.00    +0.386 N 
ATOM      7  C   UNL     1      -4.611  -3.628  -1.162  0.00  0.00    -0.074 C 
ATOM      8  C   UNL     1      -3.139  -3.215  -1.225  0.00  0.00    +0.031 C 
ATOM      9  N   UNL     1      -3.544  -1.155   0.045  0.00  0.00    -0.286 N 
ATOM     10  C   UNL     1      -2.633  -0.159   0.049  0.00  0.00    +0.264 C 
ATOM     11  O   UNL     1      -2.883   1.030   0.066  0.00  0.00    -0.268 OA
ATOM     12  H   UNL     1      -4.509  -1.059   0.057  0.00  0.00    +0.151 HD
ATOM     13  H   UNL     1      -4.227  -5.241   0.023  0.00  0.00    -0.081 HD
ENDROOT
BRANCH   1  19
ATOM     14  C   UNL     1      -0.029   1.400   0.031  0.00  0.00    +0.011 A 
ATOM     15  C   UNL     1       1.156   2.106   0.024  0.00  0.00    +0.016 A 
ATOM     16  C   UNL     1       2.366   1.432  -0.001  0.00  0.00    +0.018 A 
ATOM     17  C   UNL     1       2.394   0.048  -0.017  0.00  0.00    +0.016 A 
ATOM     18  C   UNL     1       1.215  -0.669  -0.010  0.00  0.00    +0.011 A 
ATOM     19  C   UNL     1      -0.007   0.004   0.015  0.00  0.00    +0.005 A 
ATOM     20 BR   UNL     1       3.986   2.407  -0.011  0.00  0.00    -0.050 Br
ENDBRANCH   1  19
BRANCH   6  21
ATOM     21  C   UNL     1      -6.238  -4.906   0.048  0.00  0.00    +0.019 C 
BRANCH  21  22
ATOM     22  C   UNL     1      -6.472  -5.825  -1.123  0.00  0.00    +0.201 C 
ATOM     23  O   UNL     1      -5.567  -6.070  -1.892  0.00  0.00    -0.278 OA
ATOM     24  N   UNL     1      -7.688  -6.374  -1.315  0.00  0.00    -0.287 N 
ATOM     25  H   UNL     1      -8.393  -6.233  -0.664  0.00  0.00    +0.155 HD
BRANCH  24  26
ATOM     26  C   UNL     1      -7.933  -7.150  -2.455  0.00  0.00    +0.035 A 
ATOM     27  C   UNL     1      -9.179  -7.113  -3.066  0.00  0.00    +0.026 A 
ATOM     28  C   UNL     1      -9.420  -7.878  -4.191  0.00  0.00    +0.041 A 
ATOM     29  C   UNL     1      -8.419  -8.682  -4.710  0.00  0.00    +0.142 A 
ATOM     30  C   UNL     1      -7.174  -8.720  -4.102  0.00  0.00    +0.078 A 
ATOM     31  C   UNL     1      -6.928  -7.951  -2.980  0.00  0.00    +0.046 A 
ATOM     32 CL   UNL     1      -5.921  -9.729  -4.755  0.00  0.00    -0.081 Cl
ATOM     33  F   UNL     1      -8.656  -9.430  -5.809  0.00  0.00    -0.204 F 
ENDBRANCH  24  26
ENDBRANCH  21  22
ENDBRANCH   6  21
TORSDOF 4
