REMARK  Name = ZINC05145910
REMARK  9 active torsions:
REMARK  status: ('A' for Active; 'I' for Inactive)
REMARK    1  A    between atoms: C_1  and  C_2
REMARK    2  A    between atoms: C_2  and  O_3
REMARK    3  A    between atoms: O_3  and  C_4
REMARK    4  A    between atoms: C_7  and  C_10
REMARK    5  A    between atoms: N_12  and  C_13
REMARK    6  A    between atoms: C_14  and  C_24
REMARK    7  A    between atoms: C_19  and  C_23
REMARK    8  A    between atoms: C_27  and  O_29
REMARK    9  A    between atoms: O_29  and  C_30
REMARK                            x       y       z     vdW  Elec       q    Type
REMARK                         _______ _______ _______ _____ _____    ______ ____
ROOT
ATOM      1  C   UNL     1       0.002  -0.004   0.002  0.00  0.00    +0.085 A 
ATOM      2  C   UNL     1      -0.017   1.385   0.010  0.00  0.00    +0.069 A 
ATOM      3  C   UNL     1       1.263   2.073   0.001  0.00  0.00    -0.023 A 
ATOM      4  C   UNL     1       2.349   1.270  -0.013  0.00  0.00    -0.004 A 
ATOM      5  S   UNL     1       1.694  -0.376  -0.016  0.00  0.00    -0.077 S 
ATOM      6  C   UNL     1       3.785   1.692  -0.023  0.00  0.00    +0.046 C 
ATOM      7  C   UNL     1       3.855   3.177   0.361  0.00  0.00    -0.009 C 
ATOM      8  C   UNL     1       2.821   3.950  -0.462  0.00  0.00    +0.008 C 
ATOM      9  C   UNL     1       1.410   3.590   0.006  0.00  0.00    +0.037 C 
ATOM     10  C   UNL     1       5.256   3.718   0.067  0.00  0.00    +0.008 C 
ENDROOT
BRANCH   2  11
ATOM     11  C   UNL     1      -1.279   2.128   0.020  0.00  0.00    +0.255 C 
ATOM     12  O   UNL     1      -1.798   2.431   1.078  0.00  0.00    -0.270 OA
ATOM     13  N   UNL     1      -1.866   2.475  -1.143  0.00  0.00    -0.217 N 
ATOM     14  C   UNL     1      -3.027   3.159  -1.133  0.00  0.00    +0.407 C 
ATOM     15  O   UNL     1      -3.546   3.462  -0.077  0.00  0.00    -0.226 OA
ATOM     16  H   UNL     1      -1.452   2.234  -1.986  0.00  0.00    +0.161 HD
BRANCH  14  17
ATOM     17  O   UNL     1      -3.613   3.506  -2.295  0.00  0.00    -0.453 OA
ATOM     18  C   UNL     1      -4.862   4.241  -2.209  0.00  0.00    +0.282 C 
ENDBRANCH  14  17
ENDBRANCH   2  11
BRANCH   1  21
ATOM     19  C   UNL     1      -0.856  -2.210  -0.002  0.00  0.00    +0.249 C 
ATOM     20  O   UNL     1       0.281  -2.642  -0.015  0.00  0.00    -0.270 OA
ATOM     21  N   UNL     1      -1.071  -0.879   0.007  0.00  0.00    -0.275 N 
ATOM     22  H   UNL     1      -1.978  -0.535   0.017  0.00  0.00    +0.156 HD
BRANCH  19  26
ATOM     23  C   UNL     1      -4.146  -4.894   0.013  0.00  0.00    +0.121 A 
ATOM     24  C   UNL     1      -2.848  -5.389  -0.002  0.00  0.00    +0.046 A 
ATOM     25  C   UNL     1      -1.778  -4.522  -0.007  0.00  0.00    +0.016 A 
ATOM     26  C   UNL     1      -1.999  -3.142   0.003  0.00  0.00    +0.037 A 
ATOM     27  C   UNL     1      -3.306  -2.648   0.023  0.00  0.00    +0.016 A 
ATOM     28  C   UNL     1      -4.371  -3.522   0.022  0.00  0.00    +0.046 A 
BRANCH  23  29
ATOM     29  O   UNL     1      -5.198  -5.751   0.019  0.00  0.00    -0.492 OA
BRANCH  29  31
ATOM     30  C   UNL     1      -7.554  -6.288   0.038  0.00  0.00    +0.048 C 
ATOM     31  C   UNL     1      -6.505  -5.175   0.034  0.00  0.00    +0.225 C 
ENDBRANCH  29  31
ENDBRANCH  23  29
ENDBRANCH  19  26
ENDBRANCH   1  21
TORSDOF 6
