REMARK  Name = ZINC13077379
REMARK  8 active torsions:
REMARK  status: ('A' for Active; 'I' for Inactive)
REMARK    1  A    between atoms: C_1  and  C_2
REMARK    2  A    between atoms: C_2  and  C_4
REMARK    3  A    between atoms: C_2  and  O_6
REMARK    4  A    between atoms: O_6  and  C_7
REMARK    5  A    between atoms: C_10  and  C_13
REMARK    6  A    between atoms: C_15  and  C_23
REMARK    7  A    between atoms: C_26  and  S_29
REMARK    8  A    between atoms: S_29  and  C_30
REMARK                            x       y       z     vdW  Elec       q    Type
REMARK                         _______ _______ _______ _____ _____    ______ ____
ROOT
ATOM      1  C   UNL     1       4.340   2.196  -1.228  0.00  0.00    +0.039 C 
ATOM      2  C   UNL     1       3.391   1.270  -1.220  0.00  0.00    +0.028 C 
ATOM      3  C   UNL     1       2.629   0.875   0.017  0.00  0.00    +0.167 C 
ATOM      4  N   UNL     1       3.278   1.440   1.194  0.00  0.00    -0.202 N 
ATOM      5  C   UNL     1       4.253   2.385   1.140  0.00  0.00    +0.240 A 
ATOM      6  N   UNL     1       4.591   2.662   2.367  0.00  0.00    -0.092 NA
ATOM      7  N   UNL     1       3.901   1.951   3.192  0.00  0.00    -0.021 NA
ATOM      8  N   UNL     1       3.082   1.183   2.549  0.00  0.00    -0.042 NA
ATOM      9  N   UNL     1       4.717   2.884  -0.067  0.00  0.00    -0.282 N 
ATOM     10  H   UNL     1       5.279   3.674  -0.106  0.00  0.00    +0.155 HD
ENDROOT
BRANCH   1  14
ATOM     11  C   UNL     1       6.298   3.107  -4.889  0.00  0.00    +0.122 A 
ATOM     12  C   UNL     1       6.656   3.777  -3.727  0.00  0.00    +0.046 A 
ATOM     13  C   UNL     1       6.023   3.484  -2.538  0.00  0.00    +0.013 A 
ATOM     14  C   UNL     1       5.022   2.514  -2.503  0.00  0.00    -0.004 A 
ATOM     15  C   UNL     1       4.668   1.839  -3.672  0.00  0.00    +0.013 A 
ATOM     16  C   UNL     1       5.301   2.141  -4.859  0.00  0.00    +0.046 A 
BRANCH  11  17
ATOM     17  O   UNL     1       6.924   3.398  -6.059  0.00  0.00    -0.478 OA
BRANCH  17  19
ATOM     18  C   UNL     1       7.490   5.748  -6.062  0.00  0.00    +0.064 C 
ATOM     19  C   UNL     1       8.020   4.314  -5.999  0.00  0.00    +0.282 C 
BRANCH  19  20
ATOM     20  C   UNL     1       8.944   4.068  -7.163  0.00  0.00    +0.395 C 
ATOM     21  O   UNL     1       8.646   3.261  -8.011  0.00  0.00    -0.242 OA
ATOM     22  O   UNL     1      10.099   4.746  -7.258  0.00  0.00    -0.242 OA
ENDBRANCH  19  20
ENDBRANCH  17  19
ENDBRANCH  11  17
ENDBRANCH   1  14
BRANCH   3  23
ATOM     23  C   UNL     1       1.218   1.396  -0.076  0.00  0.00    -0.019 A 
ATOM     24  C   UNL     1       0.153   0.513  -0.046  0.00  0.00    +0.007 A 
ATOM     25  C   UNL     1      -1.141   0.986  -0.136  0.00  0.00    +0.015 A 
ATOM     26  C   UNL     1      -1.374   2.352  -0.246  0.00  0.00    +0.008 A 
ATOM     27  C   UNL     1      -0.302   3.236  -0.276  0.00  0.00    +0.015 A 
ATOM     28  C   UNL     1       0.990   2.755  -0.191  0.00  0.00    +0.007 A 
BRANCH  26  29
ATOM     29  S   UNL     1      -3.024   2.960  -0.355  0.00  0.00    -0.129 S 
ATOM     30  C   UNL     1      -4.049   1.465  -0.275  0.00  0.00    +0.090 C 
ENDBRANCH  26  29
ENDBRANCH   3  23
TORSDOF 6
