REMARK  Name = ZINC08358764
REMARK  7 active torsions:
REMARK  status: ('A' for Active; 'I' for Inactive)
REMARK    1  A    between atoms: C_1  and  C_2
REMARK    2  A    between atoms: C_2  and  O_3
REMARK    3  A    between atoms: O_3  and  C_4
REMARK    4  A    between atoms: C_7  and  C_10
REMARK    5  A    between atoms: N_12  and  N_13
REMARK    6  A    between atoms: C_14  and  C_16
REMARK    7  A    between atoms: C_17  and  C_18
REMARK                            x       y       z     vdW  Elec       q    Type
REMARK                         _______ _______ _______ _____ _____    ______ ____
ROOT
ATOM      1  N   UNL     1      -3.400  -7.987  -0.016  0.00  0.00    -0.231 N 
ATOM      2  C   UNL     1      -4.639  -8.519  -0.013  0.00  0.00    +0.253 C 
ATOM      3  O   UNL     1      -5.614  -7.791  -0.004  0.00  0.00    -0.269 OA
ATOM      4  H   UNL     1      -2.623  -8.567  -0.024  0.00  0.00    +0.173 HD
ENDROOT
BRANCH   1   7
ATOM      5  C   UNL     1      -1.997  -6.064  -0.013  0.00  0.00    +0.260 C 
ATOM      6  O   UNL     1      -1.023  -6.791  -0.022  0.00  0.00    -0.269 OA
ATOM      7  N   UNL     1      -3.236  -6.596  -0.009  0.00  0.00    -0.230 N 
ATOM      8  H   UNL     1      -4.013  -6.015  -0.002  0.00  0.00    +0.173 HD
BRANCH   5  12
ATOM      9  C   UNL     1      -1.498  -1.846   0.006  0.00  0.00    +0.121 A 
ATOM     10  C   UNL     1      -0.383  -2.676  -0.003  0.00  0.00    +0.046 A 
ATOM     11  C   UNL     1      -0.541  -4.044  -0.009  0.00  0.00    +0.016 A 
ATOM     12  C   UNL     1      -1.824  -4.598  -0.006  0.00  0.00    +0.038 A 
ATOM     13  C   UNL     1      -2.942  -3.760   0.004  0.00  0.00    +0.016 A 
ATOM     14  C   UNL     1      -2.776  -2.393   0.016  0.00  0.00    +0.046 A 
BRANCH   9  15
ATOM     15  O   UNL     1      -1.339  -0.499   0.012  0.00  0.00    -0.492 OA
BRANCH  15  17
ATOM     16  C   UNL     1      -0.019   1.526   0.010  0.00  0.00    +0.048 C 
ATOM     17  C   UNL     1       0.002  -0.004   0.002  0.00  0.00    +0.225 C 
ENDBRANCH  15  17
ENDBRANCH   9  15
ENDBRANCH   5  12
ENDBRANCH   1   7
BRANCH   2  18
ATOM     18  C   UNL     1      -4.811  -9.971  -0.020  0.00  0.00    +0.069 C 
ATOM     19  C   UNL     1      -6.051 -10.504  -0.017  0.00  0.00    +0.013 C 
BRANCH  19  20
ATOM     20  C   UNL     1      -6.224 -11.964  -0.024  0.00  0.00    -0.021 A 
ATOM     21  C   UNL     1      -5.104 -12.804  -0.028  0.00  0.00    +0.012 A 
ATOM     22  C   UNL     1      -5.270 -14.170  -0.036  0.00  0.00    +0.050 A 
ATOM     23  C   UNL     1      -6.547 -14.722  -0.038  0.00  0.00    +0.162 A 
ATOM     24  C   UNL     1      -7.666 -13.892  -0.032  0.00  0.00    +0.163 A 
ATOM     25  C   UNL     1      -7.508 -12.519  -0.020  0.00  0.00    +0.057 A 
ATOM     26  O   UNL     1      -8.922 -14.418  -0.026  0.00  0.00    -0.485 OA
ATOM     27  C   UNL     1      -9.046 -15.792  -0.407  0.00  0.00    +0.270 C 
ATOM     28  C   UNL     1      -7.965 -16.594   0.329  0.00  0.00    +0.270 C 
ATOM     29  O   UNL     1      -6.685 -16.075  -0.050  0.00  0.00    -0.485 OA
ENDBRANCH  19  20
ENDBRANCH   2  18
TORSDOF 6
