REMARK  Name = ZINC09557537
REMARK  12 active torsions:
REMARK  status: ('A' for Active; 'I' for Inactive)
REMARK    1  A    between atoms: C_1  and  C_2
REMARK    2  A    between atoms: C_2  and  N_3
REMARK    3  A    between atoms: C_13  and  C_24
REMARK    4  A    between atoms: C_14  and  O_23
REMARK    5  A    between atoms: N_17  and  C_18
REMARK    6  A    between atoms: C_18  and  C_19
REMARK    7  A    between atoms: C_19  and  C_20
REMARK    8  A    between atoms: C_20  and  N_67
REMARK    9  A    between atoms: C_21  and  N_67
REMARK   10  A    between atoms: C_22  and  N_67
REMARK   11  A    between atoms: C_24  and  C_26
REMARK   12  A    between atoms: C_33  and  C_36
REMARK                            x       y       z     vdW  Elec       q    Type
REMARK                         _______ _______ _______ _____ _____    ______ ____
ROOT
ATOM      1  N   UNL     1      -2.825  -1.073  -0.146  0.00  0.00    -0.269 N 
ATOM      2  C   UNL     1      -2.912  -0.860   1.231  0.00  0.00    +0.042 A 
ATOM      3  C   UNL     1      -3.115  -1.753   2.280  0.00  0.00    +0.024 A 
ATOM      4  C   UNL     1      -3.164  -1.296   3.581  0.00  0.00    +0.002 A 
ATOM      5  C   UNL     1      -3.013   0.051   3.854  0.00  0.00    +0.000 A 
ATOM      6  C   UNL     1      -2.811   0.945   2.818  0.00  0.00    +0.008 A 
ATOM      7  C   UNL     1      -2.762   0.493   1.518  0.00  0.00    +0.011 A 
ATOM      8  C   UNL     1      -2.564   1.180   0.193  0.00  0.00    +0.174 C 
ATOM      9  C   UNL     1      -2.621   0.070  -0.826  0.00  0.00    +0.253 C 
ATOM     10  O   UNL     1      -2.505   0.186  -2.027  0.00  0.00    -0.272 OA
ATOM     11  C   UNL     1      -1.244   1.899   0.142  0.00  0.00    +0.083 C 
ATOM     12  C   UNL     1      -1.526   3.202  -0.105  0.00  0.00    +0.189 C 
ATOM     13  C   UNL     1      -2.990   3.366  -0.229  0.00  0.00    +0.283 C 
ATOM     14  O   UNL     1      -3.558   4.417  -0.452  0.00  0.00    -0.267 OA
ATOM     15  N   UNL     1      -3.602   2.178  -0.051  0.00  0.00    -0.273 N 
ENDROOT
BRANCH   1  17
ATOM     16  C   UNL     1      -4.415  -2.693  -1.056  0.00  0.00    +0.025 C 
ATOM     17  C   UNL     1      -2.941  -2.390  -0.777  0.00  0.00    +0.110 C 
ENDBRANCH   1  17
BRANCH  12  18
ATOM     18  O   UNL     1      -0.613   4.193  -0.223  0.00  0.00    -0.502 OA
ATOM     19  H   UNL     1      -1.081   5.058  -0.404  0.00  0.00    +0.292 HD
ENDBRANCH  12  18
BRANCH  11  20
ATOM     20  C   UNL     1       0.085   1.309   0.329  0.00  0.00    +0.196 C 
ATOM     21  O   UNL     1       0.462   0.998   1.444  0.00  0.00    -0.287 OA
BRANCH  20  22
ATOM     22  C   UNL     1       0.969   1.096  -0.835  0.00  0.00    +0.023 A 
ATOM     23  C   UNL     1       0.587   1.549  -2.102  0.00  0.00    +0.015 A 
ATOM     24  C   UNL     1       1.412   1.353  -3.183  0.00  0.00    +0.046 A 
ATOM     25  C   UNL     1       2.636   0.700  -3.030  0.00  0.00    +0.124 A 
ATOM     26  C   UNL     1       3.008   0.246  -1.767  0.00  0.00    -0.002 A 
ATOM     27  C   UNL     1       2.197   0.445  -0.678  0.00  0.00    +0.019 A 
ATOM     28  C   UNL     1       4.360  -0.425  -1.918  0.00  0.00    +0.083 C 
ATOM     29  C   UNL     1       4.450  -0.620  -3.450  0.00  0.00    +0.175 C 
ATOM     30  O   UNL     1       3.592   0.417  -3.954  0.00  0.00    -0.488 OA
ATOM     31  C   UNL     1       3.927  -2.000  -3.852  0.00  0.00    +0.052 C 
ENDBRANCH  20  22
ENDBRANCH  11  20
BRANCH  15  32
ATOM     32  C   UNL     1      -5.046   1.933  -0.094  0.00  0.00    +0.108 C 
BRANCH  32  33
ATOM     33  C   UNL     1      -5.635   2.104   1.308  0.00  0.00    +0.000 C 
BRANCH  33  34
ATOM     34  C   UNL     1      -7.143   1.849   1.262  0.00  0.00    -0.078 C 
BRANCH  34  37
ATOM     35  C   UNL     1      -7.604   3.408   3.056  0.00  0.00    -0.097 C 
ATOM     36  C   UNL     1      -9.101   1.548   2.655  0.00  0.00    -0.097 C 
ATOM     37  N   UNL     1      -7.692   1.997   2.626  0.00  0.00    +0.376 N 
ATOM     38  H   UNL     1      -7.144   1.416   3.272  0.00  0.00    -0.083 HD
ENDBRANCH  34  37
ENDBRANCH  33  34
ENDBRANCH  32  33
ENDBRANCH  15  32
TORSDOF 8
