REMARK  Name = ZINC43667144
REMARK  5 active torsions:
REMARK  status: ('A' for Active; 'I' for Inactive)
REMARK    1  A    between atoms: C_3  and  N_18
REMARK    2  A    between atoms: C_5  and  S_7
REMARK    3  A    between atoms: S_7  and  N_10
REMARK    4  A    between atoms: N_21  and  C_22
REMARK    5  A    between atoms: C_22  and  C_23
REMARK                            x       y       z     vdW  Elec       q    Type
REMARK                         _______ _______ _______ _____ _____    ______ ____
ROOT
ATOM      1  C   UNL     1      -0.013   1.376  -0.181  0.00  0.00    +0.004 A 
ATOM      2  C   UNL     1       1.175   2.082  -0.183  0.00  0.00    +0.023 A 
ATOM      3  C   UNL     1       2.379   1.411  -0.019  0.00  0.00    +0.037 A 
ATOM      4  C   UNL     1       2.386   0.032   0.147  0.00  0.00    +0.052 A 
ATOM      5  C   UNL     1       1.196  -0.667   0.148  0.00  0.00    +0.114 A 
ATOM      6  C   UNL     1      -0.002   0.003  -0.016  0.00  0.00    +0.029 A 
ENDROOT
BRANCH   3   7
ATOM      7  N   UNL     1       3.584   2.124  -0.021  0.00  0.00    -0.269 N 
ATOM      8  C   UNL     1       3.628   3.375   0.478  0.00  0.00    +0.304 C 
ATOM      9  O   UNL     1       2.647   3.849   1.017  0.00  0.00    -0.253 OA
ATOM     10  N   UNL     1       4.760   4.100   0.379  0.00  0.00    -0.297 N 
ATOM     11  H   UNL     1       4.387   1.717  -0.382  0.00  0.00    +0.156 HD
ATOM     12  H   UNL     1       5.542   3.722  -0.051  0.00  0.00    +0.150 HD
BRANCH  10  13
ATOM     13  C   UNL     1       4.808   5.460   0.922  0.00  0.00    +0.137 C 
BRANCH  13  14
ATOM     14  C   UNL     1       6.195   6.057   0.680  0.00  0.00    +0.135 C 
ATOM     15  C   UNL     1       6.279   7.484   1.278  0.00  0.00    +0.035 C 
ATOM     16  C   UNL     1       7.808   7.617   1.513  0.00  0.00    +0.031 C 
ATOM     17  C   UNL     1       8.209   6.173   1.886  0.00  0.00    +0.160 C 
ATOM     18  O   UNL     1       7.194   5.297   1.379  0.00  0.00    -0.375 OA
ENDBRANCH  13  14
ENDBRANCH  10  13
ENDBRANCH   3   7
BRANCH   5  19
ATOM     19  S   UNL     1       1.204  -2.417   0.357  0.00  0.00    +0.100 S 
ATOM     20  O   UNL     1       0.001  -2.901  -0.224  0.00  0.00    -0.146 OA
ATOM     21  O   UNL     1       2.486  -2.870  -0.056  0.00  0.00    -0.146 OA
BRANCH  19  22
ATOM     22  N   UNL     1       1.098  -2.716   1.983  0.00  0.00    -0.118 NA
ATOM     23  C   UNL     1       1.084  -3.934   2.417  0.00  0.00    +0.117 C 
ATOM     24  C   UNL     1       1.172  -5.098   1.433  0.00  0.00    +0.073 C 
ATOM     25  C   UNL     1       2.524  -5.749   1.627  0.00  0.00    +0.008 C 
ATOM     26  C   UNL     1       2.527  -6.840   2.699  0.00  0.00    +0.002 C 
ATOM     27  C   UNL     1       1.744  -6.450   3.953  0.00  0.00    +0.019 C 
ATOM     28  C   UNL     1       1.995  -5.025   4.395  0.00  0.00    +0.102 C 
ATOM     29  N   UNL     1       0.999  -4.174   3.710  0.00  0.00    -0.331 N 
ATOM     30  H   UNL     1       0.272  -3.788   4.223  0.00  0.00    +0.147 HD
ENDBRANCH  19  22
ENDBRANCH   5  19
TORSDOF 5
