REMARK  Name = ZINC39674231
REMARK  9 active torsions:
REMARK  status: ('A' for Active; 'I' for Inactive)
REMARK    1  A    between atoms: C_1  and  C_2
REMARK    2  A    between atoms: C_4  and  C_9
REMARK    3  A    between atoms: C_5  and  C_8
REMARK    4  A    between atoms: C_9  and  C_11
REMARK    5  A    between atoms: C_9  and  N_12
REMARK    6  A    between atoms: C_13  and  C_15
REMARK    7  A    between atoms: C_26  and  C_28
REMARK    8  A    between atoms: C_28  and  C_29
REMARK    9  A    between atoms: C_29  and  C_30
REMARK                            x       y       z     vdW  Elec       q    Type
REMARK                         _______ _______ _______ _____ _____    ______ ____
ROOT
ATOM      1  C   UNL     1       0.305   3.075  -4.237  0.00  0.00    +0.100 C 
ATOM      2  C   UNL     1      -1.101   3.591  -3.859  0.00  0.00    +0.121 C 
ATOM      3  N   UNL     1      -1.470   4.511  -4.960  0.00  0.00    -0.300 N 
ATOM      4  C   UNL     1      -0.965   3.844  -6.183  0.00  0.00    +0.115 C 
ATOM      5  C   UNL     1       0.391   3.242  -5.763  0.00  0.00    -0.004 C 
ATOM      6  C   UNL     1       0.595   1.886  -6.432  0.00  0.00    -0.010 C 
ATOM      7  C   UNL     1       0.736   2.084  -7.944  0.00  0.00    -0.082 C 
ATOM      8  N   UNL     1       1.876   2.966  -8.220  0.00  0.00    +0.379 N 
ATOM      9  C   UNL     1       1.630   4.296  -7.652  0.00  0.00    -0.082 C 
ATOM     10  C   UNL     1       1.527   4.192  -6.128  0.00  0.00    -0.010 C 
ATOM     11  C   UNL     1      -2.118   5.690  -4.869  0.00  0.00    +0.216 C 
ATOM     12  O   UNL     1      -2.350   6.333  -5.871  0.00  0.00    -0.276 OA
ATOM     13  H   UNL     1       2.710   2.574  -7.808  0.00  0.00    -0.086 HD
ATOM     14  H   UNL     1       2.004   3.046  -9.218  0.00  0.00    -0.086 HD
ENDROOT
BRANCH   1  16
ATOM     15  N   UNL     1       1.667   1.121  -3.567  0.00  0.00    -0.309 N 
ATOM     16  C   UNL     1       0.451   1.623  -3.859  0.00  0.00    +0.219 C 
ATOM     17  O   UNL     1      -0.527   0.907  -3.817  0.00  0.00    -0.275 OA
ATOM     18  H   UNL     1       2.449   1.694  -3.601  0.00  0.00    +0.149 HD
BRANCH  15  19
ATOM     19  C   UNL     1       1.808  -0.290  -3.200  0.00  0.00    +0.100 C 
ATOM     20  C   UNL     1       1.614  -0.446  -1.690  0.00  0.00    +0.033 C 
BRANCH  19  23
ATOM     21  C   UNL     1       4.682   1.236  -3.625  0.00  0.00    +0.039 C 
ATOM     22  C   UNL     1       4.526  -0.210  -3.152  0.00  0.00    +0.154 C 
ATOM     23  C   UNL     1       3.183  -0.774  -3.582  0.00  0.00    -0.001 C 
ATOM     24  C   UNL     1       3.503  -1.798  -4.377  0.00  0.00    +0.063 C 
ATOM     25  N   UNL     1       4.845  -1.923  -4.480  0.00  0.00    -0.159 NA
ATOM     26  N   UNL     1       5.492  -1.089  -3.834  0.00  0.00    -0.180 NA
ATOM     27  C   UNL     1       2.505  -2.692  -5.064  0.00  0.00    +0.067 C 
ENDBRANCH  19  23
ENDBRANCH  15  19
ENDBRANCH   1  16
BRANCH  11  28
ATOM     28  C   UNL     1      -2.556   6.207  -3.523  0.00  0.00    +0.096 C 
BRANCH  28  29
ATOM     29  C   UNL     1      -3.264   7.553  -3.700  0.00  0.00    +0.013 C 
BRANCH  29  30
ATOM     30  C   UNL     1      -3.708   8.078  -2.333  0.00  0.00    -0.011 C 
ATOM     31  C   UNL     1      -4.823   7.181  -1.759  0.00  0.00    +0.003 C 
ATOM     32  C   UNL     1      -5.777   8.170  -1.044  0.00  0.00    +0.000 C 
ATOM     33  C   UNL     1      -5.769   9.396  -1.991  0.00  0.00    +0.000 C 
ATOM     34  C   UNL     1      -4.309   9.487  -2.481  0.00  0.00    +0.003 C 
ENDBRANCH  29  30
ENDBRANCH  28  29
ENDBRANCH  11  28
TORSDOF 6
