REMARK  Name = ZINC39985459
REMARK  10 active torsions:
REMARK  status: ('A' for Active; 'I' for Inactive)
REMARK    1  A    between atoms: C_1  and  C_2
REMARK    2  A    between atoms: C_2  and  N_3
REMARK    3  A    between atoms: N_3  and  C_4
REMARK    4  A    between atoms: N_3  and  S_18
REMARK    5  A    between atoms: C_4  and  C_5
REMARK    6  A    between atoms: N_7  and  C_8
REMARK    7  A    between atoms: C_12  and  N_15
REMARK    8  A    between atoms: C_13  and  C_14
REMARK    9  A    between atoms: S_18  and  C_21
REMARK   10  A    between atoms: C_24  and  C_27
REMARK                            x       y       z     vdW  Elec       q    Type
REMARK                         _______ _______ _______ _____ _____    ______ ____
ROOT
ATOM      1  C   UNL     1       2.010  -0.647  -1.136  0.00  0.00    +0.205 C 
ENDROOT
BRANCH   1   2
ATOM      2  C   UNL     1       2.453  -1.979  -0.589  0.00  0.00    +0.233 C 
ATOM      3  O   UNL     1       1.629  -2.781  -0.204  0.00  0.00    -0.274 OA
ATOM      4  N   UNL     1       3.766  -2.279  -0.526  0.00  0.00    -0.284 N 
ATOM      5  H   UNL     1       4.420  -1.674  -0.909  0.00  0.00    +0.155 HD
BRANCH   4   6
ATOM      6  C   UNL     1       4.184  -3.463   0.090  0.00  0.00    +0.039 A 
ATOM      7  C   UNL     1       3.388  -4.064   1.056  0.00  0.00    +0.024 A 
ATOM      8  C   UNL     1       3.804  -5.233   1.663  0.00  0.00    +0.004 A 
ATOM      9  C   UNL     1       5.012  -5.806   1.308  0.00  0.00    +0.033 A 
ATOM     10  C   UNL     1       5.807  -5.210   0.346  0.00  0.00    +0.131 A 
ATOM     11  C   UNL     1       5.394  -4.044  -0.268  0.00  0.00    +0.001 A 
ATOM     12  C   UNL     1       6.258  -3.399  -1.321  0.00  0.00    +0.048 C 
BRANCH  10  13
ATOM     13  N   UNL     1       7.100  -5.826  -0.029  0.00  0.00    +0.057 N 
ATOM     14  O   UNL     1       7.211  -7.029  -0.054  0.00  0.00    -0.126 OA
ATOM     15  O   UNL     1       8.044  -5.125  -0.312  0.00  0.00    -0.126 OA
ENDBRANCH  10  13
ENDBRANCH   4   6
ENDBRANCH   1   2
BRANCH   1  16
ATOM     16  N   UNL     1       0.548  -0.565  -1.097  0.00  0.00    -0.168 NA
BRANCH  16  17
ATOM     17  S   UNL     1      -0.340  -0.966  -2.437  0.00  0.00    +0.061 S 
ATOM     18  O   UNL     1       0.468  -1.840  -3.212  0.00  0.00    -0.153 OA
ATOM     19  O   UNL     1      -1.632  -1.332  -1.973  0.00  0.00    -0.153 OA
BRANCH  17  20
ATOM     20  C   UNL     1      -0.544   0.505  -3.385  0.00  0.00    +0.106 A 
ATOM     21  C   UNL     1      -1.630   1.329  -3.158  0.00  0.00    +0.029 A 
ATOM     22  C   UNL     1      -1.790   2.483  -3.902  0.00  0.00    +0.005 A 
ATOM     23  C   UNL     1      -0.864   2.813  -4.873  0.00  0.00    -0.050 A 
ATOM     24  C   UNL     1       0.223   1.990  -5.100  0.00  0.00    +0.005 A 
ATOM     25  C   UNL     1       0.385   0.838  -4.353  0.00  0.00    +0.029 A 
ATOM     26  C   UNL     1      -1.039   4.071  -5.685  0.00  0.00    +0.044 C 
ENDBRANCH  17  20
ENDBRANCH  16  17
BRANCH  16  28
ATOM     27  C   UNL     1      -0.190   1.399   0.160  0.00  0.00    +0.022 C 
ATOM     28  C   UNL     1      -0.129  -0.129   0.127  0.00  0.00    +0.106 C 
ENDBRANCH  16  28
ENDBRANCH   1  16
TORSDOF 7
