REMARK  Name = ZINC20694764
REMARK  12 active torsions:
REMARK  status: ('A' for Active; 'I' for Inactive)
REMARK    1  A    between atoms: C_1  and  C_2
REMARK    2  A    between atoms: C_2  and  N_3
REMARK    3  A    between atoms: N_3  and  C_4
REMARK    4  A    between atoms: N_3  and  C_6
REMARK    5  A    between atoms: C_4  and  C_5
REMARK    6  A    between atoms: C_6  and  C_7
REMARK    7  A    between atoms: C_7  and  N_8
REMARK    8  A    between atoms: C_9  and  C_11
REMARK    9  A    between atoms: C_24  and  C_27
REMARK   10  A    between atoms: C_31  and  O_34
REMARK   11  A    between atoms: C_32  and  O_33
REMARK   12  A    between atoms: O_34  and  C_35
REMARK                            x       y       z     vdW  Elec       q    Type
REMARK                         _______ _______ _______ _____ _____    ______ ____
ROOT
ATOM      1  C   UNL     1      -4.598   4.919   1.477  0.00  0.00    +0.037 A 
ATOM      2  C   UNL     1      -4.191   4.952   2.814  0.00  0.00    +0.015 A 
ATOM      3  C   UNL     1      -2.889   4.659   3.144  0.00  0.00    +0.024 A 
ATOM      4  C   UNL     1      -1.966   4.328   2.155  0.00  0.00    +0.031 A 
ATOM      5  C   UNL     1      -2.378   4.284   0.815  0.00  0.00    -0.019 A 
ATOM      6  C   UNL     1      -3.676   4.582   0.482  0.00  0.00    +0.019 A 
ATOM      7  C   UNL     1      -1.367   3.909  -0.198  0.00  0.00    +0.049 C 
ATOM      8  C   UNL     1      -1.465   4.360  -1.610  0.00  0.00    -0.023 C 
ATOM      9  C   UNL     1      -0.237   4.516  -2.091  0.00  0.00    -0.030 C 
ATOM     10  C   UNL     1       0.794   4.208  -1.003  0.00  0.00    +0.033 C 
ATOM     11  C   UNL     1      -0.005   4.503   0.273  0.00  0.00    +0.029 C 
ATOM     12  C   UNL     1       0.371   3.696   1.512  0.00  0.00    +0.109 C 
ATOM     13  N   UNL     1      -0.648   4.056   2.521  0.00  0.00    -0.336 N 
ATOM     14  H   UNL     1      -0.372   4.113   3.584  0.00  0.00    +0.147 HD
ENDROOT
BRANCH  12  15
ATOM     15  C   UNL     1       1.744   4.088   1.995  0.00  0.00    +0.018 A 
ATOM     16  C   UNL     1       1.881   5.040   2.989  0.00  0.00    +0.009 A 
ATOM     17  C   UNL     1       3.138   5.397   3.438  0.00  0.00    +0.004 A 
ATOM     18  C   UNL     1       4.265   4.814   2.888  0.00  0.00    +0.049 A 
ATOM     19  C   UNL     1       4.134   3.864   1.888  0.00  0.00    +0.162 A 
ATOM     20  C   UNL     1       2.868   3.499   1.439  0.00  0.00    +0.163 A 
BRANCH  20  21
ATOM     21  O   UNL     1       2.735   2.568   0.458  0.00  0.00    -0.503 OA
ATOM     22  H   UNL     1       3.628   2.101   0.017  0.00  0.00    +0.292 HD
ENDBRANCH  20  21
BRANCH  19  23
ATOM     23  O   UNL     1       5.241   3.289   1.345  0.00  0.00    -0.491 OA
ATOM     24  C   UNL     1       6.507   3.712   1.854  0.00  0.00    +0.277 C 
ENDBRANCH  19  23
ENDBRANCH  12  15
BRANCH   1  26
ATOM     25  N   UNL     1      -6.878   5.564   2.081  0.00  0.00    -0.313 N 
ATOM     26  C   UNL     1      -5.992   5.239   1.118  0.00  0.00    +0.244 C 
ATOM     27  O   UNL     1      -6.343   5.209  -0.045  0.00  0.00    -0.270 OA
ATOM     28  H   UNL     1      -6.561   5.591   3.134  0.00  0.00    +0.149 HD
BRANCH  25  29
ATOM     29  C   UNL     1      -8.263   5.882   1.725  0.00  0.00    +0.086 C 
BRANCH  29  30
ATOM     30  C   UNL     1      -9.053   6.214   2.993  0.00  0.00    -0.060 C 
BRANCH  30  31
ATOM     31  N   UNL     1     -10.441   6.532   2.636  0.00  0.00    +0.380 N 
ATOM     32  H   UNL     1     -10.420   7.302   1.850  0.00  0.00    -0.082 HD
BRANCH  31  34
ATOM     33  C   UNL     1     -11.157   4.248   3.152  0.00  0.00    -0.017 C 
ATOM     34  C   UNL     1     -11.130   5.353   2.094  0.00  0.00    -0.082 C 
ENDBRANCH  31  34
BRANCH  31  35
ATOM     35  C   UNL     1     -11.168   7.083   3.787  0.00  0.00    -0.082 C 
ATOM     36  C   UNL     1     -12.454   7.758   3.304  0.00  0.00    -0.017 C 
ENDBRANCH  31  35
ENDBRANCH  30  31
ENDBRANCH  29  30
ENDBRANCH  25  29
ENDBRANCH   1  26
TORSDOF 9
