REMARK  Name = ZINC63302121
REMARK  5 active torsions:
REMARK  status: ('A' for Active; 'I' for Inactive)
REMARK    1  A    between atoms: C_6  and  N_7
REMARK    2  A    between atoms: C_8  and  C_10
REMARK    3  A    between atoms: C_10  and  S_11
REMARK    4  A    between atoms: S_11  and  C_12
REMARK    5  A    between atoms: C_18  and  N_22
REMARK                            x       y       z     vdW  Elec       q    Type
REMARK                         _______ _______ _______ _____ _____    ______ ____
ROOT
ATOM      1  C   UNL     1      -3.765  -5.369  -0.455  0.00  0.00    +0.236 C 
ATOM      2  N   UNL     1      -4.572  -5.013   0.719  0.00  0.00    -0.355 N 
ATOM      3  C   UNL     1      -5.620  -4.370   0.292  0.00  0.00    +0.061 A 
ATOM      4  C   UNL     1      -6.773  -3.771   0.978  0.00  0.00    +0.029 A 
ATOM      5  C   UNL     1      -7.729  -3.153   0.257  0.00  0.00    +0.035 A 
ATOM      6  C   UNL     1      -7.676  -3.054  -1.145  0.00  0.00    +0.128 A 
ATOM      7  C   UNL     1      -6.664  -3.569  -1.872  0.00  0.00    +0.060 A 
ATOM      8  C   UNL     1      -5.564  -4.265  -1.192  0.00  0.00    +0.063 A 
ATOM      9  N   UNL     1      -4.482  -4.848  -1.625  0.00  0.00    -0.355 N 
ATOM     10  H   UNL     1      -4.202  -4.924  -2.551  0.00  0.00    +0.162 HD
ATOM     11  H   UNL     1      -4.363  -5.220   1.643  0.00  0.00    +0.162 HD
ENDROOT
BRANCH   6  12
ATOM     12  N   UNL     1      -8.774  -2.356  -1.850  0.00  0.00    +0.056 N 
ATOM     13  O   UNL     1      -9.694  -1.885  -1.222  0.00  0.00    -0.126 OA
ATOM     14  O   UNL     1      -8.752  -2.257  -3.055  0.00  0.00    -0.126 OA
ENDBRANCH   6  12
BRANCH   1  15
ATOM     15  S   UNL     1      -2.125  -4.603  -0.338  0.00  0.00    -0.106 S 
BRANCH  15  16
ATOM     16  C   UNL     1      -2.478  -2.828  -0.205  0.00  0.00    +0.169 C 
BRANCH  16  18
ATOM     17  N   UNL     1      -1.199  -0.722   0.010  0.00  0.00    -0.285 N 
ATOM     18  C   UNL     1      -1.183  -2.065  -0.100  0.00  0.00    +0.227 C 
ATOM     19  O   UNL     1      -0.126  -2.659  -0.113  0.00  0.00    -0.275 OA
ATOM     20  H   UNL     1      -2.044  -0.253   0.097  0.00  0.00    +0.155 HD
BRANCH  17  26
ATOM     21  C   UNL     1       1.072  -0.453  -0.766  0.00  0.00    +0.024 A 
ATOM     22  C   UNL     1       2.256   0.258  -0.777  0.00  0.00    +0.016 A 
ATOM     23  C   UNL     1       2.377   1.416  -0.030  0.00  0.00    +0.013 A 
ATOM     24  C   UNL     1       1.312   1.866   0.730  0.00  0.00    +0.016 A 
ATOM     25  C   UNL     1       0.126   1.159   0.745  0.00  0.00    +0.024 A 
ATOM     26  C   UNL     1       0.002  -0.004  -0.004  0.00  0.00    +0.033 A 
ATOM     27  I   UNL     1       4.175   2.490  -0.050  0.00  0.00    -0.044 I 
ENDBRANCH  17  26
ENDBRANCH  16  18
ENDBRANCH  15  16
ENDBRANCH   1  15
TORSDOF 5
