REMARK  Name = ZINC00165794
REMARK  3 active torsions:
REMARK  status: ('A' for Active; 'I' for Inactive)
REMARK    1  A    between atoms: C_4  and  C_11
REMARK    2  A    between atoms: C_6  and  N_7
REMARK    3  A    between atoms: N_13  and  C_14
REMARK                            x       y       z     vdW  Elec       q    Type
REMARK                         _______ _______ _______ _____ _____    ______ ____
ROOT
ATOM      1  C   UNL     1      -1.242   5.901  -0.058  0.00  0.00    +0.254 C 
ATOM      2  O   UNL     1      -2.288   5.282  -0.051  0.00  0.00    -0.270 OA
ATOM      3  N   UNL     1      -0.069   5.242   0.029  0.00  0.00    -0.281 N 
ATOM      4  H   UNL     1       0.761   5.738   0.101  0.00  0.00    +0.155 HD
ENDROOT
BRANCH   1   8
ATOM      5  C   UNL     1      -1.280  10.139  -0.358  0.00  0.00    +0.038 A 
ATOM      6  C   UNL     1      -1.232   9.368  -1.506  0.00  0.00    +0.041 A 
ATOM      7  C   UNL     1      -1.214   7.989  -1.418  0.00  0.00    +0.138 A 
ATOM      8  C   UNL     1      -1.256   7.372  -0.163  0.00  0.00    +0.109 A 
ATOM      9  C   UNL     1      -1.304   8.159   0.993  0.00  0.00    +0.168 A 
ATOM     10  C   UNL     1      -1.316   9.537   0.887  0.00  0.00    +0.162 A 
ATOM     11  F   UNL     1      -1.340   7.573   2.210  0.00  0.00    -0.202 F 
ATOM     12  F   UNL     1      -1.162   7.239  -2.540  0.00  0.00    -0.205 F 
BRANCH  10  13
ATOM     13  N   UNL     1      -1.369  10.371   2.108  0.00  0.00    +0.059 N 
ATOM     14  O   UNL     1      -1.379  11.586   2.016  0.00  0.00    -0.126 OA
ATOM     15  O   UNL     1      -1.401   9.844   3.205  0.00  0.00    -0.126 OA
ENDBRANCH  10  13
ENDBRANCH   1   8
BRANCH   3  16
ATOM     16  C   UNL     1      -0.050   3.844   0.017  0.00  0.00    +0.036 A 
ATOM     17  C   UNL     1      -0.988   3.142  -0.729  0.00  0.00    +0.043 A 
ATOM     18  C   UNL     1      -0.967   1.760  -0.739  0.00  0.00    +0.044 A 
ATOM     19  C   UNL     1      -0.012   1.076  -0.008  0.00  0.00    +0.040 A 
ATOM     20  C   UNL     1       0.921   1.773   0.740  0.00  0.00    +0.044 A 
ATOM     21  C   UNL     1       0.908   3.155   0.749  0.00  0.00    +0.043 A 
ATOM     22 CL   UNL     1       2.114   0.911   1.661  0.00  0.00    -0.083 Cl
ATOM     23 CL   UNL     1      -2.140   0.882  -1.669  0.00  0.00    -0.083 Cl
ENDBRANCH   3  16
TORSDOF 3
