REMARK  Name = ZINC08315194
REMARK  11 active torsions:
REMARK  status: ('A' for Active; 'I' for Inactive)
REMARK    1  A    between atoms: C_1  and  C_2
REMARK    2  A    between atoms: C_2  and  C_3
REMARK    3  A    between atoms: C_2  and  O_4
REMARK    4  A    between atoms: O_4  and  C_5
REMARK    5  A    between atoms: C_8  and  S_19
REMARK    6  A    between atoms: C_10  and  N_11
REMARK    7  A    between atoms: N_14  and  C_15
REMARK    8  A    between atoms: C_15  and  C_16
REMARK    9  A    between atoms: C_15  and  C_17
REMARK   10  A    between atoms: C_15  and  C_18
REMARK   11  A    between atoms: S_19  and  N_22
REMARK                            x       y       z     vdW  Elec       q    Type
REMARK                         _______ _______ _______ _____ _____    ______ ____
ROOT
ATOM      1  C   UNL     1       4.829  -1.906  -2.607  0.00  0.00    +0.142 A 
ATOM      2  C   UNL     1       3.915  -2.729  -1.970  0.00  0.00    +0.049 A 
ATOM      3  C   UNL     1       3.433  -2.389  -0.719  0.00  0.00    +0.032 A 
ATOM      4  C   UNL     1       3.853  -1.223  -0.106  0.00  0.00    +0.107 A 
ATOM      5  C   UNL     1       4.765  -0.397  -0.735  0.00  0.00    +0.055 A 
ATOM      6  C   UNL     1       5.257  -0.734  -1.988  0.00  0.00    +0.079 A 
ENDROOT
BRANCH   6   7
ATOM      7  N   UNL     1       6.182   0.102  -2.628  0.00  0.00    -0.266 N 
ATOM      8  C   UNL     1       6.965   0.923  -1.900  0.00  0.00    +0.304 C 
ATOM      9  O   UNL     1       6.944   0.865  -0.685  0.00  0.00    -0.252 OA
ATOM     10  N   UNL     1       7.771   1.809  -2.518  0.00  0.00    -0.294 N 
ATOM     11  H   UNL     1       6.260   0.089  -3.594  0.00  0.00    +0.156 HD
ATOM     12  H   UNL     1       7.788   1.855  -3.486  0.00  0.00    +0.151 HD
BRANCH  10  13
ATOM     13  C   UNL     1       8.621   2.701  -1.726  0.00  0.00    +0.028 C 
ATOM     14  C   UNL     1       9.576   1.869  -0.869  0.00  0.00    +0.031 C 
ATOM     15  C   UNL     1       9.430   3.600  -2.664  0.00  0.00    +0.031 C 
ATOM     16  C   UNL     1       7.746   3.568  -0.819  0.00  0.00    +0.031 C 
ENDBRANCH  10  13
ENDBRANCH   6   7
BRANCH   4  17
ATOM     17  S   UNL     1       3.230  -0.793   1.485  0.00  0.00    +0.061 S 
ATOM     18  O   UNL     1       4.194   0.063   2.081  0.00  0.00    -0.153 OA
ATOM     19  O   UNL     1       2.805  -2.004   2.096  0.00  0.00    -0.153 OA
BRANCH  17  20
ATOM     20  N   UNL     1       1.869   0.120   1.248  0.00  0.00    -0.177 NA
ATOM     21  C   UNL     1       0.548  -0.516   1.147  0.00  0.00    +0.109 C 
ATOM     22  C   UNL     1      -0.123  -0.057  -0.151  0.00  0.00    +0.017 C 
ATOM     23  C   UNL     1      -0.158   1.472  -0.189  0.00  0.00    +0.003 C 
ATOM     24  C   UNL     1       1.272   2.018  -0.166  0.00  0.00    +0.017 C 
ATOM     25  C   UNL     1       1.959   1.582   1.132  0.00  0.00    +0.109 C 
ENDBRANCH  17  20
ENDBRANCH   4  17
BRANCH   1  26
ATOM     26  O   UNL     1       5.309  -2.242  -3.835  0.00  0.00    -0.488 OA
BRANCH  26  28
ATOM     27  C   UNL     1       3.461  -3.017  -5.186  0.00  0.00    +0.051 C 
ATOM     28  C   UNL     1       4.749  -3.401  -4.455  0.00  0.00    +0.167 C 
ATOM     29  C   UNL     1       5.751  -3.978  -5.456  0.00  0.00    +0.051 C 
ENDBRANCH  26  28
ENDBRANCH   1  26
TORSDOF 6
