REMARK  Name = ZINC59887856
REMARK  12 active torsions:
REMARK  status: ('A' for Active; 'I' for Inactive)
REMARK    1  A    between atoms: C_1  and  C_2
REMARK    2  A    between atoms: C_3  and  C_11
REMARK    3  A    between atoms: C_4  and  C_10
REMARK    4  A    between atoms: N_5  and  C_7
REMARK    5  A    between atoms: C_7  and  C_8
REMARK    6  A    between atoms: C_8  and  O_9
REMARK    7  A    between atoms: N_12  and  N_13
REMARK    8  A    between atoms: C_16  and  S_19
REMARK    9  A    between atoms: S_19  and  C_20
REMARK   10  A    between atoms: C_20  and  C_21
REMARK   11  A    between atoms: N_23  and  C_24
REMARK   12  A    between atoms: C_25  and  C_33
REMARK                            x       y       z     vdW  Elec       q    Type
REMARK                         _______ _______ _______ _____ _____    ______ ____
ROOT
ATOM      1  N   UNL     1      -0.034   1.333  -4.151  0.00  0.00    -0.205 N 
ATOM      2  C   UNL     1      -0.053   2.685  -4.438  0.00  0.00    +0.232 A 
ATOM      3  N   UNL     1      -0.057   3.663  -3.556  0.00  0.00    -0.186 NA
ATOM      4  C   UNL     1      -0.076   4.840  -4.191  0.00  0.00    +0.211 A 
ATOM      5  N   UNL     1      -0.086   4.626  -5.485  0.00  0.00    -0.144 NA
ATOM      6  N   UNL     1      -0.067   3.235  -5.671  0.00  0.00    -0.245 N 
ATOM      7  H   UNL     1      -0.029   0.684  -4.872  0.00  0.00    +0.177 HD
ATOM      8  H   UNL     1      -0.065   2.761  -6.517  0.00  0.00    +0.192 HD
ENDROOT
BRANCH   1  10
ATOM      9  C   UNL     1      -0.004  -0.369  -2.549  0.00  0.00    +0.141 C 
ATOM     10  N   UNL     1      -0.022   0.899  -2.818  0.00  0.00    -0.187 NA
BRANCH   9  13
ATOM     11  C   UNL     1      -0.018   1.503   0.010  0.00  0.00    +0.068 C 
ATOM     12  C   UNL     1       0.002  -0.004   0.002  0.00  0.00    +0.069 A 
ATOM     13  C   UNL     1       0.008  -0.826  -1.145  0.00  0.00    +0.038 A 
ATOM     14  C   UNL     1       0.028  -2.134  -0.712  0.00  0.00    +0.045 A 
ATOM     15  N   UNL     1       0.034  -2.111   0.636  0.00  0.00    -0.266 N 
ATOM     16  N   UNL     1       0.023  -0.776   1.055  0.00  0.00    -0.176 NA
ATOM     17  C   UNL     1       0.041  -3.363  -1.584  0.00  0.00    +0.066 C 
BRANCH  15  18
ATOM     18  C   UNL     1       0.053  -3.285   1.513  0.00  0.00    +0.171 C 
BRANCH  18  19
ATOM     19  C   UNL     1       1.503  -3.674   1.812  0.00  0.00    +0.179 C 
BRANCH  19  20
ATOM     20  O   UNL     1       1.522  -4.818   2.667  0.00  0.00    -0.393 OA
ATOM     21  H   UNL     1       2.411  -5.121   2.899  0.00  0.00    +0.209 HD
ENDBRANCH  19  20
ENDBRANCH  18  19
ENDBRANCH  15  18
ENDBRANCH   9  13
ENDBRANCH   1  10
BRANCH   4  22
ATOM     22  S   UNL     1      -0.088   6.422  -3.415  0.00  0.00    -0.075 S 
BRANCH  22  23
ATOM     23  C   UNL     1      -0.115   7.591  -4.801  0.00  0.00    +0.173 C 
BRANCH  23  24
ATOM     24  C   UNL     1      -0.127   9.001  -4.270  0.00  0.00    +0.228 C 
ATOM     25  O   UNL     1      -0.118   9.198  -3.073  0.00  0.00    -0.275 OA
ATOM     26  N   UNL     1      -0.147  10.043  -5.124  0.00  0.00    -0.278 N 
ATOM     27  H   UNL     1      -0.153   9.886  -6.081  0.00  0.00    +0.155 HD
BRANCH  26  28
ATOM     28  C   UNL     1      -0.158  11.342  -4.634  0.00  0.00    +0.090 A 
ATOM     29  C   UNL     1      -0.184  12.524  -5.355  0.00  0.00    +0.084 A 
ATOM     30  C   UNL     1      -0.191  13.764  -4.600  0.00  0.00    -0.018 A 
ATOM     31  C   UNL     1      -0.171  13.594  -3.259  0.00  0.00    -0.004 A 
ATOM     32  S   UNL     1      -0.150  11.840  -3.030  0.00  0.00    -0.077 S 
ATOM     33  C   UNL     1      -0.170  14.669  -2.217  0.00  0.00    +0.043 C 
ATOM     34  C   UNL     1       0.184  16.000  -2.896  0.00  0.00    +0.005 C 
ATOM     35  C   UNL     1      -0.671  16.156  -4.157  0.00  0.00    +0.005 C 
ATOM     36  C   UNL     1      -0.220  15.153  -5.220  0.00  0.00    +0.037 C 
BRANCH  29  37
ATOM     37  C   UNL     1      -0.203  12.523  -6.787  0.00  0.00    +0.102 C 
ATOM     38  N   UNL     1      -0.217  12.523  -7.923  0.00  0.00    -0.191 NA
ENDBRANCH  29  37
ENDBRANCH  26  28
ENDBRANCH  23  24
ENDBRANCH  22  23
ENDBRANCH   4  22
TORSDOF 10
