REMARK  Name = ZINC15894764
REMARK  9 active torsions:
REMARK  status: ('A' for Active; 'I' for Inactive)
REMARK    1  A    between atoms: C_1  and  C_2
REMARK    2  A    between atoms: C_5  and  S_9
REMARK    3  A    between atoms: C_7  and  C_8
REMARK    4  A    between atoms: S_9  and  N_12
REMARK    5  A    between atoms: N_12  and  C_13
REMARK    6  A    between atoms: C_16  and  C_19
REMARK    7  A    between atoms: N_21  and  N_22
REMARK    8  A    between atoms: C_23  and  C_25
REMARK    9  A    between atoms: C_29  and  C_30
REMARK                            x       y       z     vdW  Elec       q    Type
REMARK                         _______ _______ _______ _____ _____    ______ ____
ROOT
ATOM      1  C   UNL     1       1.236  -0.689   0.010  0.00  0.00    +0.048 A 
ATOM      2  C   UNL     1       0.036   0.011   0.098  0.00  0.00    +0.025 A 
ATOM      3  C   UNL     1       0.040   1.387   0.129  0.00  0.00    +0.015 A 
ATOM      4  C   UNL     1       1.251   2.082   0.071  0.00  0.00    +0.038 A 
ATOM      5  C   UNL     1       2.455   1.377  -0.018  0.00  0.00    +0.015 A 
ATOM      6  C   UNL     1       2.445   0.001  -0.048  0.00  0.00    +0.025 A 
ENDROOT
BRANCH   4   7
ATOM      7  C   UNL     1       1.259   3.557   0.103  0.00  0.00    +0.260 C 
ATOM      8  O   UNL     1       0.211   4.169   0.180  0.00  0.00    -0.269 OA
ATOM      9  N   UNL     1       2.428   4.226   0.048  0.00  0.00    -0.230 N 
ATOM     10  H   UNL     1       3.264   3.737  -0.014  0.00  0.00    +0.173 HD
BRANCH   9  11
ATOM     11  N   UNL     1       2.435   5.626   0.078  0.00  0.00    -0.230 N 
ATOM     12  C   UNL     1       3.604   6.295   0.022  0.00  0.00    +0.263 C 
ATOM     13  O   UNL     1       4.652   5.683  -0.054  0.00  0.00    -0.269 OA
ATOM     14  H   UNL     1       1.599   6.115   0.139  0.00  0.00    +0.173 HD
BRANCH  12  15
ATOM     15  C   UNL     1       3.612   7.769   0.054  0.00  0.00    +0.079 A 
ATOM     16  C   UNL     1       2.447   8.662   0.138  0.00  0.00    +0.054 A 
ATOM     17  C   UNL     1       2.940   9.910   0.142  0.00  0.00    +0.196 A 
ATOM     18  O   UNL     1       4.278   9.856   0.060  0.00  0.00    -0.467 OA
ATOM     19  C   UNL     1       4.701   8.589   0.007  0.00  0.00    +0.114 A 
ATOM     20  C   UNL     1       6.137   8.142  -0.090  0.00  0.00    +0.087 C 
ENDBRANCH  12  15
ENDBRANCH   9  11
ENDBRANCH   4   7
BRANCH   1  21
ATOM     21  N   UNL     1       1.229  -2.079  -0.021  0.00  0.00    -0.216 N 
ATOM     22  H   UNL     1       0.683  -2.575   0.609  0.00  0.00    +0.174 HD
BRANCH  21  23
ATOM     23  S   UNL     1       2.152  -2.887  -1.133  0.00  0.00    +0.072 S 
ATOM     24  O   UNL     1       3.473  -2.378  -1.011  0.00  0.00    -0.150 OA
ATOM     25  O   UNL     1       1.851  -4.268  -0.983  0.00  0.00    -0.150 OA
BRANCH  23  30
ATOM     26  C   UNL     1       0.178  -1.276  -6.602  0.00  0.00    +0.044 C 
ATOM     27  C   UNL     1       0.671  -1.678  -5.236  0.00  0.00    -0.047 A 
ATOM     28  C   UNL     1       0.048  -2.704  -4.550  0.00  0.00    +0.005 A 
ATOM     29  C   UNL     1       0.503  -3.077  -3.300  0.00  0.00    +0.029 A 
ATOM     30  C   UNL     1       1.575  -2.417  -2.730  0.00  0.00    +0.109 A 
ATOM     31  C   UNL     1       2.199  -1.391  -3.415  0.00  0.00    +0.032 A 
ATOM     32  C   UNL     1       1.747  -1.022  -4.668  0.00  0.00    -0.046 A 
ATOM     33  C   UNL     1       2.427   0.096  -5.415  0.00  0.00    +0.044 C 
ENDBRANCH  23  30
ENDBRANCH  21  23
ENDBRANCH   1  21
TORSDOF 6
