REMARK  Name = ZINC34919436
REMARK  6 active torsions:
REMARK  status: ('A' for Active; 'I' for Inactive)
REMARK    1  A    between atoms: C_10  and  N_12
REMARK    2  A    between atoms: N_12  and  S_13
REMARK    3  A    between atoms: S_13  and  C_16
REMARK    4  A    between atoms: C_18  and  N_27
REMARK    5  A    between atoms: C_21  and  N_22
REMARK    6  A    between atoms: C_28  and  C_30
REMARK                            x       y       z     vdW  Elec       q    Type
REMARK                         _______ _______ _______ _____ _____    ______ ____
ROOT
ATOM      1  C   UNL     1       6.676   0.113   0.437  0.00  0.00    +0.128 A 
ATOM      2  C   UNL     1       8.022   0.093   0.129  0.00  0.00    +0.053 A 
ATOM      3  C   UNL     1       8.935  -0.421   1.039  0.00  0.00    +0.035 A 
ATOM      4  C   UNL     1       8.495  -0.916   2.260  0.00  0.00    +0.025 A 
ATOM      5  C   UNL     1       7.150  -0.895   2.569  0.00  0.00    +0.027 A 
ATOM      6  C   UNL     1       6.237  -0.376   1.661  0.00  0.00    +0.056 A 
ENDROOT
BRANCH   6   7
ATOM      7  N   UNL     1       4.874  -0.350   1.976  0.00  0.00    -0.328 N 
ATOM      8  C   UNL     1       3.917  -1.438   1.729  0.00  0.00    +0.105 C 
ATOM      9  C   UNL     1       2.535  -0.951   2.214  0.00  0.00    +0.020 C 
ATOM     10  C   UNL     1       2.681   0.593   2.187  0.00  0.00    +0.020 C 
ATOM     11  C   UNL     1       4.161   0.771   2.615  0.00  0.00    +0.105 C 
ENDBRANCH   6   7
BRANCH   3  12
ATOM     12  N   UNL     1      10.301  -0.442   0.726  0.00  0.00    -0.285 N 
ATOM     13  C   UNL     1      10.843   0.561   0.007  0.00  0.00    +0.220 C 
ATOM     14  O   UNL     1      10.164   1.514  -0.312  0.00  0.00    -0.275 OA
ATOM     15  H   UNL     1      10.857  -1.178   1.027  0.00  0.00    +0.155 HD
BRANCH  13  16
ATOM     16  C   UNL     1      12.292   0.497  -0.402  0.00  0.00    +0.075 C 
ATOM     17  C   UNL     1      13.194   0.493   0.850  0.00  0.00    +0.013 C 
ATOM     18  C   UNL     1      14.420   1.345   0.437  0.00  0.00    +0.001 C 
ATOM     19  C   UNL     1      13.784   2.466  -0.421  0.00  0.00    +0.001 C 
ATOM     20  C   UNL     1      12.667   1.752  -1.210  0.00  0.00    +0.013 C 
ENDBRANCH  13  16
ENDBRANCH   3  12
BRANCH   1  21
ATOM     21  S   UNL     1       5.517   0.767  -0.718  0.00  0.00    +0.061 S 
ATOM     22  O   UNL     1       4.433  -0.150  -0.768  0.00  0.00    -0.153 OA
ATOM     23  O   UNL     1       6.258   1.134  -1.873  0.00  0.00    -0.153 OA
BRANCH  21  24
ATOM     24  N   UNL     1       4.920   2.170  -0.072  0.00  0.00    -0.183 NA
ATOM     25  H   UNL     1       3.985   2.229   0.179  0.00  0.00    +0.149 HD
BRANCH  24  35
ATOM     26  C   UNL     1       3.921   6.745  -1.621  0.00  0.00    +0.000 A 
ATOM     27  C   UNL     1       3.887   5.518  -2.257  0.00  0.00    +0.000 A 
ATOM     28  C   UNL     1       4.500   4.428  -1.676  0.00  0.00    +0.005 A 
ATOM     29  C   UNL     1       5.151   4.551  -0.455  0.00  0.00    -0.026 A 
ATOM     30  C   UNL     1       5.180   5.772   0.181  0.00  0.00    -0.043 A 
ATOM     31  C   UNL     1       4.566   6.870  -0.408  0.00  0.00    +0.004 A 
ATOM     32  C   UNL     1       5.852   5.976   1.514  0.00  0.00    +0.035 C 
ATOM     33  C   UNL     1       6.820   4.832   1.808  0.00  0.00    +0.007 C 
ATOM     34  C   UNL     1       6.076   3.506   1.611  0.00  0.00    +0.025 C 
ATOM     35  C   UNL     1       5.805   3.322   0.120  0.00  0.00    +0.107 C 
ENDBRANCH  24  35
ENDBRANCH  21  24
ENDBRANCH   1  21
TORSDOF 6
