REMARK  Name = ZINC53854452
REMARK  7 active torsions:
REMARK  status: ('A' for Active; 'I' for Inactive)
REMARK    1  A    between atoms: C_1  and  C_2
REMARK    2  A    between atoms: C_5  and  C_7
REMARK    3  A    between atoms: N_9  and  C_10
REMARK    4  A    between atoms: C_13  and  C_16
REMARK    5  A    between atoms: N_18  and  C_19
REMARK    6  A    between atoms: C_19  and  C_21
REMARK    7  A    between atoms: C_19  and  C_22
REMARK                            x       y       z     vdW  Elec       q    Type
REMARK                         _______ _______ _______ _____ _____    ______ ____
ROOT
ATOM      1  C   UNL     1       4.562  -7.640   1.020  0.00  0.00    +0.245 C 
ATOM      2  O   UNL     1       4.620  -8.110  -0.099  0.00  0.00    -0.270 OA
ATOM      3  N   UNL     1       5.094  -8.310   2.061  0.00  0.00    -0.305 N 
ATOM      4  H   UNL     1       5.048  -7.935   2.955  0.00  0.00    +0.150 HD
ENDROOT
BRANCH   1   8
ATOM      5  C   UNL     1       2.683  -3.884   1.651  0.00  0.00    +0.033 A 
ATOM      6  C   UNL     1       2.749  -4.420   0.369  0.00  0.00    +0.024 A 
ATOM      7  C   UNL     1       3.358  -5.637   0.161  0.00  0.00    +0.015 A 
ATOM      8  C   UNL     1       3.910  -6.334   1.239  0.00  0.00    +0.037 A 
ATOM      9  C   UNL     1       3.842  -5.792   2.526  0.00  0.00    +0.015 A 
ATOM     10  C   UNL     1       3.236  -4.572   2.726  0.00  0.00    +0.024 A 
BRANCH   5  13
ATOM     11  C   UNL     1       0.987  -2.306   1.128  0.00  0.00    +0.221 C 
ATOM     12  O   UNL     1       0.602  -3.030   0.235  0.00  0.00    -0.275 OA
ATOM     13  N   UNL     1       2.066  -2.650   1.858  0.00  0.00    -0.285 N 
ATOM     14  H   UNL     1       2.414  -2.040   2.528  0.00  0.00    +0.155 HD
BRANCH  11  18
ATOM     15  C   UNL     1      -1.208   0.788   0.228  0.00  0.00    +0.008 C 
ATOM     16  C   UNL     1      -0.960  -0.685   0.558  0.00  0.00    -0.002 C 
ATOM     17  C   UNL     1      -1.151  -1.125   2.011  0.00  0.00    +0.017 C 
ATOM     18  C   UNL     1       0.258  -1.020   1.422  0.00  0.00    +0.078 C 
ENDBRANCH  11  18
ENDBRANCH   5  13
ENDBRANCH   1   8
BRANCH   3  19
ATOM     19  C   UNL     1       5.742  -9.606   1.844  0.00  0.00    +0.100 C 
ATOM     20  C   UNL     1       7.199  -9.386   1.431  0.00  0.00    +0.033 C 
BRANCH  19  21
ATOM     21  C   UNL     1       5.697 -10.410   3.118  0.00  0.00    -0.025 A 
ATOM     22  C   UNL     1       5.907  -9.785   4.335  0.00  0.00    +0.007 A 
ATOM     23  C   UNL     1       5.868 -10.514   5.508  0.00  0.00    +0.028 A 
ATOM     24  C   UNL     1       5.617 -11.877   5.465  0.00  0.00    +0.067 A 
ATOM     25  C   UNL     1       5.406 -12.507   4.238  0.00  0.00    +0.067 A 
ATOM     26  C   UNL     1       5.441 -11.767   3.066  0.00  0.00    +0.033 A 
ATOM     27  N   UNL     1       5.182 -13.855   4.510  0.00  0.00    -0.306 N 
ATOM     28  H   UNL     1       5.005 -14.545   3.852  0.00  0.00    +0.170 HD
ATOM     29  C   UNL     1       5.255 -14.036   5.842  0.00  0.00    +0.325 A 
ATOM     30  O   UNL     1       5.107 -15.100   6.414  0.00  0.00    -0.247 OA
ATOM     31  N   UNL     1       5.516 -12.861   6.446  0.00  0.00    -0.306 N 
ATOM     32  H   UNL     1       5.616 -12.723   7.401  0.00  0.00    +0.170 HD
ENDBRANCH  19  21
ENDBRANCH   3  19
TORSDOF 5
