REMARK  Name = ZINC36619066
REMARK  11 active torsions:
REMARK  status: ('A' for Active; 'I' for Inactive)
REMARK    1  A    between atoms: C_1  and  C_2
REMARK    2  A    between atoms: C_2  and  O_3
REMARK    3  A    between atoms: O_3  and  C_4
REMARK    4  A    between atoms: C_4  and  C_6
REMARK    5  A    between atoms: C_7  and  C_24
REMARK    6  A    between atoms: C_10  and  N_11
REMARK    7  A    between atoms: C_12  and  C_14
REMARK    8  A    between atoms: C_16  and  C_23
REMARK    9  A    between atoms: C_27  and  C_30
REMARK   10  A    between atoms: C_30  and  C_31
REMARK   11  A    between atoms: C_30  and  C_32
REMARK                            x       y       z     vdW  Elec       q    Type
REMARK                         _______ _______ _______ _____ _____    ______ ____
ROOT
ATOM      1  C   UNL     1       1.448  -2.344  -2.515  0.00  0.00    +0.095 A 
ATOM      2  C   UNL     1       2.873  -2.622  -2.522  0.00  0.00    +0.005 A 
ATOM      3  C   UNL     1       3.364  -3.124  -3.684  0.00  0.00    +0.056 A 
ATOM      4  S   UNL     1       1.927  -3.214  -4.730  0.00  0.00    -0.080 S 
ATOM      5  C   UNL     1       0.756  -2.626  -3.683  0.00  0.00    +0.087 A 
ENDROOT
BRANCH   2   6
ATOM      6  C   UNL     1       3.734  -2.373  -1.341  0.00  0.00    -0.017 A 
ATOM      7  C   UNL     1       3.687  -1.143  -0.687  0.00  0.00    +0.009 A 
ATOM      8  C   UNL     1       4.491  -0.917   0.412  0.00  0.00    +0.004 A 
ATOM      9  C   UNL     1       5.343  -1.908   0.864  0.00  0.00    -0.045 A 
ATOM     10  C   UNL     1       5.394  -3.131   0.219  0.00  0.00    +0.004 A 
ATOM     11  C   UNL     1       4.591  -3.370  -0.877  0.00  0.00    +0.009 A 
BRANCH   9  12
ATOM     12  C   UNL     1       6.219  -1.655   2.064  0.00  0.00    +0.013 C 
ATOM     13  C   UNL     1       5.886  -2.668   3.161  0.00  0.00    +0.012 C 
ATOM     14  C   UNL     1       7.688  -1.802   1.663  0.00  0.00    +0.012 C 
ENDBRANCH   9  12
ENDBRANCH   2   6
BRANCH   5  15
ATOM     15  N   UNL     1      -0.595  -2.458  -3.930  0.00  0.00    -0.274 N 
ATOM     16  C   UNL     1      -1.106  -2.787  -5.133  0.00  0.00    +0.267 C 
ATOM     17  O   UNL     1      -0.380  -3.231  -6.001  0.00  0.00    -0.268 OA
ATOM     18  H   UNL     1      -1.174  -2.104  -3.237  0.00  0.00    +0.156 HD
BRANCH  16  19
ATOM     19  C   UNL     1      -2.547  -2.607  -5.396  0.00  0.00    +0.133 A 
ATOM     20  C   UNL     1      -3.082  -2.943  -6.613  0.00  0.00    +0.056 A 
ATOM     21  C   UNL     1      -4.454  -2.759  -6.827  0.00  0.00    +0.044 A 
ATOM     22  N   UNL     1      -5.216  -2.272  -5.876  0.00  0.00    -0.216 NA
ATOM     23  C   UNL     1      -4.710  -1.940  -4.684  0.00  0.00    +0.254 A 
ATOM     24  N   UNL     1      -3.377  -2.108  -4.428  0.00  0.00    -0.192 N 
ATOM     25  N   UNL     1      -3.171  -1.681  -3.110  0.00  0.00    -0.152 NA
ATOM     26  C   UNL     1      -4.337  -1.296  -2.644  0.00  0.00    +0.247 A 
ATOM     27  N   UNL     1      -5.261  -1.440  -3.583  0.00  0.00    -0.197 NA
ATOM     28  C   UNL     1      -5.059  -3.122  -8.159  0.00  0.00    +0.066 C 
ENDBRANCH  16  19
ENDBRANCH   5  15
BRANCH   1  29
ATOM     29  C   UNL     1       0.776  -1.800  -1.335  0.00  0.00    +0.342 C 
ATOM     30  O   UNL     1       0.312  -2.552  -0.499  0.00  0.00    -0.245 OA
BRANCH  29  31
ATOM     31  O   UNL     1       0.671  -0.465  -1.174  0.00  0.00    -0.461 OA
BRANCH  31  33
ATOM     32  C   UNL     1      -0.019   1.526   0.010  0.00  0.00    +0.048 C 
ATOM     33  C   UNL     1       0.002  -0.004   0.002  0.00  0.00    +0.229 C 
ENDBRANCH  31  33
ENDBRANCH  29  31
ENDBRANCH   1  29
TORSDOF 7
