REMARK  Name = ZINC33821806
REMARK  5 active torsions:
REMARK  status: ('A' for Active; 'I' for Inactive)
REMARK    1  A    between atoms: C_4  and  C_7
REMARK    2  A    between atoms: C_9  and  C_24
REMARK    3  A    between atoms: C_11  and  C_21
REMARK    4  A    between atoms: N_14  and  C_15
REMARK    5  A    between atoms: N_26  and  C_27
REMARK                            x       y       z     vdW  Elec       q    Type
REMARK                         _______ _______ _______ _____ _____    ______ ____
ROOT
ATOM      1  C   UNL     1       3.572   7.359   0.026  0.00  0.00    +0.157 C 
ATOM      2  C   UNL     1       3.718   5.822  -0.049  0.00  0.00    +0.147 C 
ATOM      3  C   UNL     1       4.462   5.567  -1.375  0.00  0.00    +0.275 C 
ATOM      4  O   UNL     1       4.729   6.862  -1.945  0.00  0.00    -0.255 OA
ATOM      5  N   UNL     1       3.700   7.772  -1.402  0.00  0.00    -0.244 N 
ENDROOT
BRANCH   1   9
ATOM      6  C   UNL     1      -0.255   8.443   1.583  0.00  0.00    +0.000 A 
ATOM      7  C   UNL     1       0.844   8.395   2.420  0.00  0.00    +0.000 A 
ATOM      8  C   UNL     1       2.082   8.045   1.916  0.00  0.00    +0.006 A 
ATOM      9  C   UNL     1       2.222   7.741   0.575  0.00  0.00    -0.022 A 
ATOM     10  C   UNL     1       1.124   7.794  -0.264  0.00  0.00    +0.006 A 
ATOM     11  C   UNL     1      -0.115   8.139   0.241  0.00  0.00    +0.000 A 
ENDBRANCH   1   9
BRANCH   5  12
ATOM     12  C   UNL     1       4.106   9.104  -1.503  0.00  0.00    +0.065 A 
ATOM     13  C   UNL     1       3.277  10.121  -1.049  0.00  0.00    +0.028 A 
ATOM     14  C   UNL     1       3.684  11.438  -1.146  0.00  0.00    +0.002 A 
ATOM     15  C   UNL     1       4.912  11.744  -1.704  0.00  0.00    +0.000 A 
ATOM     16  C   UNL     1       5.738  10.734  -2.161  0.00  0.00    +0.002 A 
ATOM     17  C   UNL     1       5.339   9.415  -2.062  0.00  0.00    +0.028 A 
ENDBRANCH   5  12
BRANCH   2  18
ATOM     18  C   UNL     1       2.361   5.165  -0.073  0.00  0.00    +0.226 C 
ATOM     19  O   UNL     1       1.758   5.058  -1.119  0.00  0.00    -0.275 OA
ATOM     20  N   UNL     1       1.820   4.697   1.069  0.00  0.00    -0.285 N 
ATOM     21  H   UNL     1       2.327   4.869   2.030  0.00  0.00    +0.155 HD
BRANCH  20  22
ATOM     22  C   UNL     1       0.611   3.993   1.033  0.00  0.00    +0.033 A 
ATOM     23  C   UNL     1       0.304   3.193  -0.060  0.00  0.00    +0.025 A 
ATOM     24  C   UNL     1      -0.889   2.499  -0.093  0.00  0.00    +0.022 A 
ATOM     25  C   UNL     1      -1.782   2.605   0.958  0.00  0.00    +0.041 A 
ATOM     26  C   UNL     1      -1.477   3.398   2.051  0.00  0.00    +0.022 A 
ATOM     27  C   UNL     1      -0.285   4.093   2.090  0.00  0.00    +0.025 A 
ATOM     28 CL   UNL     1      -3.285   1.737   0.910  0.00  0.00    -0.084 Cl
ENDBRANCH  20  22
ENDBRANCH   2  18
BRANCH   3  29
ATOM     29  C   UNL     1       5.756   4.841  -1.111  0.00  0.00    +0.388 C 
ATOM     30  O   UNL     1       6.811   5.381  -1.347  0.00  0.00    -0.243 OA
ATOM     31  O   UNL     1       5.737   3.594  -0.613  0.00  0.00    -0.243 OA
ENDBRANCH   3  29
TORSDOF 5
