REMARK  Name = ZINC38779373
REMARK  8 active torsions:
REMARK  status: ('A' for Active; 'I' for Inactive)
REMARK    1  A    between atoms: C_1  and  C_2
REMARK    2  A    between atoms: N_9  and  N_10
REMARK    3  A    between atoms: N_10  and  C_11
REMARK    4  A    between atoms: C_21  and  C_24
REMARK    5  A    between atoms: C_27  and  O_32
REMARK    6  A    between atoms: C_28  and  O_30
REMARK    7  A    between atoms: O_30  and  C_31
REMARK    8  A    between atoms: O_32  and  C_33
REMARK                            x       y       z     vdW  Elec       q    Type
REMARK                         _______ _______ _______ _____ _____    ______ ____
ROOT
ATOM      1  C   UNL     1      -0.018   1.503   0.010  0.00  0.00    +0.044 C 
ATOM      2  C   UNL     1       0.002  -0.004   0.002  0.00  0.00    -0.050 A 
ATOM      3  C   UNL     1       0.006  -0.688  -1.201  0.00  0.00    +0.007 A 
ATOM      4  C   UNL     1       0.022  -2.070  -1.225  0.00  0.00    +0.046 A 
ATOM      5  C   UNL     1       0.036  -2.786  -0.038  0.00  0.00    +0.130 A 
ATOM      6  C   UNL     1       0.036  -2.092   1.179  0.00  0.00    +0.040 A 
ATOM      7  C   UNL     1       0.023  -0.700   1.195  0.00  0.00    +0.016 A 
ATOM      8  C   UNL     1       0.063  -2.861   2.443  0.00  0.00    +0.073 C 
ATOM      9  N   UNL     1       0.293  -2.291   3.586  0.00  0.00    -0.188 NA
ATOM     10  C   UNL     1      -0.195  -4.354   2.333  0.00  0.00    +0.107 C 
ATOM     11  C   UNL     1       0.535  -4.847   1.075  0.00  0.00    +0.210 C 
ATOM     12  O   UNL     1       0.045  -4.141  -0.064  0.00  0.00    -0.483 OA
ENDROOT
BRANCH  11  13
ATOM     13  C   UNL     1       0.289  -6.323   0.897  0.00  0.00    -0.003 A 
ATOM     14  C   UNL     1      -0.847  -6.759   0.241  0.00  0.00    +0.011 A 
ATOM     15  C   UNL     1      -1.078  -8.111   0.075  0.00  0.00    +0.050 A 
ATOM     16  C   UNL     1      -0.169  -9.035   0.567  0.00  0.00    +0.162 A 
ATOM     17  C   UNL     1       0.974  -8.597   1.227  0.00  0.00    +0.162 A 
ATOM     18  C   UNL     1       1.202  -7.239   1.386  0.00  0.00    +0.056 A 
BRANCH  17  19
ATOM     19  O   UNL     1       1.869  -9.499   1.712  0.00  0.00    -0.491 OA
ATOM     20  C   UNL     1       3.020  -8.977   2.379  0.00  0.00    +0.277 C 
ENDBRANCH  17  19
BRANCH  16  21
ATOM     21  O   UNL     1      -0.395 -10.366   0.405  0.00  0.00    -0.491 OA
ATOM     22  C   UNL     1      -1.590 -10.742  -0.282  0.00  0.00    +0.277 C 
ENDBRANCH  16  21
ENDBRANCH  11  13
BRANCH   9  23
ATOM     23  N   UNL     1       0.310  -3.055   4.760  0.00  0.00    -0.229 N 
ATOM     24  H   UNL     1       0.148  -4.011   4.719  0.00  0.00    +0.172 HD
BRANCH  23  25
ATOM     25  C   UNL     1       0.570  -2.411   6.050  0.00  0.00    +0.283 C 
ATOM     26  N   UNL     1       2.003  -2.475   6.365  0.00  0.00    -0.347 N 
ATOM     27  C   UNL     1       2.129  -3.145   7.473  0.00  0.00    +0.061 A 
ATOM     28  C   UNL     1       3.296  -3.534   8.278  0.00  0.00    +0.027 A 
ATOM     29  C   UNL     1       3.116  -4.246   9.408  0.00  0.00    +0.002 A 
ATOM     30  C   UNL     1       1.845  -4.641   9.862  0.00  0.00    +0.002 A 
ATOM     31  C   UNL     1       0.711  -4.337   9.200  0.00  0.00    +0.027 A 
ATOM     32  C   UNL     1       0.784  -3.563   7.954  0.00  0.00    +0.061 A 
ATOM     33  N   UNL     1      -0.123  -3.134   7.123  0.00  0.00    -0.347 N 
ATOM     34  H   UNL     1       2.723  -2.088   5.842  0.00  0.00    +0.163 HD
ATOM     35  H   UNL     1      -1.080  -3.268   7.200  0.00  0.00    +0.163 HD
ENDBRANCH  23  25
ENDBRANCH   9  23
TORSDOF 5
