REMARK  Name = ZINC39252096
REMARK  8 active torsions:
REMARK  status: ('A' for Active; 'I' for Inactive)
REMARK    1  A    between atoms: C_1  and  C_2
REMARK    2  A    between atoms: C_2  and  O_3
REMARK    3  A    between atoms: O_3  and  C_4
REMARK    4  A    between atoms: C_11  and  N_14
REMARK    5  A    between atoms: C_15  and  C_17
REMARK    6  A    between atoms: N_22  and  C_24
REMARK    7  A    between atoms: C_24  and  C_25
REMARK    8  A    between atoms: C_25  and  C_26
REMARK                            x       y       z     vdW  Elec       q    Type
REMARK                         _______ _______ _______ _____ _____    ______ ____
ROOT
ATOM      1  C   UNL     1       0.659  -8.582   5.935  0.00  0.00    +0.101 C 
ATOM      2  C   UNL     1      -0.394  -7.677   6.616  0.00  0.00    +0.110 C 
ATOM      3  C   UNL     1      -0.523  -8.245   8.012  0.00  0.00    +0.216 C 
ATOM      4  O   UNL     1      -1.435  -8.009   8.776  0.00  0.00    -0.276 OA
ATOM      5  N   UNL     1       0.518  -9.050   8.283  0.00  0.00    -0.300 N 
ATOM      6  C   UNL     1       1.450  -9.116   7.150  0.00  0.00    +0.121 C 
ENDROOT
BRANCH   1   8
ATOM      7  N   UNL     1       1.031  -7.176   3.934  0.00  0.00    -0.288 N 
ATOM      8  C   UNL     1       1.550  -7.780   5.022  0.00  0.00    +0.220 C 
ATOM      9  O   UNL     1       2.734  -7.678   5.265  0.00  0.00    -0.275 OA
ATOM     10  H   UNL     1       0.084  -7.257   3.740  0.00  0.00    +0.151 HD
BRANCH   7  18
ATOM     11  C   UNL     1       0.802  -1.825   1.306  0.00  0.00    +0.122 A 
ATOM     12  C   UNL     1       0.264  -2.683   0.358  0.00  0.00    +0.047 A 
ATOM     13  C   UNL     1       0.368  -4.048   0.496  0.00  0.00    +0.027 A 
ATOM     14  C   UNL     1       1.022  -4.621   1.601  0.00  0.00    +0.043 A 
ATOM     15  C   UNL     1       1.555  -3.732   2.539  0.00  0.00    +0.035 A 
ATOM     16  C   UNL     1       1.459  -2.366   2.404  0.00  0.00    +0.062 A 
ATOM     17  S   UNL     1       2.300  -4.762   3.784  0.00  0.00    -0.082 S 
ATOM     18  C   UNL     1       1.897  -6.396   3.047  0.00  0.00    +0.224 C 
ATOM     19  N   UNL     1       1.180  -5.990   1.830  0.00  0.00    -0.316 N 
ATOM     20  H   UNL     1       0.829  -6.648   1.210  0.00  0.00    +0.149 HD
BRANCH  11  21
ATOM     21  O   UNL     1       0.693  -0.477   1.160  0.00  0.00    -0.492 OA
BRANCH  21  23
ATOM     22  C   UNL     1      -0.019   1.526   0.010  0.00  0.00    +0.048 C 
ATOM     23  C   UNL     1       0.002  -0.004   0.002  0.00  0.00    +0.225 C 
ENDBRANCH  21  23
ENDBRANCH  11  21
ENDBRANCH   7  18
ENDBRANCH   1   8
BRANCH   5  24
ATOM     24  C   UNL     1       0.701  -9.770   9.545  0.00  0.00    +0.112 C 
BRANCH  24  25
ATOM     25  C   UNL     1       0.036 -11.145   9.449  0.00  0.00    +0.056 C 
BRANCH  25  26
ATOM     26  C   UNL     1       0.224 -11.886  10.748  0.00  0.00    -0.021 A 
ATOM     27  C   UNL     1      -0.618 -11.778  11.942  0.00  0.00    +0.004 A 
ATOM     28  C   UNL     1      -1.758 -11.038  12.261  0.00  0.00    +0.030 A 
ATOM     29  C   UNL     1      -2.327 -11.167  13.509  0.00  0.00    +0.042 A 
ATOM     30  C   UNL     1      -1.773 -12.028  14.447  0.00  0.00    +0.022 A 
ATOM     31  C   UNL     1      -0.648 -12.764  14.147  0.00  0.00    +0.027 A 
ATOM     32  C   UNL     1      -0.058 -12.649  12.893  0.00  0.00    +0.047 A 
ATOM     33  N   UNL     1       1.042 -13.237  12.307  0.00  0.00    -0.360 N 
ATOM     34  C   UNL     1       1.190 -12.774  11.028  0.00  0.00    +0.087 A 
ATOM     35 CL   UNL     1      -3.745 -10.249  13.910  0.00  0.00    -0.084 Cl
ATOM     36  H   UNL     1       1.623 -13.884  12.736  0.00  0.00    +0.165 HD
ENDBRANCH  25  26
ENDBRANCH  24  25
ENDBRANCH   5  24
TORSDOF 7
