REMARK  Name = ZINC62550461
REMARK  7 active torsions:
REMARK  status: ('A' for Active; 'I' for Inactive)
REMARK    1  A    between atoms: C_1  and  C_2
REMARK    2  A    between atoms: C_8  and  O_27
REMARK    3  A    between atoms: C_13  and  C_15
REMARK    4  A    between atoms: C_18  and  S_21
REMARK    5  A    between atoms: S_21  and  N_24
REMARK    6  A    between atoms: N_24  and  C_25
REMARK    7  A    between atoms: N_24  and  C_26
REMARK                            x       y       z     vdW  Elec       q    Type
REMARK                         _______ _______ _______ _____ _____    ______ ____
ROOT
ATOM      1  C   UNL     1      -1.385  -7.467   4.444  0.00  0.00    +0.044 C 
ATOM      2  C   UNL     1      -1.182  -6.665   3.184  0.00  0.00    -0.050 A 
ATOM      3  C   UNL     1      -0.039  -6.848   2.428  0.00  0.00    +0.005 A 
ATOM      4  C   UNL     1       0.146  -6.114   1.273  0.00  0.00    +0.024 A 
ATOM      5  C   UNL     1      -0.816  -5.193   0.872  0.00  0.00    +0.042 A 
ATOM      6  C   UNL     1      -1.960  -5.009   1.632  0.00  0.00    +0.003 A 
ATOM      7  C   UNL     1      -2.141  -5.755   2.785  0.00  0.00    +0.011 A 
ATOM      8  C   UNL     1      -3.017  -4.013   1.235  0.00  0.00    +0.148 C 
ATOM      9  C   UNL     1      -2.909  -3.683  -0.254  0.00  0.00    +0.055 C 
ATOM     10  C   UNL     1      -1.460  -3.293  -0.572  0.00  0.00    +0.117 C 
ATOM     11  N   UNL     1      -0.611  -4.463  -0.306  0.00  0.00    -0.267 N 
ATOM     12  C   UNL     1       0.348  -4.827  -1.180  0.00  0.00    +0.251 C 
ATOM     13  O   UNL     1       1.069  -5.773  -0.932  0.00  0.00    -0.270 OA
ENDROOT
BRANCH  12  14
ATOM     14  C   UNL     1       0.523  -4.074  -2.440  0.00  0.00    +0.037 A 
ATOM     15  C   UNL     1       0.508  -2.679  -2.432  0.00  0.00    +0.015 A 
ATOM     16  C   UNL     1       0.672  -1.983  -3.611  0.00  0.00    +0.029 A 
ATOM     17  C   UNL     1       0.851  -2.665  -4.801  0.00  0.00    +0.105 A 
ATOM     18  C   UNL     1       0.867  -4.048  -4.817  0.00  0.00    +0.029 A 
ATOM     19  C   UNL     1       0.710  -4.756  -3.644  0.00  0.00    +0.015 A 
BRANCH  17  20
ATOM     20  S   UNL     1       1.060  -1.768  -6.304  0.00  0.00    +0.060 S 
ATOM     21  O   UNL     1       0.664  -2.639  -7.355  0.00  0.00    -0.153 OA
ATOM     22  O   UNL     1       0.461  -0.495  -6.103  0.00  0.00    -0.153 OA
BRANCH  20  23
ATOM     23  N   UNL     1       2.683  -1.503  -6.495  0.00  0.00    -0.183 NA
ATOM     24  C   UNL     1       3.504  -2.478  -7.217  0.00  0.00    +0.131 C 
ATOM     25  C   UNL     1       3.298  -0.294  -5.942  0.00  0.00    +0.131 C 
ENDBRANCH  20  23
ENDBRANCH  17  20
ENDBRANCH  12  14
BRANCH   8  26
ATOM     26  O   UNL     1      -4.308  -4.564   1.503  0.00  0.00    -0.387 OA
ATOM     27  H   UNL     1      -5.041  -3.977   1.272  0.00  0.00    +0.210 HD
ENDBRANCH   8  26
TORSDOF 4
