REMARK  Name = ZINC43221623
REMARK  11 active torsions:
REMARK  status: ('A' for Active; 'I' for Inactive)
REMARK    1  A    between atoms: C_1  and  C_2
REMARK    2  A    between atoms: C_2  and  C_3
REMARK    3  A    between atoms: C_3  and  C_5
REMARK    4  A    between atoms: C_3  and  C_6
REMARK    5  A    between atoms: C_6  and  C_37
REMARK    6  A    between atoms: C_11  and  C_14
REMARK    7  A    between atoms: C_18  and  O_21
REMARK    8  A    between atoms: C_19  and  O_20
REMARK    9  A    between atoms: O_21  and  C_22
REMARK   10  A    between atoms: N_25  and  C_28
REMARK   11  A    between atoms: C_32  and  N_34
REMARK                            x       y       z     vdW  Elec       q    Type
REMARK                         _______ _______ _______ _____ _____    ______ ____
ROOT
ATOM      1  C   UNL     1       0.993  -2.119  -1.376  0.00  0.00    +0.051 C 
ATOM      2  C   UNL     1       1.670  -2.693  -2.616  0.00  0.00    +0.086 C 
ATOM      3  C   UNL     1       1.090  -4.153  -2.498  0.00  0.00    +0.077 C 
ATOM      4  C   UNL     1      -0.345  -3.934  -2.273  0.00  0.00    -0.023 C 
ATOM      5  N   UNL     1      -0.403  -2.659  -1.470  0.00  0.00    +0.396 N 
ATOM      6  C   UNL     1       1.973  -4.897  -3.363  0.00  0.00    +0.229 C 
ATOM      7  O   UNL     1       1.697  -5.855  -4.053  0.00  0.00    -0.275 OA
ATOM      8  N   UNL     1       3.195  -4.284  -3.234  0.00  0.00    -0.210 N 
ATOM      9  C   UNL     1       3.121  -3.058  -2.606  0.00  0.00    +0.229 C 
ATOM     10  O   UNL     1       4.032  -2.410  -2.137  0.00  0.00    -0.275 OA
ATOM     11  H   UNL     1      -0.761  -2.844  -0.545  0.00  0.00    -0.083 HD
ATOM     12  H   UNL     1      -0.996  -1.993  -1.942  0.00  0.00    -0.083 HD
ENDROOT
BRANCH   4  13
ATOM     13  C   UNL     1      -1.067  -3.789  -3.588  0.00  0.00    -0.015 A 
ATOM     14  C   UNL     1      -0.351  -3.554  -4.748  0.00  0.00    +0.006 A 
ATOM     15  C   UNL     1      -1.010  -3.420  -5.955  0.00  0.00    +0.004 A 
ATOM     16  C   UNL     1      -2.388  -3.521  -6.009  0.00  0.00    +0.049 A 
ATOM     17  C   UNL     1      -3.111  -3.757  -4.852  0.00  0.00    +0.161 A 
ATOM     18  C   UNL     1      -2.447  -3.897  -3.636  0.00  0.00    +0.160 A 
BRANCH  18  19
ATOM     19  O   UNL     1      -3.152  -4.135  -2.498  0.00  0.00    -0.503 OA
ATOM     20  H   UNL     1      -3.429  -3.333  -2.033  0.00  0.00    +0.292 HD
ENDBRANCH  18  19
BRANCH  17  21
ATOM     21  O   UNL     1      -4.466  -3.856  -4.903  0.00  0.00    -0.491 OA
ATOM     22  C   UNL     1      -5.079  -3.707  -6.185  0.00  0.00    +0.277 C 
ENDBRANCH  17  21
ENDBRANCH   4  13
BRANCH   8  23
ATOM     23  C   UNL     1       4.395  -4.838  -3.702  0.00  0.00    +0.046 A 
ATOM     24  C   UNL     1       5.591  -4.156  -3.526  0.00  0.00    +0.024 A 
ATOM     25  C   UNL     1       6.771  -4.704  -3.988  0.00  0.00    +0.004 A 
ATOM     26  C   UNL     1       6.763  -5.932  -4.625  0.00  0.00    +0.033 A 
ATOM     27  C   UNL     1       5.573  -6.613  -4.802  0.00  0.00    +0.128 A 
ATOM     28  C   UNL     1       4.390  -6.073  -4.337  0.00  0.00    +0.056 A 
BRANCH  27  29
ATOM     29  N   UNL     1       5.567  -7.926  -5.485  0.00  0.00    +0.056 N 
ATOM     30  O   UNL     1       6.603  -8.403  -5.888  0.00  0.00    -0.126 OA
ATOM     31  O   UNL     1       4.527  -8.523  -5.639  0.00  0.00    -0.126 OA
ENDBRANCH  27  29
ENDBRANCH   8  23
BRANCH   1  32
ATOM     32  C   UNL     1       1.670  -2.608  -0.121  0.00  0.00    +0.347 C 
ATOM     33  O   UNL     1       1.050  -3.285   0.681  0.00  0.00    -0.248 OA
ATOM     34  O   UNL     1       2.837  -2.327   0.091  0.00  0.00    -0.248 OA
ENDBRANCH   1  32
BRANCH   1  35
ATOM     35  C   UNL     1       0.986  -0.590  -1.422  0.00  0.00    -0.014 C 
ATOM     36  C   UNL     1       0.382  -0.123  -2.748  0.00  0.00    +0.006 C 
BRANCH  35  38
ATOM     37  C   UNL     1       0.242   1.479  -0.234  0.00  0.00    +0.004 C 
ATOM     38  C   UNL     1       0.148  -0.048  -0.262  0.00  0.00    -0.001 C 
ENDBRANCH  35  38
ENDBRANCH   1  35
TORSDOF 8
