REMARK  Name = ZINC06300794
REMARK  9 active torsions:
REMARK  status: ('A' for Active; 'I' for Inactive)
REMARK    1  A    between atoms: C_1  and  C_2
REMARK    2  A    between atoms: C_4  and  C_40
REMARK    3  A    between atoms: C_9  and  C_14
REMARK    4  A    between atoms: C_14  and  C_16
REMARK    5  A    between atoms: C_14  and  N_74
REMARK    6  A    between atoms: N_20  and  C_21
REMARK    7  A    between atoms: C_21  and  C_22
REMARK    8  A    between atoms: C_30  and  C_33
REMARK    9  A    between atoms: C_33  and  C_34
REMARK                            x       y       z     vdW  Elec       q    Type
REMARK                         _______ _______ _______ _____ _____    ______ ____
ROOT
ATOM      1  C   UNL     1      -0.013   1.086   0.008  0.00  0.00    +0.039 C 
ENDROOT
BRANCH   1  10
ATOM      2  C   UNL     1       5.655   5.359   2.296  0.00  0.00    +0.044 C 
ATOM      3  C   UNL     1       5.041   4.417   1.292  0.00  0.00    -0.050 A 
ATOM      4  C   UNL     1       5.757   4.056   0.160  0.00  0.00    +0.008 A 
ATOM      5  C   UNL     1       5.216   3.196  -0.771  0.00  0.00    -0.026 A 
ATOM      6  C   UNL     1       3.937   2.684  -0.576  0.00  0.00    +0.052 A 
ATOM      7  C   UNL     1       3.213   3.053   0.574  0.00  0.00    -0.001 A 
ATOM      8  C   UNL     1       3.784   3.927   1.506  0.00  0.00    +0.013 A 
ATOM      9  C   UNL     1       1.869   2.508   0.772  0.00  0.00    +0.017 A 
ATOM     10  C   UNL     1       1.368   1.664  -0.165  0.00  0.00    +0.011 A 
ATOM     11  C   UNL     1       2.137   1.322  -1.297  0.00  0.00    +0.251 A 
ATOM     12  O   UNL     1       1.670   0.558  -2.124  0.00  0.00    -0.268 OA
ATOM     13  N   UNL     1       3.371   1.822  -1.490  0.00  0.00    -0.322 N 
ATOM     14  H   UNL     1       3.871   1.569  -2.282  0.00  0.00    +0.169 HD
ATOM     15  C   UNL     1       6.005   2.813  -1.996  0.00  0.00    +0.046 C 
ENDBRANCH   1  10
BRANCH   1  21
ATOM     16  C   UNL     1      -0.901   2.962  -1.238  0.00  0.00    -0.077 C 
ATOM     17  C   UNL     1      -1.671   3.350  -2.502  0.00  0.00    -0.015 C 
ATOM     18  C   UNL     1      -3.093   2.787  -2.421  0.00  0.00    -0.010 C 
ATOM     19  C   UNL     1      -3.022   1.267  -2.248  0.00  0.00    -0.015 C 
ATOM     20  C   UNL     1      -2.213   0.939  -0.992  0.00  0.00    -0.077 C 
ATOM     21  N   UNL     1      -0.848   1.487  -1.143  0.00  0.00    +0.389 N 
ATOM     22  H   UNL     1      -0.432   1.113  -2.003  0.00  0.00    -0.080 HD
BRANCH  18  23
ATOM     23  C   UNL     1      -3.850   3.120  -3.708  0.00  0.00    +0.038 C 
BRANCH  23  24
ATOM     24  C   UNL     1      -4.026   4.613  -3.816  0.00  0.00    -0.047 A 
ATOM     25  C   UNL     1      -5.148   5.217  -3.279  0.00  0.00    +0.003 A 
ATOM     26  C   UNL     1      -5.307   6.587  -3.374  0.00  0.00    +0.000 A 
ATOM     27  C   UNL     1      -4.349   7.352  -4.013  0.00  0.00    +0.000 A 
ATOM     28  C   UNL     1      -3.230   6.747  -4.553  0.00  0.00    +0.000 A 
ATOM     29  C   UNL     1      -3.068   5.378  -4.455  0.00  0.00    +0.003 A 
ENDBRANCH  23  24
ENDBRANCH  18  23
ENDBRANCH   1  21
BRANCH   1  30
ATOM     30  C   UNL     1      -0.610   1.588   1.297  0.00  0.00    +0.143 A 
ATOM     31  N   UNL     1      -1.084   2.788   1.525  0.00  0.00    -0.115 NA
ATOM     32  N   UNL     1      -1.506   2.825   2.742  0.00  0.00    -0.023 NA
ATOM     33  N   UNL     1      -1.306   1.682   3.299  0.00  0.00    -0.044 NA
ATOM     34  N   UNL     1      -0.755   0.892   2.440  0.00  0.00    -0.228 N 
BRANCH  34  35
ATOM     35  C   UNL     1      -0.363  -0.501   2.667  0.00  0.00    +0.178 C 
BRANCH  35  36
ATOM     36  C   UNL     1       1.078  -0.548   3.178  0.00  0.00    +0.140 C 
ATOM     37  C   UNL     1       1.496  -2.010   3.476  0.00  0.00    +0.035 C 
ATOM     38  C   UNL     1       3.039  -1.912   3.331  0.00  0.00    +0.031 C 
ATOM     39  C   UNL     1       3.196  -0.862   2.210  0.00  0.00    +0.160 C 
ATOM     40  O   UNL     1       1.984  -0.100   2.158  0.00  0.00    -0.375 OA
ENDBRANCH  35  36
ENDBRANCH  34  35
ENDBRANCH   1  30
TORSDOF 7
