REMARK  Name = ZINC00883367
REMARK  8 active torsions:
REMARK  status: ('A' for Active; 'I' for Inactive)
REMARK    1  A    between atoms: C_1  and  O_2
REMARK    2  A    between atoms: O_2  and  C_3
REMARK    3  A    between atoms: C_5  and  C_13
REMARK    4  A    between atoms: C_6  and  O_11
REMARK    5  A    between atoms: C_8  and  O_9
REMARK    6  A    between atoms: O_9  and  C_10
REMARK    7  A    between atoms: O_11  and  C_12
REMARK    8  A    between atoms: C_18  and  C_23
REMARK                            x       y       z     vdW  Elec       q    Type
REMARK                         _______ _______ _______ _____ _____    ______ ____
ROOT
ATOM      1  C   UNL     1      -3.297   3.616   1.346  0.00  0.00    +0.140 C 
ATOM      2  C   UNL     1      -3.953   2.286   1.630  0.00  0.00    +0.037 C 
ATOM      3  C   UNL     1      -3.629   1.110   1.065  0.00  0.00    +0.017 C 
ATOM      4  C   UNL     1      -4.356  -0.162   1.467  0.00  0.00    +0.059 C 
ATOM      5  C   UNL     1      -5.809   0.158   1.816  0.00  0.00    +0.032 C 
ATOM      6  C   UNL     1      -5.800   1.154   2.982  0.00  0.00    +0.088 C 
ATOM      7  C   UNL     1      -4.998   2.355   2.580  0.00  0.00    +0.163 C 
ATOM      8  O   UNL     1      -5.256   3.428   3.091  0.00  0.00    -0.292 OA
ATOM      9  N   UNL     1      -2.657   0.942   0.133  0.00  0.00    -0.316 N 
ATOM     10  C   UNL     1      -1.377   1.475   0.218  0.00  0.00    +0.052 A 
ATOM     11  C   UNL     1      -0.248   0.677   0.298  0.00  0.00    +0.025 A 
ATOM     12  C   UNL     1       1.003   1.269   0.287  0.00  0.00    +0.002 A 
ATOM     13  C   UNL     1       1.125   2.644   0.204  0.00  0.00    +0.002 A 
ATOM     14  C   UNL     1      -0.003   3.444   0.146  0.00  0.00    +0.025 A 
ATOM     15  C   UNL     1      -1.256   2.856   0.173  0.00  0.00    +0.049 A 
ATOM     16  N   UNL     1      -2.422   3.621   0.203  0.00  0.00    -0.331 N 
ATOM     17  H   UNL     1      -2.872   0.410  -0.649  0.00  0.00    +0.152 HD
ATOM     18  H   UNL     1      -2.654   4.167  -0.565  0.00  0.00    +0.147 HD
ENDROOT
BRANCH   1  21
ATOM     19  C   UNL     1      -1.425   3.446   4.624  0.00  0.00    +0.162 A 
ATOM     20  C   UNL     1      -2.164   3.078   3.512  0.00  0.00    +0.058 A 
ATOM     21  C   UNL     1      -2.494   4.020   2.556  0.00  0.00    +0.023 A 
ATOM     22  C   UNL     1      -2.082   5.336   2.705  0.00  0.00    +0.129 A 
ATOM     23  C   UNL     1      -1.347   5.710   3.820  0.00  0.00    +0.095 A 
ATOM     24  C   UNL     1      -1.016   4.767   4.779  0.00  0.00    +0.165 A 
BRANCH  19  26
ATOM     25  C   UNL     1      -1.554   1.182   5.340  0.00  0.00    +0.277 C 
ATOM     26  O   UNL     1      -1.101   2.518   5.564  0.00  0.00    -0.491 OA
ENDBRANCH  19  26
BRANCH  24  27
ATOM     27  O   UNL     1      -0.291   5.131   5.870  0.00  0.00    -0.491 OA
ATOM     28  C   UNL     1       0.096   6.504   5.964  0.00  0.00    +0.277 C 
ENDBRANCH  24  27
BRANCH  22  29
ATOM     29  O   UNL     1      -2.403   6.260   1.761  0.00  0.00    -0.495 OA
ATOM     30  C   UNL     1      -1.946   7.596   1.979  0.00  0.00    +0.277 C 
ENDBRANCH  22  29
ENDBRANCH   1  21
BRANCH   5  31
ATOM     31  C   UNL     1      -6.525  -1.103   2.226  0.00  0.00    -0.044 A 
ATOM     32  C   UNL     1      -6.075  -1.832   3.311  0.00  0.00    +0.004 A 
ATOM     33  C   UNL     1      -6.735  -2.986   3.690  0.00  0.00    +0.000 A 
ATOM     34  C   UNL     1      -7.840  -3.416   2.979  0.00  0.00    +0.000 A 
ATOM     35  C   UNL     1      -8.287  -2.689   1.891  0.00  0.00    +0.000 A 
ATOM     36  C   UNL     1      -7.630  -1.532   1.515  0.00  0.00    +0.004 A 
ENDBRANCH   5  31
TORSDOF 5
