REMARK  Name = ZINC02803080
REMARK  9 active torsions:
REMARK  status: ('A' for Active; 'I' for Inactive)
REMARK    1  A    between atoms: C_1  and  C_2
REMARK    2  A    between atoms: C_4  and  C_29
REMARK    3  A    between atoms: N_5  and  N_12
REMARK    4  A    between atoms: C_8  and  C_9
REMARK    5  A    between atoms: C_13  and  C_15
REMARK    6  A    between atoms: C_22  and  C_25
REMARK    7  A    between atoms: C_25  and  C_26
REMARK    8  A    between atoms: C_25  and  C_27
REMARK    9  A    between atoms: C_25  and  C_28
REMARK                            x       y       z     vdW  Elec       q    Type
REMARK                         _______ _______ _______ _____ _____    ______ ____
ROOT
ATOM      1  N   UNL     1       1.136   1.891  -0.128  0.00  0.00    -0.215 N 
ATOM      2  C   UNL     1       0.010   1.207  -0.413  0.00  0.00    +0.284 C 
ATOM      3  O   UNL     1       0.059   0.007  -0.598  0.00  0.00    -0.267 OA
ATOM      4  H   UNL     1       1.097   2.849   0.019  0.00  0.00    +0.176 HD
ENDROOT
BRANCH   1   9
ATOM      5  C   UNL     1       6.096  -0.821   0.280  0.00  0.00    +0.045 C 
ATOM      6  C   UNL     1       4.778  -0.101   0.155  0.00  0.00    -0.031 A 
ATOM      7  C   UNL     1       4.100   0.338   1.292  0.00  0.00    +0.027 A 
ATOM      8  C   UNL     1       2.915   0.990   1.170  0.00  0.00    +0.040 A 
ATOM      9  N   UNL     1       2.362   1.219  -0.045  0.00  0.00    -0.228 N 
ATOM     10  C   UNL     1       2.975   0.817  -1.175  0.00  0.00    +0.281 A 
ATOM     11  O   UNL     1       2.464   1.036  -2.259  0.00  0.00    -0.265 OA
ATOM     12  C   UNL     1       4.218   0.136  -1.098  0.00  0.00    +0.105 A 
ATOM     13  C   UNL     1       2.200   1.461   2.409  0.00  0.00    +0.065 C 
BRANCH  12  14
ATOM     14  C   UNL     1       4.903  -0.311  -2.321  0.00  0.00    +0.247 C 
ATOM     15  O   UNL     1       6.021  -0.784  -2.253  0.00  0.00    -0.270 OA
ATOM     16  N   UNL     1       4.290  -0.197  -3.516  0.00  0.00    -0.325 N 
ATOM     17  H   UNL     1       3.429   0.245  -3.580  0.00  0.00    +0.145 HD
ATOM     18  H   UNL     1       4.711  -0.556  -4.313  0.00  0.00    +0.145 HD
ENDBRANCH  12  14
ENDBRANCH   1   9
BRANCH   2  19
ATOM     19  C   UNL     1      -1.287   1.919  -0.507  0.00  0.00    +0.173 A 
ATOM     20  C   UNL     1      -2.547   1.358  -0.800  0.00  0.00    +0.027 A 
ATOM     21  C   UNL     1      -3.402   2.407  -0.769  0.00  0.00    +0.141 A 
ATOM     22  O   UNL     1      -2.675   3.484  -0.478  0.00  0.00    -0.359 OA
ATOM     23  N   UNL     1      -1.502   3.204  -0.330  0.00  0.00    -0.073 NA
ATOM     24  C   UNL     1      -4.881   2.289  -1.028  0.00  0.00    +0.078 C 
ATOM     25  C   UNL     1      -5.144   0.944  -1.718  0.00  0.00    +0.012 C 
ATOM     26  C   UNL     1      -4.462  -0.180  -0.935  0.00  0.00    -0.001 C 
ATOM     27  C   UNL     1      -2.938  -0.061  -1.088  0.00  0.00    +0.045 C 
BRANCH  26  28
ATOM     28  C   UNL     1      -4.925  -1.534  -1.478  0.00  0.00    -0.035 C 
ATOM     29  C   UNL     1      -4.244  -2.658  -0.695  0.00  0.00    +0.011 C 
ATOM     30  C   UNL     1      -6.442  -1.652  -1.326  0.00  0.00    +0.011 C 
ATOM     31  C   UNL     1      -4.551  -1.644  -2.958  0.00  0.00    +0.011 C 
ENDBRANCH  26  28
ENDBRANCH   2  19
TORSDOF 4
