REMARK  Name = ZINC09001736
REMARK  7 active torsions:
REMARK  status: ('A' for Active; 'I' for Inactive)
REMARK    1  A    between atoms: C_1  and  C_2
REMARK    2  A    between atoms: C_4  and  C_24
REMARK    3  A    between atoms: C_5  and  C_9
REMARK    4  A    between atoms: C_6  and  C_8
REMARK    5  A    between atoms: C_15  and  C_17
REMARK    6  A    between atoms: C_19  and  C_23
REMARK    7  A    between atoms: N_20  and  C_22
REMARK                            x       y       z     vdW  Elec       q    Type
REMARK                         _______ _______ _______ _____ _____    ______ ____
ROOT
ATOM      1  C   UNL     1      -8.492   2.900   3.005  0.00  0.00    +0.081 A 
ATOM      2  C   UNL     1      -8.681   3.062   4.349  0.00  0.00    +0.076 A 
ATOM      3  S   UNL     1      -7.020   2.792   4.953  0.00  0.00    -0.060 S 
ATOM      4  C   UNL     1      -6.250   2.506   3.366  0.00  0.00    +0.165 A 
ATOM      5  N   UNL     1      -7.279   2.626   2.548  0.00  0.00    -0.225 NA
ATOM      6  N   UNL     1      -4.922   2.225   3.071  0.00  0.00    -0.259 N 
ATOM      7  C   UNL     1      -4.014   2.144   4.064  0.00  0.00    +0.270 C 
ATOM      8  O   UNL     1      -4.357   2.317   5.218  0.00  0.00    -0.268 OA
ATOM      9  H   UNL     1      -4.648   2.087   2.151  0.00  0.00    +0.157 HD
ENDROOT
BRANCH   1  14
ATOM     10  C   UNL     1     -12.923   3.408  -0.637  0.00  0.00    +0.044 C 
ATOM     11  C   UNL     1     -11.764   3.275   0.316  0.00  0.00    -0.050 A 
ATOM     12  C   UNL     1     -10.609   4.006   0.102  0.00  0.00    +0.007 A 
ATOM     13  C   UNL     1      -9.544   3.888   0.972  0.00  0.00    -0.041 A 
ATOM     14  C   UNL     1      -9.633   3.031   2.067  0.00  0.00    +0.007 A 
ATOM     15  C   UNL     1     -10.797   2.293   2.275  0.00  0.00    -0.041 A 
ATOM     16  C   UNL     1     -11.858   2.422   1.401  0.00  0.00    +0.007 A 
ATOM     17  C   UNL     1     -10.900   1.360   3.454  0.00  0.00    +0.044 C 
ATOM     18  C   UNL     1      -8.286   4.686   0.738  0.00  0.00    +0.044 C 
ENDBRANCH   1  14
BRANCH   7  19
ATOM     19  C   UNL     1      -2.602   1.845   3.751  0.00  0.00    +0.148 A 
ATOM     20  C   UNL     1      -1.540   1.729   4.679  0.00  0.00    +0.057 A 
ATOM     21  C   UNL     1      -0.442   1.450   3.939  0.00  0.00    +0.037 A 
ATOM     22  N   UNL     1      -0.831   1.405   2.647  0.00  0.00    -0.271 N 
ATOM     23  N   UNL     1      -2.091   1.641   2.554  0.00  0.00    -0.167 NA
ATOM     24  C   UNL     1       0.056   1.131   1.513  0.00  0.00    +0.172 C 
ATOM     25  C   UNL     1       0.956   1.233   4.460  0.00  0.00    +0.065 C 
ENDBRANCH   7  19
TORSDOF 2
