REMARK  Name = ZINC36752295
REMARK  3 active torsions:
REMARK  status: ('A' for Active; 'I' for Inactive)
REMARK    1  A    between atoms: C_4  and  N_18
REMARK    2  A    between atoms: C_6  and  C_7
REMARK    3  A    between atoms: N_9  and  C_10
REMARK                            x       y       z     vdW  Elec       q    Type
REMARK                         _______ _______ _______ _____ _____    ______ ____
ROOT
ATOM      1  C   UNL     1      -1.266  -0.763   0.017  0.00  0.00    +0.248 C 
ATOM      2  O   UNL     1      -1.247  -1.979   0.007  0.00  0.00    -0.270 OA
ATOM      3  N   UNL     1      -2.443  -0.107   0.025  0.00  0.00    -0.279 N 
ATOM      4  H   UNL     1      -2.459   0.860   0.098  0.00  0.00    +0.155 HD
ENDROOT
BRANCH   3   5
ATOM      5  C   UNL     1      -3.643  -0.821  -0.073  0.00  0.00    +0.070 A 
ATOM      6  C   UNL     1      -3.756  -2.075   0.512  0.00  0.00    +0.041 A 
ATOM      7  C   UNL     1      -4.942  -2.778   0.414  0.00  0.00    +0.020 A 
ATOM      8  C   UNL     1      -6.016  -2.234  -0.268  0.00  0.00    +0.018 A 
ATOM      9  C   UNL     1      -5.907  -0.986  -0.853  0.00  0.00    +0.041 A 
ATOM     10  C   UNL     1      -4.726  -0.274  -0.752  0.00  0.00    +0.145 A 
ATOM     11  F   UNL     1      -4.622   0.948  -1.319  0.00  0.00    -0.204 F 
ATOM     12 BR   UNL     1      -5.096  -4.485   1.211  0.00  0.00    -0.050 Br
ENDBRANCH   3   5
BRANCH   1  18
ATOM     13  C   UNL     1      -0.016   1.391   0.032  0.00  0.00    +0.016 A 
ATOM     14  C   UNL     1       1.170   2.093   0.036  0.00  0.00    +0.041 A 
ATOM     15  C   UNL     1       2.380   1.416   0.028  0.00  0.00    +0.153 A 
ATOM     16  C   UNL     1       2.404   0.029   0.016  0.00  0.00    +0.162 A 
ATOM     17  C   UNL     1       1.224  -0.683   0.012  0.00  0.00    +0.048 A 
ATOM     18  C   UNL     1       0.002  -0.005   0.021  0.00  0.00    +0.039 A 
ATOM     19  F   UNL     1       3.539   2.109   0.031  0.00  0.00    -0.203 F 
BRANCH  16  20
ATOM     20  N   UNL     1       3.699  -0.687   0.007  0.00  0.00    +0.059 N 
ATOM     21  O   UNL     1       3.721  -1.896  -0.004  0.00  0.00    -0.126 OA
ATOM     22  O   UNL     1       4.735  -0.063   0.009  0.00  0.00    -0.126 OA
ENDBRANCH  16  20
ENDBRANCH   1  18
TORSDOF 3
