REMARK  Name = ZINC07493356
REMARK  4 active torsions:
REMARK  status: ('A' for Active; 'I' for Inactive)
REMARK    1  A    between atoms: N_7  and  C_11
REMARK    2  A    between atoms: C_11  and  C_12
REMARK    3  A    between atoms: N_14  and  C_15
REMARK    4  A    between atoms: C_18  and  N_22
REMARK                            x       y       z     vdW  Elec       q    Type
REMARK                         _______ _______ _______ _____ _____    ______ ____
ROOT
ATOM      1  C   UNL     1       0.072  -0.167  -0.146  0.00  0.00    +0.235 C 
ATOM      2  O   UNL     1      -0.400  -0.928   0.672  0.00  0.00    -0.274 OA
ATOM      3  N   UNL     1       0.755  -0.651  -1.202  0.00  0.00    -0.283 N 
ATOM      4  H   UNL     1       1.193  -0.043  -1.817  0.00  0.00    +0.155 HD
ENDROOT
BRANCH   3   5
ATOM      5  C   UNL     1       0.834  -2.034  -1.410  0.00  0.00    +0.052 A 
ATOM      6  C   UNL     1      -0.229  -2.852  -1.053  0.00  0.00    +0.027 A 
ATOM      7  C   UNL     1      -0.149  -4.216  -1.259  0.00  0.00    +0.034 A 
ATOM      8  C   UNL     1       0.988  -4.766  -1.822  0.00  0.00    +0.128 A 
ATOM      9  C   UNL     1       2.049  -3.954  -2.179  0.00  0.00    +0.054 A 
ATOM     10  C   UNL     1       1.973  -2.588  -1.980  0.00  0.00    +0.064 A 
ATOM     11 CL   UNL     1       3.302  -1.569  -2.435  0.00  0.00    -0.082 Cl
BRANCH   8  12
ATOM     12  N   UNL     1       1.070  -6.227  -2.042  0.00  0.00    +0.056 N 
ATOM     13  O   UNL     1       0.136  -6.944  -1.728  0.00  0.00    -0.126 OA
ATOM     14  O   UNL     1       2.071  -6.714  -2.537  0.00  0.00    -0.126 OA
ENDBRANCH   8  12
ENDBRANCH   3   5
BRANCH   1  15
ATOM     15  C   UNL     1      -0.105   1.321   0.018  0.00  0.00    +0.201 C 
BRANCH  15  22
ATOM     16  C   UNL     1       1.951   0.659   3.348  0.00  0.00    +0.002 A 
ATOM     17  C   UNL     1       1.341   0.311   4.539  0.00  0.00    +0.001 A 
ATOM     18  C   UNL     1      -0.035   0.373   4.646  0.00  0.00    +0.016 A 
ATOM     19  C   UNL     1      -0.806   0.782   3.564  0.00  0.00    +0.029 A 
ATOM     20  C   UNL     1      -0.200   1.147   2.367  0.00  0.00    +0.044 A 
ATOM     21  C   UNL     1       1.192   1.073   2.274  0.00  0.00    +0.024 A 
ATOM     22  N   UNL     1      -0.879   1.590   1.237  0.00  0.00    -0.319 N 
ATOM     23  C   UNL     1      -2.259   1.151   1.087  0.00  0.00    +0.116 C 
ATOM     24  C   UNL     1      -3.097   1.707   2.250  0.00  0.00    +0.093 C 
ATOM     25  S   UNL     1      -2.563   0.817   3.746  0.00  0.00    -0.122 S 
ENDBRANCH  15  22
ENDBRANCH   1  15
TORSDOF 4
