REMARK  Name = ZINC12199334
REMARK  6 active torsions:
REMARK  status: ('A' for Active; 'I' for Inactive)
REMARK    1  A    between atoms: C_1  and  C_2
REMARK    2  A    between atoms: C_2  and  C_3
REMARK    3  A    between atoms: C_15  and  N_17
REMARK    4  A    between atoms: N_17  and  S_18
REMARK    5  A    between atoms: S_18  and  C_21
REMARK    6  A    between atoms: C_24  and  N_27
REMARK                            x       y       z     vdW  Elec       q    Type
REMARK                         _______ _______ _______ _____ _____    ______ ____
ROOT
ATOM      1  N   UNL     1       8.002   4.582   1.827  0.00  0.00    -0.216 N 
ATOM      2  H   UNL     1       8.055   5.541   1.960  0.00  0.00    +0.174 HD
ENDROOT
BRANCH   1  15
ATOM      3  C   UNL     1      11.211  -0.264   6.276  0.00  0.00    -0.024 A 
ATOM      4  C   UNL     1      10.702  -0.794   7.443  0.00  0.00    +0.005 A 
ATOM      5  C   UNL     1       9.447  -0.422   7.898  0.00  0.00    +0.001 A 
ATOM      6  C   UNL     1       8.691   0.485   7.186  0.00  0.00    +0.010 A 
ATOM      7  C   UNL     1       9.193   1.028   6.006  0.00  0.00    +0.008 A 
ATOM      8  C   UNL     1      10.463   0.653   5.544  0.00  0.00    +0.051 A 
ATOM      9  N   UNL     1      10.717   1.332   4.364  0.00  0.00    -0.354 N 
ATOM     10  H   UNL     1      11.529   1.249   3.841  0.00  0.00    +0.166 HD
ATOM     11  C   UNL     1       9.646   2.145   4.039  0.00  0.00    +0.049 A 
ATOM     12  C   UNL     1       8.662   1.997   5.029  0.00  0.00    +0.008 A 
ATOM     13  C   UNL     1       7.469   2.711   4.943  0.00  0.00    +0.012 A 
ATOM     14  C   UNL     1       7.257   3.569   3.887  0.00  0.00    +0.025 A 
ATOM     15  C   UNL     1       8.228   3.714   2.898  0.00  0.00    +0.050 A 
ATOM     16  C   UNL     1       9.417   3.009   2.975  0.00  0.00    +0.050 A 
BRANCH   3  18
ATOM     17  C   UNL     1      13.617   0.335   6.278  0.00  0.00    +0.009 C 
ATOM     18  C   UNL     1      12.577  -0.678   5.794  0.00  0.00    +0.034 C 
ENDBRANCH   3  18
ENDBRANCH   1  15
BRANCH   1  19
ATOM     19  S   UNL     1       7.646   3.972   0.329  0.00  0.00    +0.072 S 
ATOM     20  O   UNL     1       8.629   2.985   0.048  0.00  0.00    -0.150 OA
ATOM     21  O   UNL     1       7.423   5.088  -0.521  0.00  0.00    -0.150 OA
BRANCH  19  22
ATOM     22  C   UNL     1       6.106   3.126   0.464  0.00  0.00    +0.109 A 
ATOM     23  C   UNL     1       4.928   3.785   0.166  0.00  0.00    +0.030 A 
ATOM     24  C   UNL     1       3.720   3.124   0.270  0.00  0.00    +0.025 A 
ATOM     25  C   UNL     1       3.689   1.797   0.676  0.00  0.00    +0.036 A 
ATOM     26  C   UNL     1       4.873   1.139   0.981  0.00  0.00    +0.025 A 
ATOM     27  C   UNL     1       6.079   1.803   0.868  0.00  0.00    +0.030 A 
BRANCH  25  28
ATOM     28  N   UNL     1       2.466   1.125   0.784  0.00  0.00    -0.271 N 
ATOM     29  C   UNL     1       1.997   0.769   2.117  0.00  0.00    +0.113 C 
ATOM     30  C   UNL     1       0.494   0.488   2.099  0.00  0.00    +0.020 C 
ATOM     31  C   UNL     1       0.195  -0.510   0.974  0.00  0.00    +0.011 C 
ATOM     32  C   UNL     1       0.460   0.179  -0.367  0.00  0.00    +0.096 C 
ATOM     33  C   UNL     1       1.803   0.850  -0.340  0.00  0.00    +0.220 C 
ATOM     34  O   UNL     1       2.312   1.160  -1.397  0.00  0.00    -0.275 OA
ENDBRANCH  25  28
ENDBRANCH  19  22
ENDBRANCH   1  19
TORSDOF 5
