REMARK  Name = ZINC38597702
REMARK  7 active torsions:
REMARK  status: ('A' for Active; 'I' for Inactive)
REMARK    1  A    between atoms: C_3  and  C_6
REMARK    2  A    between atoms: C_6  and  C_8
REMARK    3  A    between atoms: C_6  and  N_22
REMARK    4  A    between atoms: C_8  and  N_9
REMARK    5  A    between atoms: C_10  and  C_12
REMARK    6  A    between atoms: C_17  and  N_18
REMARK    7  A    between atoms: N_25  and  C_28
REMARK                            x       y       z     vdW  Elec       q    Type
REMARK                         _______ _______ _______ _____ _____    ______ ____
ROOT
ATOM      1  C   UNL     1       3.845   0.472  -0.435  0.00  0.00    +0.017 C 
ENDROOT
BRANCH   1   2
ATOM      2  N   UNL     1       4.205  -0.733   0.325  0.00  0.00    +0.389 N 
ATOM      3  C   UNL     1       3.693  -1.920  -0.371  0.00  0.00    -0.059 C 
ATOM      4  C   UNL     1       4.166  -3.182   0.358  0.00  0.00    +0.086 C 
ATOM      5  N   UNL     1       3.763  -3.083   1.770  0.00  0.00    -0.333 N 
ATOM      6  C   UNL     1       4.094  -1.851   2.501  0.00  0.00    +0.086 C 
ATOM      7  C   UNL     1       3.624  -0.652   1.671  0.00  0.00    -0.059 C 
ATOM      8  H   UNL     1       5.210  -0.795   0.397  0.00  0.00    -0.081 HD
BRANCH   5   9
ATOM      9  C   UNL     1       3.084  -4.132   2.398  0.00  0.00    +0.030 A 
ATOM     10  C   UNL     1       2.903  -5.339   1.736  0.00  0.00    +0.026 A 
ATOM     11  C   UNL     1       2.233  -6.374   2.358  0.00  0.00    +0.040 A 
ATOM     12  C   UNL     1       1.741  -6.208   3.642  0.00  0.00    +0.124 A 
ATOM     13  C   UNL     1       1.919  -5.005   4.304  0.00  0.00    +0.040 A 
ATOM     14  C   UNL     1       2.594  -3.970   3.687  0.00  0.00    +0.026 A 
ATOM     15  F   UNL     1       1.085  -7.221   4.249  0.00  0.00    -0.205 F 
ENDBRANCH   5   9
ENDBRANCH   1   2
BRANCH   1  18
ATOM     16  C   UNL     1       0.281   1.411  -0.372  0.00  0.00    +0.041 A 
ATOM     17  C   UNL     1       1.650   1.731  -0.217  0.00  0.00    +0.043 A 
ATOM     18  C   UNL     1       2.344   0.609  -0.477  0.00  0.00    +0.093 A 
ATOM     19  O   UNL     1       1.474  -0.368  -0.780  0.00  0.00    -0.469 OA
ATOM     20  C   UNL     1       0.222   0.113  -0.718  0.00  0.00    +0.195 A 
ENDBRANCH   1  18
BRANCH   1  21
ATOM     21  C   UNL     1       4.386   0.356  -1.862  0.00  0.00    +0.097 C 
BRANCH  21  22
ATOM     22  N   UNL     1       5.832   0.128  -1.819  0.00  0.00    -0.312 N 
ATOM     23  C   UNL     1       6.511  -0.111  -2.958  0.00  0.00    +0.246 C 
ATOM     24  O   UNL     1       5.923  -0.138  -4.021  0.00  0.00    -0.270 OA
ATOM     25  H   UNL     1       6.301   0.150  -0.970  0.00  0.00    +0.149 HD
BRANCH  23  26
ATOM     26  C   UNL     1       7.971  -0.340  -2.914  0.00  0.00    +0.068 A 
ATOM     27  C   UNL     1       8.817   0.631  -2.378  0.00  0.00    +0.035 A 
ATOM     28  C   UNL     1      10.180   0.411  -2.340  0.00  0.00    +0.042 A 
ATOM     29  C   UNL     1      10.706  -0.772  -2.833  0.00  0.00    +0.022 A 
ATOM     30  C   UNL     1       9.872  -1.738  -3.366  0.00  0.00    +0.035 A 
ATOM     31  C   UNL     1       8.508  -1.532  -3.404  0.00  0.00    +0.138 A 
ATOM     32 CL   UNL     1      11.235   1.617  -1.674  0.00  0.00    -0.084 Cl
BRANCH  31  33
ATOM     33  N   UNL     1       7.617  -2.570  -3.969  0.00  0.00    +0.057 N 
ATOM     34  O   UNL     1       8.080  -3.614  -4.364  0.00  0.00    -0.126 OA
ATOM     35  O   UNL     1       6.426  -2.373  -4.036  0.00  0.00    -0.126 OA
ENDBRANCH  31  33
ENDBRANCH  23  26
ENDBRANCH  21  22
ENDBRANCH   1  21
TORSDOF 7
