REMARK  Name = ZINC43262328
REMARK  12 active torsions:
REMARK  status: ('A' for Active; 'I' for Inactive)
REMARK    1  A    between atoms: C_1  and  C_2
REMARK    2  A    between atoms: C_2  and  C_3
REMARK    3  A    between atoms: C_3  and  C_4
REMARK    4  A    between atoms: C_4  and  C_5
REMARK    5  A    between atoms: C_5  and  C_6
REMARK    6  A    between atoms: C_9  and  C_12
REMARK    7  A    between atoms: C_18  and  C_21
REMARK    8  A    between atoms: N_23  and  C_24
REMARK    9  A    between atoms: C_24  and  C_25
REMARK   10  A    between atoms: C_25  and  C_26
REMARK   11  A    between atoms: C_26  and  C_27
REMARK   12  A    between atoms: C_26  and  C_33
REMARK                            x       y       z     vdW  Elec       q    Type
REMARK                         _______ _______ _______ _____ _____    ______ ____
ROOT
ATOM      1  C   UNL     1       2.998  -7.087  -1.244  0.00  0.00    -0.027 C 
ATOM      2  C   UNL     1       3.391  -7.370  -2.698  0.00  0.00    +0.092 C 
ATOM      3  S   UNL     1       3.040  -9.120  -3.054  0.00  0.00    +0.020 S 
ATOM      4  O   UNL     1       3.082  -9.336  -4.457  0.00  0.00    -0.257 OA
ATOM      5  C   UNL     1       1.329  -9.312  -2.462  0.00  0.00    +0.097 C 
ATOM      6  C   UNL     1       1.245  -8.738  -1.042  0.00  0.00    +0.029 C 
ATOM      7  N   UNL     1       1.562  -7.308  -1.065  0.00  0.00    +0.392 N 
ATOM      8  H   UNL     1       1.268  -6.891  -0.195  0.00  0.00    -0.084 HD
ATOM      9  H   UNL     1       1.063  -6.870  -1.825  0.00  0.00    -0.084 HD
ENDROOT
BRANCH   1  13
ATOM     10  C   UNL     1       3.940  -3.032  -0.285  0.00  0.00    -0.047 A 
ATOM     11  C   UNL     1       4.790  -4.050   0.105  0.00  0.00    +0.004 A 
ATOM     12  C   UNL     1       4.485  -5.362  -0.205  0.00  0.00    +0.002 A 
ATOM     13  C   UNL     1       3.330  -5.657  -0.904  0.00  0.00    -0.060 A 
ATOM     14  C   UNL     1       2.479  -4.639  -1.294  0.00  0.00    +0.002 A 
ATOM     15  C   UNL     1       2.782  -3.327  -0.980  0.00  0.00    +0.004 A 
BRANCH  10  16
ATOM     16  C   UNL     1       4.272  -1.602   0.053  0.00  0.00    +0.035 C 
BRANCH  16  17
ATOM     17  C   UNL     1       3.669  -1.246   1.414  0.00  0.00    +0.005 C 
BRANCH  17  18
ATOM     18  C   UNL     1       4.007   0.207   1.757  0.00  0.00    +0.000 C 
BRANCH  18  20
ATOM     19  C   UNL     1       3.741   2.015   3.460  0.00  0.00    +0.004 C 
ATOM     20  C   UNL     1       3.403   0.563   3.117  0.00  0.00    -0.003 C 
ENDBRANCH  18  20
ENDBRANCH  17  18
ENDBRANCH  16  17
ENDBRANCH  10  16
ENDBRANCH   1  13
BRANCH   6  21
ATOM     21  C   UNL     1       2.229  -9.454  -0.153  0.00  0.00    +0.200 C 
ATOM     22  O   UNL     1       2.824  -8.843   0.709  0.00  0.00    -0.278 OA
ATOM     23  N   UNL     1       2.449 -10.774  -0.317  0.00  0.00    -0.317 N 
ATOM     24  H   UNL     1       1.974 -11.263  -1.007  0.00  0.00    +0.149 HD
BRANCH  23  25
ATOM     25  C   UNL     1       3.406 -11.470   0.547  0.00  0.00    +0.105 C 
BRANCH  25  26
ATOM     26  C   UNL     1       3.466 -12.947   0.154  0.00  0.00    +0.031 C 
BRANCH  26  27
ATOM     27  C   UNL     1       4.466 -13.674   1.056  0.00  0.00    +0.050 C 
BRANCH  27  28
ATOM     28  C   UNL     1       3.963 -13.660   2.477  0.00  0.00    -0.040 A 
ATOM     29  C   UNL     1       4.771 -13.181   3.491  0.00  0.00    +0.004 A 
ATOM     30  C   UNL     1       4.309 -13.167   4.794  0.00  0.00    +0.000 A 
ATOM     31  C   UNL     1       3.040 -13.633   5.083  0.00  0.00    +0.000 A 
ATOM     32  C   UNL     1       2.232 -14.111   4.068  0.00  0.00    +0.000 A 
ATOM     33  C   UNL     1       2.692 -14.120   2.765  0.00  0.00    +0.004 A 
ENDBRANCH  27  28
BRANCH  27  34
ATOM     34  C   UNL     1       4.617 -15.100   0.592  0.00  0.00    -0.040 A 
ATOM     35  C   UNL     1       3.499 -15.896   0.429  0.00  0.00    +0.004 A 
ATOM     36  C   UNL     1       3.639 -17.204   0.003  0.00  0.00    +0.000 A 
ATOM     37  C   UNL     1       4.896 -17.715  -0.261  0.00  0.00    +0.000 A 
ATOM     38  C   UNL     1       6.013 -16.918  -0.099  0.00  0.00    +0.000 A 
ATOM     39  C   UNL     1       5.874 -15.609   0.323  0.00  0.00    +0.004 A 
ENDBRANCH  27  34
ENDBRANCH  26  27
ENDBRANCH  25  26
ENDBRANCH  23  25
ENDBRANCH   6  21
TORSDOF 11
