REMARK  Name = ZINC38832529
REMARK  4 active torsions:
REMARK  status: ('A' for Active; 'I' for Inactive)
REMARK    1  A    between atoms: C_1  and  S_2
REMARK    2  A    between atoms: S_2  and  N_5
REMARK    3  A    between atoms: C_8  and  C_18
REMARK    4  A    between atoms: N_20  and  C_21
REMARK                            x       y       z     vdW  Elec       q    Type
REMARK                         _______ _______ _______ _____ _____    ______ ____
ROOT
ATOM      1  N   UNL     1       0.795  -0.411  -1.394  0.00  0.00    -0.204 N 
ATOM      2  C   UNL     1       0.060  -0.603  -2.652  0.00  0.00    +0.135 C 
ATOM      3  C   UNL     1      -0.189  -2.079  -2.897  0.00  0.00    +0.075 C 
ATOM      4  C   UNL     1       1.102  -2.865  -3.081  0.00  0.00    +0.260 C 
ATOM      5  O   UNL     1       1.863  -2.898  -1.876  0.00  0.00    -0.478 OA
ATOM      6  C   UNL     1       2.711  -1.847  -1.665  0.00  0.00    +0.144 A 
ATOM      7  C   UNL     1       2.187  -0.578  -1.411  0.00  0.00    +0.094 A 
ATOM      8  C   UNL     1       3.031   0.496  -1.181  0.00  0.00    +0.048 A 
ATOM      9  C   UNL     1       4.403   0.308  -1.214  0.00  0.00    +0.043 A 
ATOM     10  C   UNL     1       4.928  -0.945  -1.475  0.00  0.00    +0.024 A 
ATOM     11  C   UNL     1       4.080  -2.034  -1.700  0.00  0.00    +0.049 A 
ATOM     12 CL   UNL     1       5.467   1.649  -0.927  0.00  0.00    -0.083 Cl
ENDROOT
BRANCH   1  14
ATOM     13  C   UNL     1      -0.022   1.810   0.012  0.00  0.00    +0.218 C 
ATOM     14  S   UNL     1       0.002  -0.004   0.002  0.00  0.00    +0.043 S 
ATOM     15  O   UNL     1       0.835  -0.488   1.046  0.00  0.00    -0.155 OA
ATOM     16  O   UNL     1      -1.315  -0.510  -0.168  0.00  0.00    -0.155 OA
ENDBRANCH   1  14
BRANCH   4  17
ATOM     17  C   UNL     1       0.766  -4.277  -3.490  0.00  0.00    +0.254 C 
ATOM     18  O   UNL     1       1.036  -5.202  -2.754  0.00  0.00    -0.272 OA
ATOM     19  N   UNL     1       0.166  -4.510  -4.674  0.00  0.00    -0.309 N 
ATOM     20  H   UNL     1      -0.050  -3.770  -5.263  0.00  0.00    +0.149 HD
BRANCH  19  21
ATOM     21  C   UNL     1      -0.161  -5.882  -5.072  0.00  0.00    +0.073 C 
ATOM     22  C   UNL     1       1.040  -6.520  -5.801  0.00  0.00    +0.022 C 
ATOM     23  C   UNL     1       0.393  -7.385  -6.912  0.00  0.00    +0.002 C 
ATOM     24  C   UNL     1      -0.800  -6.513  -7.373  0.00  0.00    +0.002 C 
ATOM     25  C   UNL     1      -1.330  -5.877  -6.071  0.00  0.00    +0.022 C 
ENDBRANCH  19  21
ENDBRANCH   4  17
TORSDOF 3
