REMARK  Name = ZINC13569627
REMARK  9 active torsions:
REMARK  status: ('A' for Active; 'I' for Inactive)
REMARK    1  A    between atoms: C_1  and  C_2
REMARK    2  A    between atoms: C_5  and  C_7
REMARK    3  A    between atoms: C_10  and  C_11
REMARK    4  A    between atoms: C_10  and  O_23
REMARK    5  A    between atoms: C_12  and  C_22
REMARK    6  A    between atoms: C_13  and  C_18
REMARK    7  A    between atoms: C_16  and  C_17
REMARK    8  A    between atoms: N_20  and  C_21
REMARK    9  A    between atoms: C_31  and  C_34
REMARK                            x       y       z     vdW  Elec       q    Type
REMARK                         _______ _______ _______ _____ _____    ______ ____
ROOT
ATOM      1  C   UNL     1      -2.503  -0.435  -0.074  0.00  0.00    +0.187 C 
ATOM      2  C   UNL     1      -3.335  -1.696  -0.036  0.00  0.00    +0.075 C 
ATOM      3  C   UNL     1      -4.715  -1.783  -0.092  0.00  0.00    +0.135 C 
ATOM      4  C   UNL     1      -2.429  -2.759   0.073  0.00  0.00    +0.250 C 
ATOM      5  O   UNL     1      -2.718  -3.941   0.137  0.00  0.00    -0.282 OA
ATOM      6  C   UNL     1      -1.053  -2.196   0.097  0.00  0.00    +0.293 C 
ATOM      7  O   UNL     1      -0.034  -2.851   0.185  0.00  0.00    -0.266 OA
ATOM      8  N   UNL     1      -1.101  -0.856   0.008  0.00  0.00    -0.232 N 
ATOM      9  C   UNL     1       0.002  -0.004   0.002  0.00  0.00    +0.172 A 
ATOM     10  C   UNL     1       1.371  -0.382  -0.013  0.00  0.00    +0.091 A 
ATOM     11  C   UNL     1       2.035   0.797  -0.013  0.00  0.00    +0.136 A 
ATOM     12  O   UNL     1       1.103   1.761   0.001  0.00  0.00    -0.358 OA
ATOM     13  N   UNL     1      -0.016   1.303   0.009  0.00  0.00    -0.063 NA
ATOM     14  C   UNL     1       3.530   0.988  -0.026  0.00  0.00    +0.089 C 
ENDROOT
BRANCH   3  15
ATOM     15  C   UNL     1      -5.371  -3.097  -0.036  0.00  0.00    +0.041 A 
ATOM     16  C   UNL     1      -6.137  -3.610   1.037  0.00  0.00    -0.010 A 
ATOM     17  C   UNL     1      -6.556  -4.854   0.668  0.00  0.00    +0.106 A 
ATOM     18  N   UNL     1      -6.066  -5.122  -0.592  0.00  0.00    -0.354 N 
ATOM     19  H   UNL     1      -6.214  -5.942  -1.089  0.00  0.00    +0.166 HD
ATOM     20  C   UNL     1      -5.351  -4.071  -1.022  0.00  0.00    +0.024 A 
ATOM     21  C   UNL     1      -4.648  -3.966  -2.351  0.00  0.00    +0.064 C 
ATOM     22  C   UNL     1      -6.435  -2.913   2.339  0.00  0.00    +0.047 C 
BRANCH  17  23
ATOM     23  C   UNL     1      -7.385  -5.755   1.478  0.00  0.00    +0.260 C 
ATOM     24  O   UNL     1      -7.763  -5.409   2.581  0.00  0.00    -0.269 OA
ATOM     25  N   UNL     1      -7.728  -6.968   0.998  0.00  0.00    -0.313 N 
ATOM     26  C   UNL     1      -8.556  -7.867   1.806  0.00  0.00    +0.128 C 
ATOM     27  H   UNL     1      -7.428  -7.244   0.118  0.00  0.00    +0.149 HD
ENDBRANCH  17  23
ENDBRANCH   3  15
BRANCH   1  32
ATOM     28  C   UNL     1      -2.281   0.850  -4.946  0.00  0.00    +0.086 C 
ATOM     29  C   UNL     1      -2.649   0.860  -3.485  0.00  0.00    +0.102 A 
ATOM     30  C   UNL     1      -3.471   1.741  -2.886  0.00  0.00    +0.045 A 
ATOM     31  C   UNL     1      -3.533   1.381  -1.521  0.00  0.00    +0.047 A 
ATOM     32  C   UNL     1      -2.746   0.301  -1.367  0.00  0.00    +0.131 A 
ATOM     33  O   UNL     1      -2.208  -0.007  -2.558  0.00  0.00    -0.463 OA
ENDBRANCH   1  32
BRANCH   3  34
ATOM     34  O   UNL     1      -5.458  -0.661  -0.197  0.00  0.00    -0.506 OA
ATOM     35  H   UNL     1      -6.427  -0.905  -0.225  0.00  0.00    +0.292 HD
ENDBRANCH   3  34
TORSDOF 4
