REMARK  Name = ZINC38799979
REMARK  7 active torsions:
REMARK  status: ('A' for Active; 'I' for Inactive)
REMARK    1  A    between atoms: C_1  and  C_2
REMARK    2  A    between atoms: C_5  and  C_38
REMARK    3  A    between atoms: C_6  and  N_8
REMARK    4  A    between atoms: C_9  and  C_11
REMARK    5  A    between atoms: N_23  and  N_27
REMARK    6  A    between atoms: C_24  and  N_26
REMARK    7  A    between atoms: C_28  and  C_29
REMARK                            x       y       z     vdW  Elec       q    Type
REMARK                         _______ _______ _______ _____ _____    ______ ____
ROOT
ATOM      1  C   UNL     1       0.088  -3.379   5.316  0.00  0.00    +0.132 C 
ATOM      2  C   UNL     1       1.480  -3.924   5.084  0.00  0.00    +0.095 A 
ATOM      3  C   UNL     1       2.357  -3.278   5.971  0.00  0.00    +0.162 A 
ATOM      4  N   UNL     1       3.648  -3.589   5.960  0.00  0.00    -0.227 NA
ATOM      5  C   UNL     1       4.109  -4.510   5.109  0.00  0.00    +0.091 A 
ATOM      6  C   UNL     1       5.472  -4.854   5.081  0.00  0.00    +0.030 A 
ATOM      7  C   UNL     1       5.912  -5.797   4.203  0.00  0.00    +0.002 A 
ATOM      8  C   UNL     1       5.031  -6.429   3.328  0.00  0.00    +0.002 A 
ATOM      9  C   UNL     1       3.705  -6.121   3.326  0.00  0.00    +0.030 A 
ATOM     10  C   UNL     1       3.213  -5.154   4.218  0.00  0.00    +0.090 A 
ATOM     11  N   UNL     1       1.915  -4.830   4.241  0.00  0.00    -0.246 NA
ATOM     12  N   UNL     1       1.689  -2.361   6.769  0.00  0.00    -0.219 N 
ATOM     13  C   UNL     1       0.258  -2.345   6.441  0.00  0.00    +0.058 C 
ENDROOT
BRANCH   1  15
ATOM     14  N   UNL     1      -0.621  -3.442   2.947  0.00  0.00    -0.285 N 
ATOM     15  C   UNL     1      -0.433  -2.716   4.067  0.00  0.00    +0.226 C 
ATOM     16  O   UNL     1      -0.682  -1.529   4.069  0.00  0.00    -0.275 OA
ATOM     17  H   UNL     1      -0.496  -4.404   2.966  0.00  0.00    +0.155 HD
BRANCH  14  23
ATOM     18  C   UNL     1      -0.940   0.658   0.254  0.00  0.00    +0.044 C 
ATOM     19  C   UNL     1      -1.164  -0.822   0.426  0.00  0.00    -0.049 A 
ATOM     20  C   UNL     1      -1.743  -1.556  -0.594  0.00  0.00    +0.004 A 
ATOM     21  C   UNL     1      -1.949  -2.915  -0.441  0.00  0.00    +0.005 A 
ATOM     22  C   UNL     1      -1.579  -3.543   0.732  0.00  0.00    -0.029 A 
ATOM     23  C   UNL     1      -0.998  -2.809   1.758  0.00  0.00    +0.037 A 
ATOM     24  C   UNL     1      -0.786  -1.445   1.599  0.00  0.00    +0.027 A 
ATOM     25  C   UNL     1      -1.805  -5.024   0.899  0.00  0.00    +0.045 C 
ENDBRANCH  14  23
ENDBRANCH   1  15
BRANCH  13  26
ATOM     26  N   UNL     1      -0.538  -2.733   7.613  0.00  0.00    +0.392 N 
ATOM     27  H   UNL     1      -0.286  -3.668   7.896  0.00  0.00    -0.087 HD
ATOM     28  H   UNL     1      -0.356  -2.092   8.370  0.00  0.00    -0.087 HD
ATOM     29  H   UNL     1      -1.519  -2.706   7.377  0.00  0.00    -0.087 HD
ENDBRANCH  13  26
BRANCH  12  30
ATOM     30  N   UNL     1       2.245  -1.627   7.671  0.00  0.00    -0.188 NA
ATOM     31  C   UNL     1       1.539  -0.723   8.309  0.00  0.00    +0.136 C 
BRANCH  31  32
ATOM     32  C   UNL     1       2.117   0.009   9.350  0.00  0.00    +0.000 C 
ATOM     33  C   UNL     1       1.508   0.996  10.128  0.00  0.00    +0.004 A 
ATOM     34  C   UNL     1       0.207   1.542  10.127  0.00  0.00    +0.010 A 
ATOM     35  C   UNL     1      -0.115   2.514  11.019  0.00  0.00    +0.001 A 
ATOM     36  C   UNL     1       0.813   2.994  11.946  0.00  0.00    +0.002 A 
ATOM     37  C   UNL     1       2.080   2.515  12.003  0.00  0.00    +0.026 A 
ATOM     38  C   UNL     1       2.490   1.497  11.103  0.00  0.00    +0.043 A 
ATOM     39  N   UNL     1       3.644   0.875  10.957  0.00  0.00    -0.380 N 
ATOM     40  C   UNL     1       3.532  -0.105   9.873  0.00  0.00    +0.150 C 
ATOM     41  H   UNL     1       4.440   1.038  11.487  0.00  0.00    +0.160 HD
ENDBRANCH  31  32
ENDBRANCH  12  30
TORSDOF 5
