REMARK  Name = ZINC38965979
REMARK  8 active torsions:
REMARK  status: ('A' for Active; 'I' for Inactive)
REMARK    1  A    between atoms: C_1  and  C_2
REMARK    2  A    between atoms: C_2  and  C_3
REMARK    3  A    between atoms: C_8  and  N_9
REMARK    4  A    between atoms: N_9  and  C_10
REMARK    5  A    between atoms: N_13  and  S_14
REMARK    6  A    between atoms: S_14  and  C_17
REMARK    7  A    between atoms: C_19  and  C_24
REMARK    8  A    between atoms: C_22  and  C_23
REMARK                            x       y       z     vdW  Elec       q    Type
REMARK                         _______ _______ _______ _____ _____    ______ ____
ROOT
ATOM      1  C   UNL     1       4.280  -0.493  -0.092  0.00  0.00    +0.237 C 
ATOM      2  C   UNL     1       4.598  -1.325   1.130  0.00  0.00    +0.192 C 
ATOM      3  N   UNL     1       4.045  -2.490   1.298  0.00  0.00    -0.110 NA
ATOM      4  N   UNL     1       5.461  -0.843   2.039  0.00  0.00    -0.226 NA
ATOM      5  C   UNL     1       6.034   0.333   1.892  0.00  0.00    +0.089 A 
ATOM      6  C   UNL     1       6.941   0.810   2.872  0.00  0.00    +0.030 A 
ATOM      7  C   UNL     1       7.532   2.017   2.726  0.00  0.00    +0.002 A 
ATOM      8  C   UNL     1       7.291   2.852   1.623  0.00  0.00    +0.002 A 
ATOM      9  C   UNL     1       6.445   2.494   0.632  0.00  0.00    +0.027 A 
ATOM     10  C   UNL     1       5.761   1.195   0.715  0.00  0.00    +0.063 A 
ATOM     11  N   UNL     1       4.939   0.816  -0.222  0.00  0.00    -0.359 N 
ATOM     12  H   UNL     1       4.765   1.385  -0.988  0.00  0.00    +0.162 HD
ENDROOT
BRANCH   3  13
ATOM     13  S   UNL     1       4.403  -3.390   2.640  0.00  0.00    +0.101 S 
ATOM     14  O   UNL     1       5.774  -3.751   2.534  0.00  0.00    -0.146 OA
ATOM     15  O   UNL     1       3.887  -2.679   3.756  0.00  0.00    -0.146 OA
BRANCH  13  16
ATOM     16  C   UNL     1       3.479  -4.886   2.525  0.00  0.00    +0.116 A 
ATOM     17  C   UNL     1       4.136  -6.096   2.393  0.00  0.00    +0.032 A 
ATOM     18  C   UNL     1       3.411  -7.269   2.303  0.00  0.00    -0.049 A 
ATOM     19  C   UNL     1       2.030  -7.234   2.345  0.00  0.00    +0.004 A 
ATOM     20  C   UNL     1       1.373  -6.025   2.478  0.00  0.00    +0.005 A 
ATOM     21  C   UNL     1       2.099  -4.851   2.573  0.00  0.00    -0.024 A 
ATOM     22  C   UNL     1       1.383  -3.533   2.723  0.00  0.00    +0.046 C 
ATOM     23  C   UNL     1       4.127  -8.588   2.158  0.00  0.00    +0.044 C 
ENDBRANCH  13  16
ENDBRANCH   3  13
BRANCH   1  24
ATOM     24  N   UNL     1       2.832  -0.269  -0.115  0.00  0.00    -0.318 N 
ATOM     25  H   UNL     1       2.382   0.078   0.671  0.00  0.00    +0.148 HD
BRANCH  24  31
ATOM     26  C   UNL     1       0.713  -0.476  -1.251  0.00  0.00    -0.027 A 
ATOM     27  C   UNL     1      -0.008  -0.754  -2.396  0.00  0.00    +0.005 A 
ATOM     28  C   UNL     1       0.648  -1.118  -3.557  0.00  0.00    +0.000 A 
ATOM     29  C   UNL     1       2.029  -1.203  -3.577  0.00  0.00    +0.002 A 
ATOM     30  C   UNL     1       2.756  -0.926  -2.436  0.00  0.00    +0.023 A 
ATOM     31  C   UNL     1       2.099  -0.555  -1.269  0.00  0.00    +0.032 A 
BRANCH  26  33
ATOM     32  C   UNL     1      -0.061   1.446   0.112  0.00  0.00    +0.009 C 
ATOM     33  C   UNL     1      -0.004  -0.080   0.015  0.00  0.00    +0.033 C 
ENDBRANCH  26  33
ENDBRANCH  24  31
ENDBRANCH   1  24
TORSDOF 5
