REMARK  Name = ZINC21247801
REMARK  8 active torsions:
REMARK  status: ('A' for Active; 'I' for Inactive)
REMARK    1  A    between atoms: C_1  and  C_2
REMARK    2  A    between atoms: C_2  and  C_3
REMARK    3  A    between atoms: C_2  and  O_4
REMARK    4  A    between atoms: O_4  and  C_5
REMARK    5  A    between atoms: C_8  and  C_13
REMARK    6  A    between atoms: C_10  and  O_11
REMARK    7  A    between atoms: O_11  and  C_12
REMARK    8  A    between atoms: C_18  and  C_28
REMARK                            x       y       z     vdW  Elec       q    Type
REMARK                         _______ _______ _______ _____ _____    ______ ____
ROOT
ATOM      1  C   UNL     1      -1.088   1.270   1.166  0.00  0.00    +0.032 C 
ATOM      2  C   UNL     1      -2.564   0.900   0.991  0.00  0.00    +0.059 C 
ATOM      3  C   UNL     1      -3.123   1.566  -0.255  0.00  0.00    +0.017 C 
ATOM      4  C   UNL     1      -2.337   1.778  -1.325  0.00  0.00    +0.036 C 
ATOM      5  C   UNL     1      -2.763   2.421  -2.623  0.00  0.00    +0.136 C 
ATOM      6  N   UNL     1      -4.193   2.587  -2.771  0.00  0.00    -0.331 N 
ATOM      7  C   UNL     1      -4.910   3.432  -1.926  0.00  0.00    +0.049 A 
ATOM      8  C   UNL     1      -5.488   4.601  -2.393  0.00  0.00    +0.025 A 
ATOM      9  C   UNL     1      -6.093   5.466  -1.497  0.00  0.00    +0.002 A 
ATOM     10  C   UNL     1      -6.122   5.167  -0.147  0.00  0.00    +0.002 A 
ATOM     11  C   UNL     1      -5.564   3.989   0.320  0.00  0.00    +0.025 A 
ATOM     12  C   UNL     1      -4.974   3.115  -0.577  0.00  0.00    +0.052 A 
ATOM     13  N   UNL     1      -4.438   1.895  -0.184  0.00  0.00    -0.316 N 
ATOM     14  C   UNL     1      -0.974   1.399  -1.293  0.00  0.00    +0.163 C 
ATOM     15  O   UNL     1      -0.293   1.579  -2.283  0.00  0.00    -0.292 OA
ATOM     16  C   UNL     1      -0.341   0.784  -0.082  0.00  0.00    +0.088 C 
ATOM     17  H   UNL     1      -4.731   2.042  -3.561  0.00  0.00    +0.147 HD
ATOM     18  H   UNL     1      -5.166   1.170   0.208  0.00  0.00    +0.152 HD
ENDROOT
BRANCH   5  19
ATOM     19  C   UNL     1      -2.112   3.777  -2.719  0.00  0.00    -0.022 A 
ATOM     20  C   UNL     1      -1.192   4.026  -3.736  0.00  0.00    +0.006 A 
ATOM     21  C   UNL     1      -0.590   5.241  -3.854  0.00  0.00    +0.009 A 
ATOM     22  C   UNL     1      -0.891   6.259  -2.933  0.00  0.00    -0.018 A 
ATOM     23  C   UNL     1      -0.286   7.524  -3.019  0.00  0.00    +0.008 A 
ATOM     24  C   UNL     1      -0.601   8.485  -2.109  0.00  0.00    +0.001 A 
ATOM     25  C   UNL     1      -1.517   8.234  -1.089  0.00  0.00    +0.001 A 
ATOM     26  C   UNL     1      -2.123   7.021  -0.973  0.00  0.00    +0.008 A 
ATOM     27  C   UNL     1      -1.823   6.003  -1.895  0.00  0.00    -0.018 A 
ATOM     28  C   UNL     1      -2.428   4.738  -1.809  0.00  0.00    +0.014 A 
ENDBRANCH   5  19
BRANCH   1  32
ATOM     29  C   UNL     1       0.500  -0.649   4.642  0.00  0.00    +0.162 A 
ATOM     30  C   UNL     1      -0.054  -1.405   3.623  0.00  0.00    +0.050 A 
ATOM     31  C   UNL     1      -0.567  -0.782   2.500  0.00  0.00    +0.008 A 
ATOM     32  C   UNL     1      -0.528   0.596   2.392  0.00  0.00    -0.040 A 
ATOM     33  C   UNL     1       0.028   1.356   3.404  0.00  0.00    +0.053 A 
ATOM     34  C   UNL     1       0.539   0.738   4.534  0.00  0.00    +0.162 A 
BRANCH  34  35
ATOM     35  O   UNL     1       1.082   1.485   5.532  0.00  0.00    -0.491 OA
ATOM     36  C   UNL     1       1.087   2.903   5.352  0.00  0.00    +0.277 C 
ENDBRANCH  34  35
BRANCH  29  37
ATOM     37  O   UNL     1       1.006  -1.260   5.747  0.00  0.00    -0.486 OA
BRANCH  37  39
ATOM     38  C   UNL     1       2.145  -3.174   6.685  0.00  0.00    +0.051 C 
ATOM     39  C   UNL     1       1.047  -2.688   5.736  0.00  0.00    +0.167 C 
ATOM     40  C   UNL     1      -0.304  -3.241   6.194  0.00  0.00    +0.051 C 
ENDBRANCH  37  39
ENDBRANCH  29  37
ENDBRANCH   1  32
TORSDOF 5
