REMARK  Name = ZINC43527038
REMARK  8 active torsions:
REMARK  status: ('A' for Active; 'I' for Inactive)
REMARK    1  A    between atoms: N_9  and  C_11
REMARK    2  A    between atoms: C_11  and  C_12
REMARK    3  A    between atoms: C_21  and  C_23
REMARK    4  A    between atoms: C_23  and  N_24
REMARK    5  A    between atoms: N_24  and  C_25
REMARK    6  A    between atoms: C_25  and  N_27
REMARK    7  A    between atoms: N_27  and  C_28
REMARK    8  A    between atoms: C_31  and  N_34
REMARK                            x       y       z     vdW  Elec       q    Type
REMARK                         _______ _______ _______ _____ _____    ______ ____
ROOT
ATOM      1  C   UNL     1       5.283  -2.628   1.351  0.00  0.00    -0.011 C 
ATOM      2  C   UNL     1       4.960  -2.712   2.844  0.00  0.00    -0.073 C 
ATOM      3  N   UNL     1       5.926  -3.583   3.518  0.00  0.00    +0.383 N 
ATOM      4  C   UNL     1       5.859  -4.943   2.978  0.00  0.00    -0.078 C 
ATOM      5  C   UNL     1       6.212  -4.933   1.489  0.00  0.00    -0.015 C 
ATOM      6  C   UNL     1       6.519  -3.489   1.059  0.00  0.00    -0.012 C 
ATOM      7  C   UNL     1       7.683  -2.969   1.913  0.00  0.00    -0.010 C 
ATOM      8  C   UNL     1       7.282  -3.043   3.391  0.00  0.00    -0.051 C 
ATOM      9  H   UNL     1       5.689  -3.624   4.498  0.00  0.00    -0.081 HD
ENDROOT
BRANCH   1  10
ATOM     10  C   UNL     1       4.094  -3.147   0.539  0.00  0.00    +0.086 C 
BRANCH  10  19
ATOM     11  C   UNL     1      -0.223   1.613   0.447  0.00  0.00    +0.000 A 
ATOM     12  C   UNL     1       1.029   2.143   0.195  0.00  0.00    +0.000 A 
ATOM     13  C   UNL     1       2.122   1.306   0.100  0.00  0.00    +0.005 A 
ATOM     14  C   UNL     1       1.973  -0.065   0.258  0.00  0.00    -0.030 A 
ATOM     15  C   UNL     1       0.725  -0.591   0.512  0.00  0.00    -0.042 A 
ATOM     16  C   UNL     1      -0.374   0.250   0.605  0.00  0.00    +0.004 A 
ATOM     17  C   UNL     1       0.514  -2.071   0.702  0.00  0.00    +0.051 C 
ATOM     18  C   UNL     1       1.719  -2.843   0.164  0.00  0.00    +0.089 C 
ATOM     19  N   UNL     1       2.943  -2.255   0.732  0.00  0.00    -0.298 NA
ATOM     20  C   UNL     1       3.195  -0.937   0.140  0.00  0.00    +0.119 C 
ENDBRANCH  10  19
ENDBRANCH   1  10
BRANCH   8  21
ATOM     21  C   UNL     1       8.261  -3.951   4.139  0.00  0.00    +0.088 C 
BRANCH  21  22
ATOM     22  N   UNL     1       7.821  -4.106   5.527  0.00  0.00    -0.328 N 
ATOM     23  H   UNL     1       7.015  -3.661   5.833  0.00  0.00    +0.148 HD
BRANCH  22  24
ATOM     24  C   UNL     1       8.534  -4.869   6.380  0.00  0.00    +0.134 C 
ATOM     25  S   UNL     1       9.956  -5.655   5.840  0.00  0.00    -0.019 S 
BRANCH  24  26
ATOM     26  N   UNL     1       8.129  -5.012   7.657  0.00  0.00    -0.297 N 
ATOM     27  H   UNL     1       7.370  -4.504   7.985  0.00  0.00    +0.154 HD
BRANCH  26  28
ATOM     28  C   UNL     1       8.802  -5.893   8.510  0.00  0.00    +0.033 A 
ATOM     29  C   UNL     1       9.065  -5.524   9.823  0.00  0.00    +0.025 A 
ATOM     30  C   UNL     1       9.729  -6.394  10.665  0.00  0.00    +0.029 A 
ATOM     31  C   UNL     1      10.134  -7.637  10.199  0.00  0.00    +0.065 A 
ATOM     32  C   UNL     1       9.871  -8.007   8.887  0.00  0.00    +0.029 A 
ATOM     33  C   UNL     1       9.202  -7.140   8.046  0.00  0.00    +0.025 A 
BRANCH  31  34
ATOM     34  N   UNL     1      10.809  -8.521  11.054  0.00  0.00    -0.240 N 
ATOM     35  C   UNL     1      11.261  -9.753  10.730  0.00  0.00    +0.114 A 
ATOM     36  C   UNL     1      11.853 -10.277  11.829  0.00  0.00    +0.041 A 
ATOM     37  C   UNL     1      11.760  -9.335  12.858  0.00  0.00    +0.135 A 
ATOM     38  N   UNL     1      11.140  -8.280  12.394  0.00  0.00    -0.175 NA
ENDBRANCH  31  34
ENDBRANCH  26  28
ENDBRANCH  24  26
ENDBRANCH  22  24
ENDBRANCH  21  22
ENDBRANCH   8  21
TORSDOF 8
