REMARK  Name = ZINC50421173
REMARK  6 active torsions:
REMARK  status: ('A' for Active; 'I' for Inactive)
REMARK    1  A    between atoms: C_1  and  C_2
REMARK    2  A    between atoms: C_2  and  C_4
REMARK    3  A    between atoms: C_2  and  N_10
REMARK    4  A    between atoms: N_8  and  C_9
REMARK    5  A    between atoms: N_10  and  S_11
REMARK    6  A    between atoms: S_11  and  C_14
REMARK                            x       y       z     vdW  Elec       q    Type
REMARK                         _______ _______ _______ _____ _____    ______ ____
ROOT
ATOM      1  S   UNL     1       2.322  -0.861   1.097  0.00  0.00    +0.059 S 
ATOM      2  O   UNL     1       2.719  -1.271   2.398  0.00  0.00    -0.153 OA
ATOM      3  O   UNL     1       2.483  -1.690  -0.045  0.00  0.00    -0.153 OA
ENDROOT
BRANCH   1   4
ATOM      4  C   UNL     1       3.183   0.638   0.757  0.00  0.00    +0.106 A 
ATOM      5  C   UNL     1       3.404   1.029  -0.551  0.00  0.00    +0.030 A 
ATOM      6  C   UNL     1       4.078   2.200  -0.821  0.00  0.00    +0.025 A 
ATOM      7  C   UNL     1       4.543   3.002   0.224  0.00  0.00    +0.031 A 
ATOM      8  C   UNL     1       4.316   2.601   1.531  0.00  0.00    -0.023 A 
ATOM      9  C   UNL     1       3.636   1.429   1.796  0.00  0.00    +0.034 A 
ATOM     10  C   UNL     1       4.913   3.634   2.461  0.00  0.00    +0.055 C 
ATOM     11  C   UNL     1       5.519   4.692   1.524  0.00  0.00    +0.106 C 
ATOM     12  N   UNL     1       5.239   4.211   0.169  0.00  0.00    -0.343 N 
ATOM     13  H   UNL     1       5.499   4.666  -0.647  0.00  0.00    +0.146 HD
ENDBRANCH   1   4
BRANCH   1  14
ATOM     14  N   UNL     1       0.711  -0.489   1.189  0.00  0.00    -0.180 NA
ATOM     15  H   UNL     1       0.236  -0.593   2.029  0.00  0.00    +0.149 HD
BRANCH  14  17
ATOM     16  C   UNL     1      -0.019   1.526   0.010  0.00  0.00    +0.034 C 
ATOM     17  C   UNL     1       0.002  -0.004   0.002  0.00  0.00    +0.141 C 
BRANCH  17  18
ATOM     18  C   UNL     1      -1.412  -0.526   0.013  0.00  0.00    +0.151 A 
ATOM     19  N   UNL     1      -2.224  -0.538   1.034  0.00  0.00    -0.133 NA
ATOM     20  N   UNL     1      -3.349  -1.054   0.686  0.00  0.00    -0.138 NA
ATOM     21  C   UNL     1      -3.307  -1.393  -0.573  0.00  0.00    +0.224 A 
ATOM     22  N   UNL     1      -2.077  -1.063  -1.038  0.00  0.00    -0.319 N 
ATOM     23  C   UNL     1      -1.570  -1.252  -2.399  0.00  0.00    +0.151 C 
ENDBRANCH  17  18
ENDBRANCH  14  17
ENDBRANCH   1  14
TORSDOF 4
