REMARK  Name = ZINC29309873
REMARK  9 active torsions:
REMARK  status: ('A' for Active; 'I' for Inactive)
REMARK    1  A    between atoms: C_1  and  C_2
REMARK    2  A    between atoms: C_5  and  N_8
REMARK    3  A    between atoms: N_8  and  C_9
REMARK    4  A    between atoms: C_9  and  C_11
REMARK    5  A    between atoms: C_9  and  C_12
REMARK    6  A    between atoms: N_14  and  C_15
REMARK    7  A    between atoms: C_16  and  C_25
REMARK    8  A    between atoms: C_17  and  C_24
REMARK    9  A    between atoms: C_20  and  N_21
REMARK                            x       y       z     vdW  Elec       q    Type
REMARK                         _______ _______ _______ _____ _____    ______ ____
ROOT
ATOM      1  C   UNL     1      -4.095   1.344   0.052  0.00  0.00    +0.237 C 
ATOM      2  O   UNL     1      -4.709   1.550   1.078  0.00  0.00    -0.273 OA
ATOM      3  N   UNL     1      -2.747   1.342   0.062  0.00  0.00    -0.282 N 
ATOM      4  H   UNL     1      -2.191   1.066  -0.846  0.00  0.00    +0.155 HD
ENDROOT
BRANCH   3   5
ATOM      5  C   UNL     1      -2.056   1.693   1.227  0.00  0.00    +0.067 A 
ATOM      6  C   UNL     1      -2.285   0.999   2.408  0.00  0.00    -0.024 A 
ATOM      7  C   UNL     1      -1.596   1.343   3.554  0.00  0.00    -0.046 A 
ATOM      8  C   UNL     1      -0.683   2.382   3.529  0.00  0.00    +0.006 A 
ATOM      9  C   UNL     1      -0.458   3.079   2.356  0.00  0.00    +0.035 A 
ATOM     10  C   UNL     1      -1.143   2.739   1.206  0.00  0.00    +0.148 A 
ATOM     11  C   UNL     1      -1.839   0.586   4.834  0.00  0.00    +0.044 C 
ATOM     12  C   UNL     1      -3.279  -0.133   2.437  0.00  0.00    +0.046 C 
BRANCH  10  13
ATOM     13  N   UNL     1      -0.900   3.485  -0.049  0.00  0.00    +0.058 N 
ATOM     14  O   UNL     1      -0.025   4.332  -0.095  0.00  0.00    -0.126 OA
ATOM     15  O   UNL     1      -1.574   3.252  -1.036  0.00  0.00    -0.126 OA
ENDBRANCH  10  13
ENDBRANCH   3   5
BRANCH   1  16
ATOM     16  C   UNL     1      -4.840   1.089  -1.233  0.00  0.00    +0.154 C 
ATOM     17  C   UNL     1      -4.461   2.156  -2.262  0.00  0.00    +0.038 C 
BRANCH  16  18
ATOM     18  N   UNL     1      -6.282   1.143  -0.981  0.00  0.00    -0.333 N 
ATOM     19  H   UNL     1      -6.670   1.724  -0.132  0.00  0.00    +0.147 HD
BRANCH  18  24
ATOM     20  C   UNL     1      -9.861  -1.643  -4.384  0.00  0.00    +0.044 C 
ATOM     21  C   UNL     1      -8.910  -0.903  -3.479  0.00  0.00    -0.050 A 
ATOM     22  C   UNL     1      -9.400  -0.173  -2.412  0.00  0.00    +0.005 A 
ATOM     23  C   UNL     1      -8.531   0.506  -1.581  0.00  0.00    +0.023 A 
ATOM     24  C   UNL     1      -7.163   0.456  -1.819  0.00  0.00    +0.028 A 
ATOM     25  C   UNL     1      -6.675  -0.274  -2.895  0.00  0.00    +0.023 A 
ATOM     26  C   UNL     1      -7.549  -0.955  -3.719  0.00  0.00    +0.005 A 
ENDBRANCH  18  24
ENDBRANCH  16  18
ENDBRANCH   1  16
TORSDOF 5
