REMARK  Name = ZINC12612094
REMARK  10 active torsions:
REMARK  status: ('A' for Active; 'I' for Inactive)
REMARK    1  A    between atoms: C_1  and  C_2
REMARK    2  A    between atoms: C_2  and  O_3
REMARK    3  A    between atoms: O_3  and  C_4
REMARK    4  A    between atoms: C_4  and  C_5
REMARK    5  A    between atoms: C_5  and  C_6
REMARK    6  A    between atoms: C_6  and  N_7
REMARK    7  A    between atoms: C_8  and  C_34
REMARK    8  A    between atoms: C_15  and  C_28
REMARK    9  A    between atoms: N_20  and  C_21
REMARK   10  A    between atoms: C_21  and  C_22
REMARK                            x       y       z     vdW  Elec       q    Type
REMARK                         _______ _______ _______ _____ _____    ______ ____
ROOT
ATOM      1  N   UNL     1      -1.468   6.043   1.101  0.00  0.00    -0.275 N 
ATOM      2  C   UNL     1      -0.289   5.582   0.362  0.00  0.00    +0.193 C 
ATOM      3  N   UNL     1       0.926   6.016   1.063  0.00  0.00    -0.310 N 
ATOM      4  C   UNL     1       0.963   5.919   2.434  0.00  0.00    +0.104 C 
ATOM      5  C   UNL     1      -0.212   6.016   3.125  0.00  0.00    +0.075 C 
ATOM      6  C   UNL     1      -1.422   6.173   2.442  0.00  0.00    +0.249 C 
ATOM      7  O   UNL     1      -2.441   6.428   3.062  0.00  0.00    -0.270 OA
ATOM      8  C   UNL     1      -0.158   5.969   4.634  0.00  0.00    +0.141 C 
ATOM      9  N   UNL     1       1.173   5.795   5.243  0.00  0.00    -0.315 N 
ATOM     10  C   UNL     1       2.244   5.688   4.433  0.00  0.00    +0.139 C 
ATOM     11  S   UNL     1       3.789   5.470   5.137  0.00  0.00    -0.018 S 
ATOM     12  N   UNL     1       2.149   5.746   3.098  0.00  0.00    -0.268 N 
ATOM     13  H   UNL     1       1.686   6.364   0.570  0.00  0.00    +0.149 HD
ATOM     14  H   UNL     1       1.276   5.757   6.207  0.00  0.00    +0.149 HD
ENDROOT
BRANCH   8  15
ATOM     15  C   UNL     1      -1.034   4.834   5.097  0.00  0.00    -0.023 A 
ATOM     16  C   UNL     1      -0.565   3.534   5.050  0.00  0.00    +0.006 A 
ATOM     17  C   UNL     1      -1.367   2.494   5.479  0.00  0.00    +0.000 A 
ATOM     18  C   UNL     1      -2.643   2.751   5.945  0.00  0.00    +0.000 A 
ATOM     19  C   UNL     1      -3.114   4.050   5.987  0.00  0.00    +0.000 A 
ATOM     20  C   UNL     1      -2.310   5.091   5.563  0.00  0.00    +0.006 A 
ENDBRANCH   8  15
BRANCH   2  21
ATOM     21  C   UNL     1      -0.307   4.078   0.273  0.00  0.00    -0.009 A 
ATOM     22  C   UNL     1      -0.412   3.459  -0.959  0.00  0.00    +0.007 A 
ATOM     23  C   UNL     1      -0.429   2.080  -1.040  0.00  0.00    +0.000 A 
ATOM     24  C   UNL     1      -0.341   1.318   0.110  0.00  0.00    +0.000 A 
ATOM     25  C   UNL     1      -0.241   1.936   1.342  0.00  0.00    +0.000 A 
ATOM     26  C   UNL     1      -0.219   3.316   1.423  0.00  0.00    +0.007 A 
ENDBRANCH   2  21
BRANCH   1  27
ATOM     27  C   UNL     1      -2.701   6.363   0.379  0.00  0.00    +0.112 C 
BRANCH  27  28
ATOM     28  C   UNL     1      -3.627   5.145   0.386  0.00  0.00    +0.047 C 
BRANCH  28  29
ATOM     29  C   UNL     1      -4.861   5.438  -0.470  0.00  0.00    +0.161 C 
BRANCH  29  30
ATOM     30  O   UNL     1      -5.725   4.300  -0.464  0.00  0.00    -0.380 OA
BRANCH  30  32
ATOM     31  C   UNL     1      -7.760   3.196  -1.160  0.00  0.00    +0.034 C 
ATOM     32  C   UNL     1      -6.915   4.469  -1.238  0.00  0.00    +0.156 C 
ENDBRANCH  30  32
ENDBRANCH  29  30
ENDBRANCH  28  29
ENDBRANCH  27  28
ENDBRANCH   1  27
BRANCH  12  33
ATOM     33  C   UNL     1       3.375   5.617   2.307  0.00  0.00    +0.145 C 
BRANCH  33  34
ATOM     34  C   UNL     1       3.906   7.009   1.959  0.00  0.00    +0.136 C 
ATOM     35  C   UNL     1       5.149   6.884   1.051  0.00  0.00    +0.035 C 
ATOM     36  C   UNL     1       6.070   8.009   1.597  0.00  0.00    +0.031 C 
ATOM     37  C   UNL     1       5.716   7.974   3.105  0.00  0.00    +0.160 C 
ATOM     38  O   UNL     1       4.309   7.689   3.154  0.00  0.00    -0.375 OA
ENDBRANCH  33  34
ENDBRANCH  12  33
TORSDOF 9
