REMARK  Name = ZINC62993072
REMARK  14 active torsions:
REMARK  status: ('A' for Active; 'I' for Inactive)
REMARK    1  A    between atoms: C_1  and  C_2
REMARK    2  A    between atoms: C_2  and  N_3
REMARK    3  A    between atoms: N_3  and  C_4
REMARK    4  A    between atoms: N_3  and  C_6
REMARK    5  A    between atoms: C_4  and  C_5
REMARK    6  A    between atoms: C_9  and  C_12
REMARK    7  A    between atoms: C_17  and  C_39
REMARK    8  A    between atoms: N_24  and  C_27
REMARK    9  A    between atoms: C_27  and  C_28
REMARK   10  A    between atoms: C_28  and  C_29
REMARK   11  A    between atoms: C_32  and  O_37
REMARK   12  A    between atoms: C_33  and  O_35
REMARK   13  A    between atoms: O_35  and  C_36
REMARK   14  A    between atoms: O_37  and  C_38
REMARK                            x       y       z     vdW  Elec       q    Type
REMARK                         _______ _______ _______ _____ _____    ______ ____
ROOT
ATOM      1  C   UNL     1       1.440  -6.079   0.548  0.00  0.00    +0.058 C 
ATOM      2  C   UNL     1       2.693  -6.592   0.627  0.00  0.00    +0.176 C 
ATOM      3  C   UNL     1       3.915  -5.854   0.986  0.00  0.00    +0.232 C 
ATOM      4  O   UNL     1       4.017  -4.673   1.270  0.00  0.00    -0.283 OA
ATOM      5  C   UNL     1       4.987  -6.864   0.926  0.00  0.00    +0.071 A 
ATOM      6  C   UNL     1       6.363  -6.811   1.154  0.00  0.00    -0.033 A 
ATOM      7  C   UNL     1       7.118  -7.940   1.016  0.00  0.00    +0.050 A 
ATOM      8  C   UNL     1       6.521  -9.146   0.649  0.00  0.00    +0.131 A 
ATOM      9  C   UNL     1       5.158  -9.212   0.423  0.00  0.00    +0.051 A 
ATOM     10  C   UNL     1       4.374  -8.071   0.557  0.00  0.00    +0.148 A 
ATOM     11  O   UNL     1       3.046  -7.878   0.397  0.00  0.00    -0.451 OA
ATOM     12  C   UNL     1       4.500 -10.512   0.034  0.00  0.00    +0.130 C 
ATOM     13  N   UNL     1       5.519 -11.456  -0.445  0.00  0.00    -0.266 NA
ATOM     14  C   UNL     1       6.640 -11.519   0.508  0.00  0.00    +0.318 C 
ATOM     15  O   UNL     1       7.301 -10.252   0.517  0.00  0.00    -0.476 OA
ATOM     16  C   UNL     1       7.013  -5.511   1.550  0.00  0.00    +0.045 C 
ENDROOT
BRANCH   1  20
ATOM     17  C   UNL     1       0.843  -1.892   0.853  0.00  0.00    +0.013 A 
ATOM     18  C   UNL     1      -0.048  -2.760   1.460  0.00  0.00    +0.022 A 
ATOM     19  C   UNL     1       0.139  -4.123   1.365  0.00  0.00    +0.010 A 
ATOM     20  C   UNL     1       1.233  -4.627   0.654  0.00  0.00    -0.021 A 
ATOM     21  C   UNL     1       2.129  -3.742   0.043  0.00  0.00    +0.010 A 
ATOM     22  C   UNL     1       1.925  -2.383   0.143  0.00  0.00    +0.022 A 
BRANCH  17  23
ATOM     23  N   UNL     1       0.646  -0.511   0.954  0.00  0.00    -0.394 NA
ATOM     24  H   UNL     1       1.379  -0.030   0.455  0.00  0.00    +0.126 HD
BRANCH  23  26
ATOM     25  C   UNL     1      -0.635  -0.436  -1.132  0.00  0.00    +0.022 C 
ATOM     26  C   UNL     1      -0.656  -0.159   0.373  0.00  0.00    +0.081 C 
ENDBRANCH  23  26
BRANCH  23  27
ATOM     27  C   UNL     1       0.674  -0.115   2.369  0.00  0.00    +0.081 C 
ATOM     28  C   UNL     1       2.074  -0.354   2.937  0.00  0.00    +0.022 C 
ENDBRANCH  23  27
ENDBRANCH  17  23
ENDBRANCH   1  20
BRANCH  13  29
ATOM     29  C   UNL     1       4.941 -12.788  -0.666  0.00  0.00    +0.092 C 
BRANCH  29  30
ATOM     30  C   UNL     1       5.957 -13.671  -1.393  0.00  0.00    +0.050 C 
BRANCH  30  31
ATOM     31  C   UNL     1       5.363 -15.038  -1.620  0.00  0.00    -0.042 A 
ATOM     32  C   UNL     1       5.524 -16.026  -0.667  0.00  0.00    +0.007 A 
ATOM     33  C   UNL     1       4.982 -17.281  -0.870  0.00  0.00    +0.049 A 
ATOM     34  C   UNL     1       4.274 -17.551  -2.031  0.00  0.00    +0.161 A 
ATOM     35  C   UNL     1       4.112 -16.556  -2.990  0.00  0.00    +0.162 A 
ATOM     36  C   UNL     1       4.654 -15.298  -2.778  0.00  0.00    +0.053 A 
BRANCH  35  37
ATOM     37  O   UNL     1       3.419 -16.815  -4.130  0.00  0.00    -0.491 OA
ATOM     38  C   UNL     1       3.292 -15.746  -5.070  0.00  0.00    +0.277 C 
ENDBRANCH  35  37
BRANCH  34  39
ATOM     39  O   UNL     1       3.740 -18.785  -2.232  0.00  0.00    -0.491 OA
ATOM     40  C   UNL     1       3.947 -19.757  -1.205  0.00  0.00    +0.277 C 
ENDBRANCH  34  39
ENDBRANCH  30  31
ENDBRANCH  29  30
ENDBRANCH  13  29
TORSDOF 9
