REMARK  Name = ZINC33154782
REMARK  13 active torsions:
REMARK  status: ('A' for Active; 'I' for Inactive)
REMARK    1  A    between atoms: C_1  and  C_2
REMARK    2  A    between atoms: C_2  and  C_34
REMARK    3  A    between atoms: N_5  and  N_6
REMARK    4  A    between atoms: C_9  and  C_21
REMARK    5  A    between atoms: C_9  and  C_22
REMARK    6  A    between atoms: C_14  and  O_19
REMARK    7  A    between atoms: C_15  and  O_17
REMARK    8  A    between atoms: O_17  and  C_18
REMARK    9  A    between atoms: O_19  and  C_20
REMARK   10  A    between atoms: C_26  and  O_31
REMARK   11  A    between atoms: C_27  and  O_29
REMARK   12  A    between atoms: O_29  and  C_30
REMARK   13  A    between atoms: O_31  and  C_32
REMARK                            x       y       z     vdW  Elec       q    Type
REMARK                         _______ _______ _______ _____ _____    ______ ____
ROOT
ATOM      1  C   UNL     1       0.394   1.136   0.513  0.00  0.00    +0.031 C 
ATOM      2  C   UNL     1       0.238  -0.346   0.168  0.00  0.00    +0.032 C 
ATOM      3  N   UNL     1       0.764  -0.595  -1.186  0.00  0.00    -0.324 N 
ATOM      4  C   UNL     1       2.116  -0.302  -1.384  0.00  0.00    +0.121 C 
ATOM      5  N   UNL     1       2.553   0.226  -2.504  0.00  0.00    -0.262 N 
ATOM      6  C   UNL     1       3.031  -0.619  -0.264  0.00  0.00    +0.021 A 
ATOM      7  C   UNL     1       2.507  -1.033   0.962  0.00  0.00    -0.031 A 
ATOM      8  C   UNL     1       3.367  -1.316   2.007  0.00  0.00    +0.053 A 
ATOM      9  C   UNL     1       4.738  -1.197   1.837  0.00  0.00    +0.162 A 
ATOM     10  C   UNL     1       5.263  -0.790   0.612  0.00  0.00    +0.162 A 
ATOM     11  C   UNL     1       4.411  -0.501  -0.438  0.00  0.00    +0.061 A 
ATOM     12  C   UNL     1       1.025  -1.190   1.169  0.00  0.00    +0.061 C 
ATOM     13  C   UNL     1      -1.242  -0.731   0.224  0.00  0.00    +0.031 C 
ATOM     14  H   UNL     1       0.204  -0.943  -1.898  0.00  0.00    +0.148 HD
ATOM     15  H   UNL     1       1.970   0.271  -3.279  0.00  0.00    +0.190 HD
ENDROOT
BRANCH   5  16
ATOM     16  N   UNL     1       3.859   0.726  -2.582  0.00  0.00    -0.157 NA
ATOM     17  C   UNL     1       4.339   1.135  -3.733  0.00  0.00    +0.147 C 
ATOM     18  N   UNL     1       5.379   2.067  -3.809  0.00  0.00    -0.322 N 
ATOM     19  C   UNL     1       5.285   3.054  -4.899  0.00  0.00    +0.032 C 
ATOM     20  C   UNL     1       5.259   2.315  -6.236  0.00  0.00    +0.061 C 
ATOM     21  C   UNL     1       4.245   1.202  -6.219  0.00  0.00    -0.031 A 
ATOM     22  C   UNL     1       3.812   0.629  -5.021  0.00  0.00    +0.023 A 
ATOM     23  C   UNL     1       2.883  -0.413  -5.031  0.00  0.00    +0.061 A 
ATOM     24  C   UNL     1       2.387  -0.879  -6.235  0.00  0.00    +0.162 A 
ATOM     25  C   UNL     1       2.819  -0.306  -7.430  0.00  0.00    +0.162 A 
ATOM     26  C   UNL     1       3.737   0.735  -7.417  0.00  0.00    +0.053 A 
ATOM     27  C   UNL     1       6.499   3.985  -4.853  0.00  0.00    +0.031 C 
ATOM     28  C   UNL     1       4.003   3.872  -4.741  0.00  0.00    +0.031 C 
ATOM     29  H   UNL     1       6.117   2.065  -3.181  0.00  0.00    +0.148 HD
BRANCH  25  30
ATOM     30  O   UNL     1       2.330  -0.761  -8.613  0.00  0.00    -0.491 OA
ATOM     31  C   UNL     1       2.813  -0.130  -9.801  0.00  0.00    +0.277 C 
ENDBRANCH  25  30
BRANCH  24  32
ATOM     32  O   UNL     1       1.482  -1.894  -6.253  0.00  0.00    -0.491 OA
ATOM     33  C   UNL     1       1.087  -2.433  -4.990  0.00  0.00    +0.277 C 
ENDBRANCH  24  32
ENDBRANCH   5  16
BRANCH  10  34
ATOM     34  O   UNL     1       6.609  -0.679   0.449  0.00  0.00    -0.491 OA
ATOM     35  C   UNL     1       7.074  -0.257  -0.834  0.00  0.00    +0.277 C 
ENDBRANCH  10  34
BRANCH   9  36
ATOM     36  O   UNL     1       5.574  -1.478   2.871  0.00  0.00    -0.491 OA
ATOM     37  C   UNL     1       4.971  -1.889   4.100  0.00  0.00    +0.277 C 
ENDBRANCH   9  36
TORSDOF 5
