REMARK  Name = ZINC62038957
REMARK  6 active torsions:
REMARK  status: ('A' for Active; 'I' for Inactive)
REMARK    1  A    between atoms: C_3  and  O_29
REMARK    2  A    between atoms: C_4  and  N_10
REMARK    3  A    between atoms: C_6  and  N_7
REMARK    4  A    between atoms: C_11  and  C_13
REMARK    5  A    between atoms: C_13  and  S_14
REMARK    6  A    between atoms: S_14  and  C_15
REMARK                            x       y       z     vdW  Elec       q    Type
REMARK                         _______ _______ _______ _____ _____    ______ ____
ROOT
ATOM      1  C   UNL     1       4.957  -2.734   0.154  0.00  0.00    +0.173 C 
ENDROOT
BRANCH   1   3
ATOM      2  N   UNL     1       3.622  -0.661  -0.037  0.00  0.00    -0.282 N 
ATOM      3  C   UNL     1       3.642  -2.005   0.058  0.00  0.00    +0.228 C 
ATOM      4  O   UNL     1       2.601  -2.628   0.065  0.00  0.00    -0.275 OA
ATOM      5  H   UNL     1       4.454  -0.167  -0.107  0.00  0.00    +0.155 HD
BRANCH   2   9
ATOM      6  C   UNL     1      -0.018   1.376  -0.025  0.00  0.00    +0.036 A 
ATOM      7  C   UNL     1       1.091   1.948   0.571  0.00  0.00    +0.049 A 
ATOM      8  C   UNL     1       2.302   1.276   0.570  0.00  0.00    +0.138 A 
ATOM      9  C   UNL     1       2.399   0.023  -0.032  0.00  0.00    +0.078 A 
ATOM     10  C   UNL     1       1.283  -0.544  -0.628  0.00  0.00    +0.059 A 
ATOM     11  C   UNL     1       0.078   0.134  -0.623  0.00  0.00    +0.128 A 
BRANCH  11  12
ATOM     12  N   UNL     1      -1.113  -0.473  -1.260  0.00  0.00    +0.056 N 
ATOM     13  O   UNL     1      -2.167   0.118  -1.256  0.00  0.00    -0.126 OA
ATOM     14  O   UNL     1      -1.031  -1.560  -1.783  0.00  0.00    -0.126 OA
ENDBRANCH  11  12
BRANCH   8  15
ATOM     15  O   UNL     1       3.393   1.837   1.156  0.00  0.00    -0.505 OA
ATOM     16  H   UNL     1       3.496   1.615   2.091  0.00  0.00    +0.292 HD
ENDBRANCH   8  15
ENDBRANCH   2   9
ENDBRANCH   1   3
BRANCH   1  17
ATOM     17  S   UNL     1       4.653  -4.519   0.268  0.00  0.00    -0.078 S 
BRANCH  17  18
ATOM     18  C   UNL     1       6.265  -5.221   0.373  0.00  0.00    +0.171 A 
ATOM     19  N   UNL     1       7.315  -4.427   0.360  0.00  0.00    -0.185 NA
ATOM     20  C   UNL     1       8.566  -4.891   0.435  0.00  0.00    +0.282 A 
ATOM     21  O   UNL     1       9.513  -4.120   0.420  0.00  0.00    -0.265 OA
ATOM     22  C   UNL     1       8.791  -6.353   0.538  0.00  0.00    +0.075 A 
ATOM     23  C   UNL     1      10.059  -7.078   0.630  0.00  0.00    -0.023 A 
ATOM     24  C   UNL     1       9.990  -8.422   0.715  0.00  0.00    -0.004 A 
ATOM     25  S   UNL     1       8.256  -8.792   0.678  0.00  0.00    -0.075 S 
ATOM     26  C   UNL     1       7.637  -7.136   0.548  0.00  0.00    +0.092 A 
ATOM     27  N   UNL     1       6.399  -6.574   0.472  0.00  0.00    -0.328 N 
ATOM     28  C   UNL     1      11.131  -9.386   0.817  0.00  0.00    +0.043 C 
ATOM     29  C   UNL     1      12.423  -8.649   0.437  0.00  0.00    +0.005 C 
ATOM     30  C   UNL     1      12.468  -7.316   1.192  0.00  0.00    +0.005 C 
ATOM     31  C   UNL     1      11.409  -6.366   0.632  0.00  0.00    +0.037 C 
ATOM     32  H   UNL     1       5.610  -7.138   0.484  0.00  0.00    +0.168 HD
ENDBRANCH  17  18
ENDBRANCH   1  17
TORSDOF 6
