REMARK  Name = ZINC06441921
REMARK  8 active torsions:
REMARK  status: ('A' for Active; 'I' for Inactive)
REMARK    1  A    between atoms: C_1  and  C_2
REMARK    2  A    between atoms: C_7  and  C_15
REMARK    3  A    between atoms: C_13  and  C_14
REMARK    4  A    between atoms: C_15  and  C_17
REMARK    5  A    between atoms: C_15  and  N_69
REMARK    6  A    between atoms: N_21  and  C_22
REMARK    7  A    between atoms: C_22  and  C_23
REMARK    8  A    between atoms: N_31  and  C_34
REMARK                            x       y       z     vdW  Elec       q    Type
REMARK                         _______ _______ _______ _____ _____    ______ ____
ROOT
ATOM      1  C   UNL     1       4.339   2.720  -1.886  0.00  0.00    +0.039 C 
ENDROOT
BRANCH   1   8
ATOM      2  C   UNL     1      -0.487   8.139  -5.197  0.00  0.00    +0.044 C 
ATOM      3  C   UNL     1       0.273   6.957  -4.652  0.00  0.00    -0.046 A 
ATOM      4  C   UNL     1      -0.216   5.673  -4.855  0.00  0.00    +0.004 A 
ATOM      5  C   UNL     1       0.457   4.589  -4.370  0.00  0.00    +0.010 A 
ATOM      6  C   UNL     1       1.649   4.772  -3.660  0.00  0.00    -0.001 A 
ATOM      7  C   UNL     1       2.399   3.631  -3.131  0.00  0.00    +0.017 A 
ATOM      8  C   UNL     1       3.545   3.871  -2.448  0.00  0.00    +0.011 A 
ATOM      9  C   UNL     1       4.001   5.194  -2.266  0.00  0.00    +0.251 A 
ATOM     10  O   UNL     1       5.037   5.387  -1.652  0.00  0.00    -0.268 OA
ATOM     11  N   UNL     1       3.322   6.248  -2.752  0.00  0.00    -0.322 N 
ATOM     12  H   UNL     1       3.664   7.144  -2.609  0.00  0.00    +0.169 HD
ATOM     13  C   UNL     1       2.147   6.072  -3.451  0.00  0.00    +0.052 A 
ATOM     14  C   UNL     1       1.444   7.162  -3.955  0.00  0.00    -0.024 A 
ATOM     15  C   UNL     1       1.962   8.561  -3.740  0.00  0.00    +0.046 C 
ENDBRANCH   1   8
BRANCH   1  21
ATOM     16  C   UNL     1       5.661   2.706  -3.915  0.00  0.00    -0.058 C 
ATOM     17  C   UNL     1       7.087   2.810  -4.460  0.00  0.00    +0.086 C 
ATOM     18  N   UNL     1       7.894   1.702  -3.928  0.00  0.00    -0.333 N 
ATOM     19  C   UNL     1       7.929   1.737  -2.460  0.00  0.00    +0.086 C 
ATOM     20  C   UNL     1       6.503   1.633  -1.915  0.00  0.00    -0.058 C 
ATOM     21  N   UNL     1       5.709   2.765  -2.439  0.00  0.00    +0.391 N 
ATOM     22  H   UNL     1       6.155   3.645  -2.154  0.00  0.00    -0.080 HD
BRANCH  18  23
ATOM     23  C   UNL     1       9.185   1.722  -4.461  0.00  0.00    +0.030 A 
ATOM     24  C   UNL     1      10.286   1.776  -3.616  0.00  0.00    +0.023 A 
ATOM     25  C   UNL     1      11.561   1.792  -4.146  0.00  0.00    +0.002 A 
ATOM     26  C   UNL     1      11.742   1.764  -5.516  0.00  0.00    +0.000 A 
ATOM     27  C   UNL     1      10.649   1.716  -6.361  0.00  0.00    +0.002 A 
ATOM     28  C   UNL     1       9.371   1.695  -5.837  0.00  0.00    +0.023 A 
ENDBRANCH  18  23
ENDBRANCH   1  21
BRANCH   1  29
ATOM     29  C   UNL     1       3.666   1.421  -2.249  0.00  0.00    +0.143 A 
ATOM     30  N   UNL     1       3.582   0.891  -3.445  0.00  0.00    -0.115 NA
ATOM     31  N   UNL     1       2.934  -0.218  -3.344  0.00  0.00    -0.023 NA
ATOM     32  N   UNL     1       2.606  -0.411  -2.115  0.00  0.00    -0.044 NA
ATOM     33  N   UNL     1       3.035   0.580  -1.409  0.00  0.00    -0.226 N 
BRANCH  33  34
ATOM     34  C   UNL     1       2.871   0.755   0.036  0.00  0.00    +0.182 C 
BRANCH  34  35
ATOM     35  C   UNL     1       1.530   1.383   0.318  0.00  0.00    -0.026 A 
ATOM     36  C   UNL     1       0.402   0.590   0.413  0.00  0.00    +0.005 A 
ATOM     37  C   UNL     1      -0.829   1.167   0.666  0.00  0.00    +0.000 A 
ATOM     38  C   UNL     1      -0.929   2.536   0.833  0.00  0.00    +0.000 A 
ATOM     39  C   UNL     1       0.200   3.328   0.738  0.00  0.00    +0.000 A 
ATOM     40  C   UNL     1       1.429   2.752   0.481  0.00  0.00    +0.005 A 
ENDBRANCH  34  35
ENDBRANCH  33  34
ENDBRANCH   1  29
TORSDOF 6
