REMARK  Name = ZINC00901802
REMARK  10 active torsions:
REMARK  status: ('A' for Active; 'I' for Inactive)
REMARK    1  A    between atoms: C_1  and  C_2
REMARK    2  A    between atoms: C_5  and  C_7
REMARK    3  A    between atoms: C_7  and  C_9
REMARK    4  A    between atoms: C_7  and  N_17
REMARK    5  A    between atoms: N_11  and  C_12
REMARK    6  A    between atoms: N_17  and  C_18
REMARK    7  A    between atoms: C_21  and  S_24
REMARK    8  A    between atoms: S_24  and  N_27
REMARK    9  A    between atoms: C_32  and  C_34
REMARK   10  A    between atoms: C_34  and  N_35
REMARK                            x       y       z     vdW  Elec       q    Type
REMARK                         _______ _______ _______ _____ _____    ______ ____
ROOT
ATOM      1  N   UNL     1      -5.532   3.463  -1.589  0.00  0.00    -0.251 N 
ATOM      2  C   UNL     1      -4.227   3.790  -1.508  0.00  0.00    +0.242 C 
ATOM      3  O   UNL     1      -3.550   3.837  -2.513  0.00  0.00    -0.273 OA
ENDROOT
BRANCH   1   4
ATOM      4  C   UNL     1      -6.136   3.301  -2.841  0.00  0.00    +0.038 A 
ATOM      5  C   UNL     1      -7.491   3.012  -2.928  0.00  0.00    +0.025 A 
ATOM      6  C   UNL     1      -8.085   2.858  -4.165  0.00  0.00    +0.030 A 
ATOM      7  C   UNL     1      -7.329   2.981  -5.316  0.00  0.00    +0.106 A 
ATOM      8  C   UNL     1      -5.978   3.262  -5.233  0.00  0.00    +0.030 A 
ATOM      9  C   UNL     1      -5.379   3.422  -3.999  0.00  0.00    +0.025 A 
BRANCH   7  10
ATOM     10  S   UNL     1      -8.089   2.777  -6.893  0.00  0.00    +0.061 S 
ATOM     11  O   UNL     1      -9.471   3.060  -6.717  0.00  0.00    -0.153 OA
ATOM     12  O   UNL     1      -7.281   3.479  -7.827  0.00  0.00    -0.153 OA
BRANCH  10  13
ATOM     13  N   UNL     1      -7.981   1.172  -7.285  0.00  0.00    -0.177 NA
ATOM     14  C   UNL     1      -6.878   0.543  -8.026  0.00  0.00    +0.109 C 
ATOM     15  C   UNL     1      -7.220  -0.954  -8.175  0.00  0.00    +0.018 C 
ATOM     16  C   UNL     1      -8.763  -0.973  -8.013  0.00  0.00    +0.018 C 
ATOM     17  C   UNL     1      -8.978   0.137  -6.955  0.00  0.00    +0.109 C 
ENDBRANCH  10  13
ENDBRANCH   7  10
ENDBRANCH   1   4
BRANCH   1  18
ATOM     18  C   UNL     1      -6.319   3.278  -0.367  0.00  0.00    +0.233 C 
BRANCH  18  23
ATOM     19  C   UNL     1      -8.453  -1.055  -1.820  0.00  0.00    +0.086 C 
ATOM     20  C   UNL     1      -7.789  -0.012  -0.959  0.00  0.00    +0.102 A 
ATOM     21  C   UNL     1      -7.463  -0.154   0.338  0.00  0.00    +0.045 A 
ATOM     22  C   UNL     1      -6.860   1.059   0.744  0.00  0.00    +0.047 A 
ATOM     23  C   UNL     1      -6.861   1.872  -0.327  0.00  0.00    +0.135 A 
ATOM     24  O   UNL     1      -7.422   1.217  -1.357  0.00  0.00    -0.462 OA
ENDBRANCH  18  23
BRANCH  18  25
ATOM     25  C   UNL     1      -7.463   4.258  -0.353  0.00  0.00    +0.242 C 
ATOM     26  O   UNL     1      -7.833   4.773  -1.386  0.00  0.00    -0.273 OA
ATOM     27  N   UNL     1      -8.074   4.563   0.809  0.00  0.00    -0.311 N 
ATOM     28  H   UNL     1      -7.778   4.152   1.636  0.00  0.00    +0.149 HD
BRANCH  27  29
ATOM     29  C   UNL     1      -9.186   5.516   0.823  0.00  0.00    +0.073 C 
ATOM     30  C   UNL     1      -8.649   6.954   0.980  0.00  0.00    +0.022 C 
ATOM     31  C   UNL     1      -9.691   7.652   1.888  0.00  0.00    +0.002 C 
ATOM     32  C   UNL     1     -10.074   6.536   2.891  0.00  0.00    +0.002 C 
ATOM     33  C   UNL     1     -10.093   5.251   2.038  0.00  0.00    +0.022 C 
ENDBRANCH  27  29
ENDBRANCH  18  25
ENDBRANCH   1  18
BRANCH   2  34
ATOM     34  C   UNL     1      -3.609   4.096  -0.167  0.00  0.00    +0.242 C 
BRANCH  34  35
ATOM     35  N   UNL     1      -2.192   4.420  -0.346  0.00  0.00    -0.235 N 
ATOM     36  C   UNL     1      -1.137   3.538  -0.322  0.00  0.00    +0.090 A 
ATOM     37  C   UNL     1      -1.031   2.162  -0.147  0.00  0.00    +0.029 A 
ATOM     38  C   UNL     1       0.198   1.567  -0.174  0.00  0.00    +0.002 A 
ATOM     39  C   UNL     1       1.345   2.321  -0.387  0.00  0.00    +0.002 A 
ATOM     40  C   UNL     1       1.267   3.671  -0.567  0.00  0.00    +0.032 A 
ATOM     41  C   UNL     1       0.019   4.308  -0.538  0.00  0.00    +0.113 A 
ATOM     42  N   UNL     1      -0.365   5.592  -0.680  0.00  0.00    -0.129 NA
ATOM     43  N   UNL     1      -1.643   5.690  -0.574  0.00  0.00    -0.064 NA
ENDBRANCH  34  35
ENDBRANCH   2  34
TORSDOF 9
