REMARK  Name = ZINC40659343
REMARK  8 active torsions:
REMARK  status: ('A' for Active; 'I' for Inactive)
REMARK    1  A    between atoms: C_1  and  C_2
REMARK    2  A    between atoms: C_5  and  S_8
REMARK    3  A    between atoms: S_8  and  N_11
REMARK    4  A    between atoms: N_11  and  N_12
REMARK    5  A    between atoms: C_14  and  N_31
REMARK    6  A    between atoms: C_15  and  N_19
REMARK    7  A    between atoms: N_19  and  C_20
REMARK    8  A    between atoms: C_28  and  C_30
REMARK                            x       y       z     vdW  Elec       q    Type
REMARK                         _______ _______ _______ _____ _____    ______ ____
ROOT
ATOM      1  N   UNL     1       3.155  -4.586   0.541  0.00  0.00    -0.244 N 
ATOM      2  C   UNL     1       3.663  -5.561   1.385  0.00  0.00    +0.169 A 
ATOM      3  C   UNL     1       4.376  -5.205   2.527  0.00  0.00    +0.207 A 
ATOM      4  C   UNL     1       4.864  -6.221   3.342  0.00  0.00    +0.159 A 
ATOM      5  N   UNL     1       4.635  -7.489   3.002  0.00  0.00    -0.218 NA
ATOM      6  C   UNL     1       3.956  -7.785   1.913  0.00  0.00    +0.225 A 
ATOM      7  N   UNL     1       3.472  -6.851   1.119  0.00  0.00    -0.217 NA
ATOM      8  H   UNL     1       3.299  -3.648   0.742  0.00  0.00    +0.169 HD
ENDROOT
BRANCH   3   9
ATOM      9  N   UNL     1       4.608  -3.783   2.865  0.00  0.00    +0.063 N 
ATOM     10  O   UNL     1       3.812  -3.188   3.554  0.00  0.00    -0.126 OA
ATOM     11  O   UNL     1       5.593  -3.216   2.452  0.00  0.00    -0.126 OA
ENDBRANCH   3   9
BRANCH   1  12
ATOM     12  N   UNL     1       2.435  -4.955  -0.602  0.00  0.00    -0.109 NA
ATOM     13  H   UNL     1       2.830  -5.559  -1.251  0.00  0.00    +0.172 HD
BRANCH  12  14
ATOM     14  S   UNL     1       0.909  -4.360  -0.847  0.00  0.00    +0.074 S 
ATOM     15  O   UNL     1       0.163  -4.662   0.324  0.00  0.00    -0.152 OA
ATOM     16  O   UNL     1       0.507  -4.793  -2.139  0.00  0.00    -0.152 OA
BRANCH  14  21
ATOM     17  C   UNL     1       1.354   1.651  -1.107  0.00  0.00    +0.044 C 
ATOM     18  C   UNL     1       1.243   0.150  -1.042  0.00  0.00    -0.050 A 
ATOM     19  C   UNL     1       1.358  -0.602  -2.196  0.00  0.00    +0.005 A 
ATOM     20  C   UNL     1       1.256  -1.979  -2.136  0.00  0.00    +0.029 A 
ATOM     21  C   UNL     1       1.040  -2.605  -0.923  0.00  0.00    +0.107 A 
ATOM     22  C   UNL     1       0.925  -1.853   0.231  0.00  0.00    +0.029 A 
ATOM     23  C   UNL     1       1.031  -0.476   0.173  0.00  0.00    +0.005 A 
ENDBRANCH  14  21
ENDBRANCH  12  14
ENDBRANCH   1  12
BRANCH   4  24
ATOM     24  N   UNL     1       5.581  -5.919   4.491  0.00  0.00    -0.297 N 
ATOM     25  H   UNL     1       5.666  -4.998   4.781  0.00  0.00    +0.154 HD
BRANCH  24  26
ATOM     26  C   UNL     1       6.180  -6.939   5.227  0.00  0.00    +0.042 A 
ATOM     27  C   UNL     1       6.560  -8.114   4.610  0.00  0.00    +0.024 A 
ATOM     28  C   UNL     1       7.157  -9.136   5.339  0.00  0.00    +0.004 A 
ATOM     29  C   UNL     1       7.385  -9.009   6.676  0.00  0.00    +0.026 A 
ATOM     30  C   UNL     1       7.014  -7.830   7.344  0.00  0.00    +0.048 A 
ATOM     31  C   UNL     1       6.408  -6.780   6.610  0.00  0.00    +0.020 A 
ATOM     32  C   UNL     1       6.043  -5.600   7.280  0.00  0.00    +0.013 A 
ATOM     33  C   UNL     1       6.295  -5.516   8.621  0.00  0.00    +0.021 A 
ATOM     34  C   UNL     1       6.898  -6.582   9.283  0.00  0.00    +0.013 A 
ATOM     35  N   UNL     1       7.228  -7.685   8.656  0.00  0.00    -0.358 N 
ATOM     36  C   UNL     1       7.168  -6.469  10.761  0.00  0.00    +0.063 C 
ATOM     37  H   UNL     1       7.646  -8.407   9.152  0.00  0.00    +0.166 HD
ENDBRANCH  24  26
ENDBRANCH   4  24
TORSDOF 6
