REMARK  Name = ZINC16571549
REMARK  8 active torsions:
REMARK  status: ('A' for Active; 'I' for Inactive)
REMARK    1  A    between atoms: C_1  and  C_2
REMARK    2  A    between atoms: C_2  and  C_3
REMARK    3  A    between atoms: C_3  and  C_5
REMARK    4  A    between atoms: C_3  and  C_6
REMARK    5  A    between atoms: C_6  and  C_8
REMARK    6  A    between atoms: C_6  and  N_23
REMARK    7  A    between atoms: C_14  and  C_16
REMARK    8  A    between atoms: C_24  and  C_26
REMARK                            x       y       z     vdW  Elec       q    Type
REMARK                         _______ _______ _______ _____ _____    ______ ____
ROOT
ATOM      1  C   UNL     1      -0.960   8.405  -0.050  0.00  0.00    +0.162 C 
ENDROOT
BRANCH   1   2
ATOM      2  C   UNL     1      -2.204   8.970   0.585  0.00  0.00    +0.239 C 
ATOM      3  O   UNL     1      -2.845   8.299   1.366  0.00  0.00    -0.273 OA
ATOM      4  N   UNL     1      -2.604  10.222   0.286  0.00  0.00    -0.262 N 
ATOM      5  C   UNL     1      -3.688  10.782   0.950  0.00  0.00    +0.188 A 
ATOM      6  N   UNL     1      -4.467  10.270   1.895  0.00  0.00    -0.125 NA
ATOM      7  N   UNL     1      -5.420  10.924   2.401  0.00  0.00    -0.140 NA
ATOM      8  C   UNL     1      -5.707  12.160   2.010  0.00  0.00    +0.134 A 
ATOM      9  S   UNL     1      -4.438  12.398   0.769  0.00  0.00    -0.030 S 
ATOM     10  H   UNL     1      -2.135  10.732  -0.393  0.00  0.00    +0.157 HD
BRANCH   8  11
ATOM     11  C   UNL     1      -6.771  13.078   2.469  0.00  0.00    +0.009 A 
ATOM     12  C   UNL     1      -6.884  14.353   1.913  0.00  0.00    +0.012 A 
ATOM     13  C   UNL     1      -7.882  15.203   2.342  0.00  0.00    +0.016 A 
ATOM     14  C   UNL     1      -8.764  14.797   3.329  0.00  0.00    +0.018 A 
ATOM     15  C   UNL     1      -8.654  13.536   3.888  0.00  0.00    +0.016 A 
ATOM     16  C   UNL     1      -7.663  12.675   3.464  0.00  0.00    +0.012 A 
ATOM     17 BR   UNL     1     -10.124  15.972   3.918  0.00  0.00    -0.050 Br
ENDBRANCH   8  11
ENDBRANCH   1   2
BRANCH   1  18
ATOM     18  N   UNL     1      -0.734   7.044   0.445  0.00  0.00    -0.300 N 
ATOM     19  C   UNL     1       0.520   6.615   0.687  0.00  0.00    +0.245 C 
ATOM     20  O   UNL     1       1.468   7.325   0.416  0.00  0.00    -0.270 OA
ATOM     21  H   UNL     1      -1.488   6.452   0.598  0.00  0.00    +0.150 HD
BRANCH  19  22
ATOM     22  C   UNL     1       0.742   5.281   1.284  0.00  0.00    +0.039 A 
ATOM     23  C   UNL     1       2.040   4.833   1.536  0.00  0.00    +0.013 A 
ATOM     24  C   UNL     1       2.242   3.587   2.093  0.00  0.00    +0.004 A 
ATOM     25  C   UNL     1       1.162   2.780   2.401  0.00  0.00    +0.038 A 
ATOM     26  C   UNL     1      -0.129   3.214   2.148  0.00  0.00    +0.124 A 
ATOM     27  C   UNL     1      -0.344   4.463   1.596  0.00  0.00    +0.051 A 
ATOM     28  F   UNL     1      -1.179   2.418   2.446  0.00  0.00    -0.205 F 
ENDBRANCH  19  22
ENDBRANCH   1  18
BRANCH   1  29
ATOM     29  C   UNL     1      -1.134   8.372  -1.570  0.00  0.00    +0.015 C 
ATOM     30  C   UNL     1       0.181   7.945  -2.224  0.00  0.00    +0.010 C 
BRANCH  29  32
ATOM     31  C   UNL     1      -3.586   7.904  -1.455  0.00  0.00    +0.004 C 
ATOM     32  C   UNL     1      -2.234   7.373  -1.936  0.00  0.00    +0.002 C 
ENDBRANCH  29  32
ENDBRANCH   1  29
TORSDOF 6
