REMARK  Name = ZINC21865799
REMARK  8 active torsions:
REMARK  status: ('A' for Active; 'I' for Inactive)
REMARK    1  A    between atoms: C_1  and  C_2
REMARK    2  A    between atoms: N_4  and  C_5
REMARK    3  A    between atoms: C_8  and  N_11
REMARK    4  A    between atoms: C_17  and  C_32
REMARK    5  A    between atoms: C_20  and  C_21
REMARK    6  A    between atoms: C_20  and  C_22
REMARK    7  A    between atoms: N_24  and  C_25
REMARK    8  A    between atoms: C_25  and  C_26
REMARK                            x       y       z     vdW  Elec       q    Type
REMARK                         _______ _______ _______ _____ _____    ______ ____
ROOT
ATOM      1  N   UNL     1       1.892  -3.446  -3.775  0.00  0.00    -0.250 N 
ATOM      2  C   UNL     1       3.186  -3.565  -4.148  0.00  0.00    +0.268 C 
ATOM      3  O   UNL     1       3.736  -2.722  -4.834  0.00  0.00    -0.268 OA
ATOM      4  C   UNL     1       3.891  -4.763  -3.682  0.00  0.00    +0.106 A 
ATOM      5  C   UNL     1       5.219  -5.089  -3.721  0.00  0.00    +0.033 A 
ATOM      6  C   UNL     1       5.357  -6.340  -3.118  0.00  0.00    +0.032 A 
ATOM      7  C   UNL     1       4.097  -6.760  -2.720  0.00  0.00    +0.085 A 
ATOM      8  N   UNL     1       3.201  -5.804  -3.071  0.00  0.00    -0.331 N 
ATOM      9  C   UNL     1       1.746  -5.766  -2.898  0.00  0.00    +0.158 C 
ATOM     10  C   UNL     1       1.295  -4.312  -2.764  0.00  0.00    +0.133 C 
ATOM     11  C   UNL     1      -0.228  -4.253  -2.900  0.00  0.00    +0.044 C 
ENDROOT
BRANCH   1  15
ATOM     12  C   UNL     1      -0.461  -0.511  -5.572  0.00  0.00    +0.033 A 
ATOM     13  C   UNL     1       0.501  -0.153  -4.636  0.00  0.00    +0.025 A 
ATOM     14  C   UNL     1       1.280  -1.125  -4.041  0.00  0.00    +0.025 A 
ATOM     15  C   UNL     1       1.102  -2.461  -4.378  0.00  0.00    +0.038 A 
ATOM     16  C   UNL     1       0.143  -2.818  -5.318  0.00  0.00    +0.025 A 
ATOM     17  C   UNL     1      -0.639  -1.846  -5.909  0.00  0.00    +0.025 A 
BRANCH  12  21
ATOM     18  C   UNL     1      -3.418   1.309  -7.029  0.00  0.00    +0.109 C 
ATOM     19  C   UNL     1      -2.540   0.217  -6.474  0.00  0.00    +0.214 C 
ATOM     20  O   UNL     1      -2.993  -0.894  -6.297  0.00  0.00    -0.276 OA
ATOM     21  N   UNL     1      -1.251   0.475  -6.176  0.00  0.00    -0.286 N 
ATOM     22  H   UNL     1      -0.819   1.460  -6.407  0.00  0.00    +0.155 HD
ENDBRANCH  12  21
ENDBRANCH   1  15
BRANCH   7  23
ATOM     23  C   UNL     1       3.785  -8.023  -2.037  0.00  0.00    +0.151 A 
ATOM     24  C   UNL     1       4.693  -8.941  -1.598  0.00  0.00    +0.051 A 
ATOM     25  C   UNL     1       3.959  -9.986  -1.006  0.00  0.00    +0.042 A 
ATOM     26  C   UNL     1       2.654  -9.661  -1.110  0.00  0.00    +0.196 A 
ATOM     27  O   UNL     1       2.553  -8.473  -1.728  0.00  0.00    -0.461 OA
ENDBRANCH   7  23
BRANCH  10  28
ATOM     28  C   UNL     1       1.682  -3.805  -1.399  0.00  0.00    +0.239 C 
ATOM     29  O   UNL     1       1.855  -4.587  -0.488  0.00  0.00    -0.273 OA
ATOM     30  N   UNL     1       1.837  -2.483  -1.190  0.00  0.00    -0.309 N 
ATOM     31  H   UNL     1       1.681  -1.773  -2.016  0.00  0.00    +0.149 HD
BRANCH  30  32
ATOM     32  C   UNL     1       2.213  -1.990   0.137  0.00  0.00    +0.139 C 
BRANCH  32  33
ATOM     33  C   UNL     1       2.320  -0.487   0.104  0.00  0.00    -0.030 A 
ATOM     34  C   UNL     1       1.212   0.291   0.384  0.00  0.00    +0.005 A 
ATOM     35  C   UNL     1       1.310   1.669   0.353  0.00  0.00    +0.000 A 
ATOM     36  C   UNL     1       2.516   2.270   0.043  0.00  0.00    +0.000 A 
ATOM     37  C   UNL     1       3.624   1.492  -0.237  0.00  0.00    +0.000 A 
ATOM     38  C   UNL     1       3.526   0.113  -0.206  0.00  0.00    +0.005 A 
ENDBRANCH  32  33
ENDBRANCH  30  32
ENDBRANCH  10  28
TORSDOF 6
