REMARK  Name = ZINC38984381
REMARK  6 active torsions:
REMARK  status: ('A' for Active; 'I' for Inactive)
REMARK    1  A    between atoms: C_1  and  C_2
REMARK    2  A    between atoms: C_2  and  C_3
REMARK    3  A    between atoms: C_7  and  N_9
REMARK    4  A    between atoms: N_9  and  C_10
REMARK    5  A    between atoms: N_13  and  S_14
REMARK    6  A    between atoms: S_14  and  C_17
REMARK                            x       y       z     vdW  Elec       q    Type
REMARK                         _______ _______ _______ _____ _____    ______ ____
ROOT
ATOM      1  C   UNL     1      -5.370  -2.095  -2.361  0.00  0.00    +0.237 C 
ATOM      2  C   UNL     1      -5.328  -3.312  -3.258  0.00  0.00    +0.192 C 
ATOM      3  N   UNL     1      -4.484  -4.274  -3.026  0.00  0.00    -0.110 NA
ATOM      4  N   UNL     1      -6.175  -3.385  -4.297  0.00  0.00    -0.226 NA
ATOM      5  C   UNL     1      -7.039  -2.425  -4.552  0.00  0.00    +0.089 A 
ATOM      6  C   UNL     1      -7.919  -2.535  -5.658  0.00  0.00    +0.030 A 
ATOM      7  C   UNL     1      -8.807  -1.553  -5.925  0.00  0.00    +0.002 A 
ATOM      8  C   UNL     1      -8.912  -0.391  -5.144  0.00  0.00    +0.002 A 
ATOM      9  C   UNL     1      -8.122  -0.184  -4.067  0.00  0.00    +0.027 A 
ATOM     10  C   UNL     1      -7.128  -1.207  -3.709  0.00  0.00    +0.063 A 
ATOM     11  N   UNL     1      -6.349  -1.043  -2.677  0.00  0.00    -0.359 N 
ATOM     12  H   UNL     1      -6.413  -0.244  -2.130  0.00  0.00    +0.162 HD
ENDROOT
BRANCH   3  13
ATOM     13  S   UNL     1      -4.448  -5.600  -4.016  0.00  0.00    +0.102 S 
ATOM     14  O   UNL     1      -5.686  -6.274  -3.838  0.00  0.00    -0.146 OA
ATOM     15  O   UNL     1      -4.004  -5.146  -5.287  0.00  0.00    -0.146 OA
BRANCH  13  16
ATOM     16  C   UNL     1      -3.196  -6.676  -3.400  0.00  0.00    +0.132 A 
ATOM     17  C   UNL     1      -3.537  -7.920  -2.904  0.00  0.00    +0.050 A 
ATOM     18  C   UNL     1      -2.554  -8.765  -2.420  0.00  0.00    +0.043 A 
ATOM     19  C   UNL     1      -1.230  -8.365  -2.433  0.00  0.00    +0.021 A 
ATOM     20  C   UNL     1      -0.889  -7.121  -2.929  0.00  0.00    +0.023 A 
ATOM     21  C   UNL     1      -1.871  -6.278  -3.418  0.00  0.00    +0.068 A 
ATOM     22 CL   UNL     1      -1.442  -4.719  -4.049  0.00  0.00    -0.082 Cl
ATOM     23 CL   UNL     1      -2.982 -10.328  -1.796  0.00  0.00    -0.083 Cl
ENDBRANCH  13  16
ENDBRANCH   3  13
BRANCH   1  24
ATOM     24  N   UNL     1      -4.038  -1.486  -2.371  0.00  0.00    -0.318 N 
ATOM     25  H   UNL     1      -3.605  -1.283  -3.215  0.00  0.00    +0.148 HD
BRANCH  24  30
ATOM     26  C   UNL     1      -3.433  -1.042   1.226  0.00  0.00    -0.046 A 
ATOM     27  C   UNL     1      -2.115  -0.624   1.220  0.00  0.00    +0.004 A 
ATOM     28  C   UNL     1      -1.435  -0.491   0.024  0.00  0.00    +0.002 A 
ATOM     29  C   UNL     1      -2.070  -0.776  -1.169  0.00  0.00    +0.023 A 
ATOM     30  C   UNL     1      -3.393  -1.197  -1.166  0.00  0.00    +0.029 A 
ATOM     31  C   UNL     1      -4.073  -1.334   0.038  0.00  0.00    +0.026 A 
BRANCH  26  33
ATOM     32  C   UNL     1      -3.980  -2.603   3.074  0.00  0.00    +0.009 C 
ATOM     33  C   UNL     1      -4.171  -1.185   2.533  0.00  0.00    +0.032 C 
ENDBRANCH  26  33
ENDBRANCH  24  30
ENDBRANCH   1  24
TORSDOF 5
