REMARK  Name = ZINC57524137
REMARK  10 active torsions:
REMARK  status: ('A' for Active; 'I' for Inactive)
REMARK    1  A    between atoms: C_1  and  C_2
REMARK    2  A    between atoms: C_4  and  C_32
REMARK    3  A    between atoms: C_6  and  N_8
REMARK    4  A    between atoms: N_8  and  C_9
REMARK    5  A    between atoms: C_9  and  C_10
REMARK    6  A    between atoms: N_12  and  C_13
REMARK    7  A    between atoms: C_16  and  S_19
REMARK    8  A    between atoms: S_19  and  N_22
REMARK    9  A    between atoms: C_24  and  C_31
REMARK   10  A    between atoms: C_27  and  C_30
REMARK                            x       y       z     vdW  Elec       q    Type
REMARK                         _______ _______ _______ _____ _____    ______ ____
ROOT
ATOM      1  C   UNL     1       0.175  -3.576   7.094  0.00  0.00    +0.034 A 
ATOM      2  C   UNL     1       0.293  -4.922   6.775  0.00  0.00    +0.025 A 
ATOM      3  C   UNL     1       0.399  -5.862   7.782  0.00  0.00    +0.030 A 
ATOM      4  C   UNL     1       0.388  -5.464   9.106  0.00  0.00    +0.106 A 
ATOM      5  C   UNL     1       0.271  -4.124   9.427  0.00  0.00    +0.030 A 
ATOM      6  C   UNL     1       0.170  -3.178   8.425  0.00  0.00    +0.025 A 
ENDROOT
BRANCH   1   9
ATOM      7  C   UNL     1       0.637  -1.409   6.227  0.00  0.00    +0.234 C 
ATOM      8  O   UNL     1       1.171  -1.116   7.276  0.00  0.00    -0.274 OA
ATOM      9  N   UNL     1       0.067  -2.621   6.077  0.00  0.00    -0.284 N 
ATOM     10  H   UNL     1      -0.418  -2.832   5.263  0.00  0.00    +0.155 HD
BRANCH   7  11
ATOM     11  C   UNL     1       0.611  -0.418   5.091  0.00  0.00    +0.198 C 
BRANCH  11  12
ATOM     12  N   UNL     1       1.290   0.813   5.502  0.00  0.00    -0.335 N 
ATOM     13  H   UNL     1       1.669   0.884   6.392  0.00  0.00    +0.147 HD
BRANCH  12  19
ATOM     14  C   UNL     1       0.370   2.735   1.073  0.00  0.00    +0.044 C 
ATOM     15  C   UNL     1       0.957   2.844   2.458  0.00  0.00    -0.048 A 
ATOM     16  C   UNL     1       1.598   4.005   2.847  0.00  0.00    +0.006 A 
ATOM     17  C   UNL     1       2.138   4.109   4.116  0.00  0.00    -0.048 A 
ATOM     18  C   UNL     1       2.038   3.052   4.999  0.00  0.00    +0.026 A 
ATOM     19  C   UNL     1       1.394   1.884   4.611  0.00  0.00    +0.028 A 
ATOM     20  C   UNL     1       0.848   1.785   3.338  0.00  0.00    +0.026 A 
ATOM     21  C   UNL     1       2.837   5.376   4.535  0.00  0.00    +0.044 C 
ENDBRANCH  12  19
ENDBRANCH  11  12
ENDBRANCH   7  11
ENDBRANCH   1   9
BRANCH   4  22
ATOM     22  S   UNL     1       0.524  -6.666  10.387  0.00  0.00    +0.061 S 
ATOM     23  O   UNL     1      -0.059  -6.090  11.547  0.00  0.00    -0.153 OA
ATOM     24  O   UNL     1       0.073  -7.897   9.838  0.00  0.00    -0.153 OA
BRANCH  22  25
ATOM     25  N   UNL     1       2.137  -6.855  10.712  0.00  0.00    -0.172 NA
ATOM     26  C   UNL     1       2.943  -7.852   9.990  0.00  0.00    +0.140 C 
ATOM     27  C   UNL     1       4.202  -7.160   9.454  0.00  0.00    +0.131 C 
ATOM     28  O   UNL     1       4.853  -6.471  10.524  0.00  0.00    -0.371 OA
ATOM     29  C   UNL     1       4.071  -5.427  11.109  0.00  0.00    +0.131 C 
ATOM     30  C   UNL     1       2.808  -6.026  11.726  0.00  0.00    +0.140 C 
ATOM     31  C   UNL     1       3.680  -4.416  10.029  0.00  0.00    +0.039 C 
ATOM     32  C   UNL     1       5.150  -8.207   8.867  0.00  0.00    +0.039 C 
ENDBRANCH  22  25
ENDBRANCH   4  22
TORSDOF 6
