REMARK  Name = ZINC39676362
REMARK  5 active torsions:
REMARK  status: ('A' for Active; 'I' for Inactive)
REMARK    1  A    between atoms: C_5  and  C_7
REMARK    2  A    between atoms: C_11  and  C_20
REMARK    3  A    between atoms: N_22  and  C_23
REMARK    4  A    between atoms: C_23  and  C_24
REMARK    5  A    between atoms: C_24  and  C_25
REMARK                            x       y       z     vdW  Elec       q    Type
REMARK                         _______ _______ _______ _____ _____    ______ ____
ROOT
ATOM      1  C   UNL     1       1.190  -1.966  -0.097  0.00  0.00    +0.248 C 
ATOM      2  O   UNL     1       2.273  -2.516  -0.134  0.00  0.00    -0.270 OA
ATOM      3  N   UNL     1       0.068  -2.695   0.063  0.00  0.00    -0.296 N 
ATOM      4  C   UNL     1      -1.336  -2.222   0.028  0.00  0.00    +0.121 C 
ATOM      5  C   UNL     1      -2.104  -3.335  -0.720  0.00  0.00    +0.100 C 
ATOM      6  C   UNL     1      -1.250  -4.599  -0.527  0.00  0.00    -0.004 C 
ATOM      7  C   UNL     1      -0.041  -4.154   0.307  0.00  0.00    +0.115 C 
ATOM      8  C   UNL     1      -0.783  -5.133  -1.878  0.00  0.00    -0.010 C 
ATOM      9  C   UNL     1       0.016  -6.421  -1.664  0.00  0.00    -0.082 C 
ATOM     10  N   UNL     1      -0.826  -7.415  -0.987  0.00  0.00    +0.379 N 
ATOM     11  C   UNL     1      -1.195  -6.933   0.349  0.00  0.00    -0.082 C 
ATOM     12  C   UNL     1      -2.045  -5.665   0.220  0.00  0.00    -0.010 C 
ATOM     13  H   UNL     1      -1.663  -7.570  -1.530  0.00  0.00    -0.086 HD
ATOM     14  H   UNL     1      -0.318  -8.283  -0.902  0.00  0.00    -0.086 HD
ENDROOT
BRANCH   1  19
ATOM     15  C   UNL     1       0.067   1.587   0.367  0.00  0.00    +0.001 A 
ATOM     16  C   UNL     1       0.940   2.258  -0.471  0.00  0.00    +0.001 A 
ATOM     17  C   UNL     1       1.895   1.560  -1.188  0.00  0.00    +0.021 A 
ATOM     18  C   UNL     1       1.982   0.186  -1.071  0.00  0.00    +0.053 A 
ATOM     19  C   UNL     1       1.103  -0.496  -0.227  0.00  0.00    +0.055 A 
ATOM     20  C   UNL     1       0.143   0.216   0.494  0.00  0.00    +0.014 A 
ATOM     21 CL   UNL     1       3.180  -0.689  -1.972  0.00  0.00    -0.083 Cl
ENDBRANCH   1  19
BRANCH   5  22
ATOM     22  C   UNL     1      -3.471  -3.526  -0.116  0.00  0.00    +0.218 C 
ATOM     23  O   UNL     1      -3.647  -3.317   1.066  0.00  0.00    -0.275 OA
ATOM     24  N   UNL     1      -4.500  -3.928  -0.889  0.00  0.00    -0.315 N 
ATOM     25  H   UNL     1      -4.359  -4.094  -1.835  0.00  0.00    +0.149 HD
BRANCH  24  26
ATOM     26  C   UNL     1      -5.829  -4.113  -0.302  0.00  0.00    +0.109 C 
BRANCH  26  27
ATOM     27  C   UNL     1      -6.807  -4.569  -1.387  0.00  0.00    +0.056 C 
BRANCH  27  28
ATOM     28  C   UNL     1      -8.174  -4.759  -0.783  0.00  0.00    -0.021 A 
ATOM     29  C   UNL     1      -9.188  -3.722  -0.578  0.00  0.00    +0.004 A 
ATOM     30  C   UNL     1      -9.241  -2.352  -0.839  0.00  0.00    +0.030 A 
ATOM     31  C   UNL     1     -10.375  -1.640  -0.518  0.00  0.00    +0.042 A 
ATOM     32  C   UNL     1     -11.463  -2.278   0.064  0.00  0.00    +0.022 A 
ATOM     33  C   UNL     1     -11.426  -3.630   0.328  0.00  0.00    +0.027 A 
ATOM     34  C   UNL     1     -10.291  -4.368   0.011  0.00  0.00    +0.047 A 
ATOM     35  N   UNL     1      -9.958  -5.697   0.147  0.00  0.00    -0.360 N 
ATOM     36  C   UNL     1      -8.696  -5.913  -0.336  0.00  0.00    +0.087 A 
ATOM     37 CL   UNL     1     -10.445   0.064  -0.841  0.00  0.00    -0.084 Cl
ATOM     38  H   UNL     1     -10.533  -6.380   0.526  0.00  0.00    +0.165 HD
ENDBRANCH  27  28
ENDBRANCH  26  27
ENDBRANCH  24  26
ENDBRANCH   5  22
TORSDOF 5
