REMARK  Name = ZINC08845388
REMARK  11 active torsions:
REMARK  status: ('A' for Active; 'I' for Inactive)
REMARK    1  A    between atoms: C_1  and  C_2
REMARK    2  A    between atoms: C_4  and  O_39
REMARK    3  A    between atoms: C_5  and  C_9
REMARK    4  A    between atoms: N_17  and  C_27
REMARK    5  A    between atoms: C_18  and  C_20
REMARK    6  A    between atoms: C_27  and  C_28
REMARK    7  A    between atoms: C_28  and  C_29
REMARK    8  A    between atoms: C_32  and  O_37
REMARK    9  A    between atoms: C_33  and  O_35
REMARK   10  A    between atoms: O_35  and  C_36
REMARK   11  A    between atoms: O_37  and  C_38
REMARK                            x       y       z     vdW  Elec       q    Type
REMARK                         _______ _______ _______ _____ _____    ______ ____
ROOT
ATOM      1  C   UNL     1      -0.104  -4.585  -0.097  0.00  0.00    +0.075 A 
ATOM      2  C   UNL     1       1.050  -5.269  -0.309  0.00  0.00    +0.035 A 
ATOM      3  C   UNL     1       0.727  -6.635  -0.147  0.00  0.00    +0.153 A 
ATOM      4  N   UNL     1      -0.558  -6.694   0.143  0.00  0.00    -0.168 NA
ATOM      5  N   UNL     1      -1.065  -5.514   0.184  0.00  0.00    -0.276 N 
ATOM      6  H   UNL     1      -1.993  -5.313   0.383  0.00  0.00    +0.189 HD
ATOM      7  C   UNL     1       1.955  -7.420  -0.369  0.00  0.00    +0.268 C 
ATOM      8  O   UNL     1       2.025  -8.632  -0.305  0.00  0.00    -0.268 OA
ATOM      9  N   UNL     1       2.987  -6.606  -0.653  0.00  0.00    -0.285 N 
ATOM     10  C   UNL     1       2.516  -5.216  -0.639  0.00  0.00    +0.144 C 
ENDROOT
BRANCH   1  15
ATOM     11  C   UNL     1      -0.809   1.128  -0.313  0.00  0.00    +0.045 C 
ATOM     12  C   UNL     1      -0.624  -0.367  -0.259  0.00  0.00    -0.029 A 
ATOM     13  C   UNL     1      -0.371  -1.071  -1.421  0.00  0.00    +0.050 A 
ATOM     14  C   UNL     1      -0.201  -2.445  -1.378  0.00  0.00    +0.126 A 
ATOM     15  C   UNL     1      -0.285  -3.117  -0.153  0.00  0.00    +0.043 A 
ATOM     16  C   UNL     1      -0.539  -2.397   1.014  0.00  0.00    +0.034 A 
ATOM     17  C   UNL     1      -0.701  -1.027   0.956  0.00  0.00    +0.045 A 
ATOM     18 CL   UNL     1      -1.011  -0.130   2.409  0.00  0.00    -0.083 Cl
BRANCH  14  19
ATOM     19  O   UNL     1       0.046  -3.138  -2.520  0.00  0.00    -0.506 OA
ATOM     20  H   UNL     1       0.978  -3.154  -2.777  0.00  0.00    +0.292 HD
ENDBRANCH  14  19
ENDBRANCH   1  15
BRANCH  10  21
ATOM     21  C   UNL     1       2.719  -4.588  -1.994  0.00  0.00    +0.013 A 
ATOM     22  C   UNL     1       3.255  -3.318  -2.094  0.00  0.00    +0.008 A 
ATOM     23  C   UNL     1       3.441  -2.741  -3.337  0.00  0.00    +0.001 A 
ATOM     24  C   UNL     1       3.091  -3.434  -4.481  0.00  0.00    +0.003 A 
ATOM     25  C   UNL     1       2.556  -4.705  -4.383  0.00  0.00    +0.039 A 
ATOM     26  C   UNL     1       2.374  -5.285  -3.139  0.00  0.00    +0.129 A 
ATOM     27  F   UNL     1       1.855  -6.529  -3.043  0.00  0.00    -0.205 F 
ENDBRANCH  10  21
BRANCH   9  28
ATOM     28  C   UNL     1       4.359  -7.037  -0.930  0.00  0.00    +0.114 C 
BRANCH  28  29
ATOM     29  C   UNL     1       4.545  -7.205  -2.439  0.00  0.00    +0.054 C 
BRANCH  29  30
ATOM     30  C   UNL     1       5.914  -7.772  -2.716  0.00  0.00    -0.042 A 
ATOM     31  C   UNL     1       6.988  -6.922  -2.906  0.00  0.00    +0.007 A 
ATOM     32  C   UNL     1       8.245  -7.437  -3.160  0.00  0.00    +0.049 A 
ATOM     33  C   UNL     1       8.431  -8.809  -3.226  0.00  0.00    +0.161 A 
ATOM     34  C   UNL     1       7.351  -9.665  -3.035  0.00  0.00    +0.162 A 
ATOM     35  C   UNL     1       6.094  -9.142  -2.775  0.00  0.00    +0.053 A 
BRANCH  34  36
ATOM     36  O   UNL     1       7.528 -11.011  -3.098  0.00  0.00    -0.491 OA
ATOM     37  C   UNL     1       6.374 -11.829  -2.892  0.00  0.00    +0.277 C 
ENDBRANCH  34  36
BRANCH  33  38
ATOM     38  O   UNL     1       9.667  -9.318  -3.476  0.00  0.00    -0.491 OA
ATOM     39  C   UNL     1      10.729  -8.380  -3.662  0.00  0.00    +0.277 C 
ENDBRANCH  33  38
ENDBRANCH  29  30
ENDBRANCH  28  29
ENDBRANCH   9  28
TORSDOF 8
