REMARK  Name = ZINC39598773
REMARK  7 active torsions:
REMARK  status: ('A' for Active; 'I' for Inactive)
REMARK    1  A    between atoms: C_1  and  C_2
REMARK    2  A    between atoms: C_2  and  N_3
REMARK    3  A    between atoms: C_4  and  C_6
REMARK    4  A    between atoms: C_17  and  C_19
REMARK    5  A    between atoms: C_25  and  O_27
REMARK    6  A    between atoms: O_27  and  C_28
REMARK    7  A    between atoms: C_28  and  C_29
REMARK                            x       y       z     vdW  Elec       q    Type
REMARK                         _______ _______ _______ _____ _____    ______ ____
ROOT
ATOM      1  C   UNL     1      -3.014  -2.361   0.018  0.00  0.00    +0.100 C 
ATOM      2  C   UNL     1      -3.797  -1.820  -1.199  0.00  0.00    +0.121 C 
ATOM      3  N   UNL     1      -3.677  -2.883  -2.224  0.00  0.00    -0.300 N 
ATOM      4  C   UNL     1      -3.801  -4.148  -1.460  0.00  0.00    +0.115 C 
ATOM      5  C   UNL     1      -3.023  -3.889  -0.155  0.00  0.00    -0.004 C 
ATOM      6  C   UNL     1      -3.732  -4.550   1.023  0.00  0.00    -0.010 C 
ATOM      7  C   UNL     1      -3.676  -6.072   0.858  0.00  0.00    -0.082 C 
ATOM      8  N   UNL     1      -2.276  -6.508   0.797  0.00  0.00    +0.379 N 
ATOM      9  C   UNL     1      -1.627  -5.941  -0.391  0.00  0.00    -0.082 C 
ATOM     10  C   UNL     1      -1.596  -4.415  -0.279  0.00  0.00    -0.010 C 
ATOM     11  C   UNL     1      -3.496  -2.735  -3.552  0.00  0.00    +0.219 C 
ATOM     12  O   UNL     1      -3.417  -3.712  -4.266  0.00  0.00    -0.275 OA
ATOM     13  H   UNL     1      -1.791  -6.196   1.625  0.00  0.00    -0.086 HD
ATOM     14  H   UNL     1      -2.241  -7.515   0.750  0.00  0.00    -0.086 HD
ENDROOT
BRANCH  11  15
ATOM     15  C   UNL     1      -3.393  -1.355  -4.148  0.00  0.00    +0.078 C 
ATOM     16  C   UNL     1      -4.678  -0.577  -3.859  0.00  0.00    +0.032 C 
ATOM     17  C   UNL     1      -4.556   0.837  -4.437  0.00  0.00    +0.112 C 
ATOM     18  N   UNL     1      -4.218   0.737  -5.864  0.00  0.00    -0.267 N 
ATOM     19  C   UNL     1      -3.052  -0.064  -6.259  0.00  0.00    +0.112 C 
ATOM     20  C   UNL     1      -3.191  -1.467  -5.661  0.00  0.00    +0.032 C 
ATOM     21  C   UNL     1      -4.965   1.368  -6.791  0.00  0.00    +0.403 C 
ATOM     22  O   UNL     1      -5.928   2.027  -6.451  0.00  0.00    -0.226 OA
BRANCH  21  23
ATOM     23  O   UNL     1      -4.645   1.268  -8.095  0.00  0.00    -0.445 OA
BRANCH  23  24
ATOM     24  C   UNL     1      -5.480   1.962  -9.024  0.00  0.00    +0.269 C 
BRANCH  24  25
ATOM     25  C   UNL     1      -4.971   1.736 -10.424  0.00  0.00    -0.010 A 
ATOM     26  C   UNL     1      -4.036   2.597 -10.967  0.00  0.00    +0.007 A 
ATOM     27  C   UNL     1      -3.569   2.390 -12.251  0.00  0.00    +0.000 A 
ATOM     28  C   UNL     1      -4.036   1.321 -12.993  0.00  0.00    +0.000 A 
ATOM     29  C   UNL     1      -4.970   0.459 -12.449  0.00  0.00    +0.000 A 
ATOM     30  C   UNL     1      -5.434   0.664 -11.163  0.00  0.00    +0.007 A 
ENDBRANCH  24  25
ENDBRANCH  23  24
ENDBRANCH  21  23
ENDBRANCH  11  15
BRANCH   1  32
ATOM     31  N   UNL     1      -0.930  -1.686   1.167  0.00  0.00    -0.315 N 
ATOM     32  C   UNL     1      -1.601  -1.839   0.007  0.00  0.00    +0.218 C 
ATOM     33  O   UNL     1      -1.066  -1.558  -1.044  0.00  0.00    -0.275 OA
ATOM     34  H   UNL     1      -1.358  -1.911   2.008  0.00  0.00    +0.149 HD
BRANCH  31  36
ATOM     35  C   UNL     1       0.970  -1.100   2.591  0.00  0.00    +0.024 C 
ATOM     36  C   UNL     1       0.444  -1.179   1.156  0.00  0.00    +0.101 C 
ENDBRANCH  31  36
ENDBRANCH   1  32
TORSDOF 6
