REMARK  Name = ZINC36186671
REMARK  9 active torsions:
REMARK  status: ('A' for Active; 'I' for Inactive)
REMARK    1  A    between atoms: C_1  and  C_2
REMARK    2  A    between atoms: C_5  and  C_8
REMARK    3  A    between atoms: C_14  and  C_16
REMARK    4  A    between atoms: C_16  and  O_17
REMARK    5  A    between atoms: O_17  and  C_18
REMARK    6  A    between atoms: C_18  and  C_20
REMARK    7  A    between atoms: C_20  and  N_28
REMARK    8  A    between atoms: C_21  and  C_22
REMARK    9  A    between atoms: C_29  and  C_31
REMARK                            x       y       z     vdW  Elec       q    Type
REMARK                         _______ _______ _______ _____ _____    ______ ____
ROOT
ATOM      1  C   UNL     1      -1.210  -9.525  -3.715  0.00  0.00    +0.328 C 
ENDROOT
BRANCH   1   8
ATOM      2  C   UNL     1      -3.363  -4.577  -0.959  0.00  0.00    +0.080 A 
ATOM      3  C   UNL     1      -3.424  -5.215   0.249  0.00  0.00    +0.076 A 
ATOM      4  S   UNL     1      -2.816  -6.836  -0.202  0.00  0.00    -0.060 S 
ATOM      5  C   UNL     1      -2.547  -6.498  -1.937  0.00  0.00    +0.165 A 
ATOM      6  N   UNL     1      -2.931  -5.238  -2.022  0.00  0.00    -0.225 NA
ATOM      7  N   UNL     1      -2.067  -7.340  -2.932  0.00  0.00    -0.262 N 
ATOM      8  C   UNL     1      -1.731  -8.612  -2.635  0.00  0.00    +0.256 C 
ATOM      9  O   UNL     1      -1.849  -9.021  -1.500  0.00  0.00    -0.272 OA
ATOM     10  H   UNL     1      -1.972  -7.013  -3.840  0.00  0.00    +0.157 HD
BRANCH   2  15
ATOM     11  C   UNL     1      -4.996   0.925  -1.423  0.00  0.00    +0.044 C 
ATOM     12  C   UNL     1      -4.569  -0.514  -1.302  0.00  0.00    -0.050 A 
ATOM     13  C   UNL     1      -4.118  -1.196  -2.418  0.00  0.00    +0.004 A 
ATOM     14  C   UNL     1      -3.725  -2.515  -2.312  0.00  0.00    +0.010 A 
ATOM     15  C   UNL     1      -3.783  -3.160  -1.078  0.00  0.00    +0.001 A 
ATOM     16  C   UNL     1      -4.239  -2.468   0.043  0.00  0.00    +0.010 A 
ATOM     17  C   UNL     1      -4.624  -1.148  -0.073  0.00  0.00    +0.004 A 
ENDBRANCH   2  15
ENDBRANCH   1   8
BRANCH   1  18
ATOM     18  O   UNL     1      -0.927 -10.810  -3.156  0.00  0.00    -0.451 OA
BRANCH  18  19
ATOM     19  C   UNL     1      -0.449 -11.751  -3.996  0.00  0.00    +0.354 C 
ATOM     20  O   UNL     1      -0.278 -11.487  -5.170  0.00  0.00    -0.244 OA
BRANCH  19  21
ATOM     21  C   UNL     1      -0.136 -13.094  -3.492  0.00  0.00    +0.119 C 
ATOM     22  C   UNL     1       0.343 -14.038  -4.335  0.00  0.00    +0.038 C 
BRANCH  22  23
ATOM     23  C   UNL     1       0.509 -15.424  -3.869  0.00  0.00    -0.023 A 
ATOM     24  C   UNL     1      -0.148 -15.861  -2.714  0.00  0.00    +0.008 A 
ATOM     25  C   UNL     1       0.013 -17.161  -2.284  0.00  0.00    +0.001 A 
ATOM     26  C   UNL     1       0.822 -18.033  -2.992  0.00  0.00    +0.000 A 
ATOM     27  C   UNL     1       1.476 -17.608  -4.135  0.00  0.00    +0.001 A 
ATOM     28  C   UNL     1       1.320 -16.313  -4.582  0.00  0.00    +0.008 A 
ENDBRANCH  22  23
BRANCH  21  29
ATOM     29  N   UNL     1      -0.334 -13.398  -2.140  0.00  0.00    -0.280 N 
ATOM     30  C   UNL     1      -1.553 -13.242  -1.586  0.00  0.00    +0.214 C 
ATOM     31  O   UNL     1      -2.451 -12.739  -2.227  0.00  0.00    -0.276 OA
ATOM     32  C   UNL     1      -1.799 -13.694  -0.170  0.00  0.00    +0.109 C 
ATOM     33  H   UNL     1       0.406 -13.720  -1.603  0.00  0.00    +0.155 HD
ENDBRANCH  21  29
ENDBRANCH  19  21
ENDBRANCH  18  19
ENDBRANCH   1  18
TORSDOF 7
