REMARK  Name = ZINC67424187
REMARK  9 active torsions:
REMARK  status: ('A' for Active; 'I' for Inactive)
REMARK    1  A    between atoms: C_1  and  C_2
REMARK    2  A    between atoms: C_2  and  C_3
REMARK    3  A    between atoms: C_2  and  C_4
REMARK    4  A    between atoms: C_2  and  C_5
REMARK    5  A    between atoms: C_5  and  N_6
REMARK    6  A    between atoms: C_7  and  C_9
REMARK    7  A    between atoms: N_11  and  C_12
REMARK    8  A    between atoms: C_15  and  N_18
REMARK    9  A    between atoms: N_19  and  C_20
REMARK                            x       y       z     vdW  Elec       q    Type
REMARK                         _______ _______ _______ _____ _____    ______ ____
ROOT
ATOM      1  C   UNL     1       6.415   0.475  -3.382  0.00  0.00    +0.034 A 
ATOM      2  C   UNL     1       7.128   0.714  -2.211  0.00  0.00    +0.025 A 
ATOM      3  C   UNL     1       8.384   1.273  -2.270  0.00  0.00    +0.031 A 
ATOM      4  C   UNL     1       8.945   1.600  -3.509  0.00  0.00    +0.086 A 
ATOM      5  C   UNL     1       8.226   1.357  -4.684  0.00  0.00    +0.031 A 
ATOM      6  C   UNL     1       6.972   0.793  -4.617  0.00  0.00    +0.025 A 
ENDROOT
BRANCH   1   9
ATOM      7  C   UNL     1       4.317   0.220  -2.300  0.00  0.00    +0.303 C 
ATOM      8  O   UNL     1       4.710   0.926  -1.394  0.00  0.00    -0.265 OA
ATOM      9  N   UNL     1       5.143  -0.091  -3.319  0.00  0.00    -0.278 N 
ATOM     10  H   UNL     1       4.851  -0.709  -4.008  0.00  0.00    +0.155 HD
BRANCH   7  12
ATOM     11  N   UNL     1       2.094   0.006  -1.266  0.00  0.00    -0.307 N 
ATOM     12  C   UNL     1       2.919  -0.305  -2.285  0.00  0.00    +0.299 C 
ATOM     13  O   UNL     1       2.526  -1.011  -3.190  0.00  0.00    -0.265 OA
ATOM     14  H   UNL     1       2.408   0.570  -0.542  0.00  0.00    +0.149 HD
BRANCH  11  15
ATOM     15  C   UNL     1       0.722  -0.508  -1.251  0.00  0.00    +0.110 C 
BRANCH  15  17
ATOM     16  C   UNL     1      -0.025   1.519   0.004  0.00  0.00    +0.012 C 
ATOM     17  C   UNL     1       0.004  -0.011   0.005  0.00  0.00    -0.022 C 
ATOM     18  C   UNL     1       0.748  -0.506   1.247  0.00  0.00    +0.012 C 
ATOM     19  C   UNL     1      -1.429  -0.548   0.020  0.00  0.00    +0.012 C 
ENDBRANCH  15  17
ENDBRANCH  11  15
ENDBRANCH   7  12
ENDBRANCH   1   9
BRANCH   4  20
ATOM     20  N   UNL     1      10.191   2.154  -3.571  0.00  0.00    -0.149 NA
ATOM     21  N   UNL     1      10.706   2.455  -4.715  0.00  0.00    -0.149 NA
BRANCH  21  22
ATOM     22  C   UNL     1      11.954   3.010  -4.777  0.00  0.00    +0.086 A 
ATOM     23  C   UNL     1      12.676   3.248  -3.605  0.00  0.00    +0.029 A 
ATOM     24  C   UNL     1      13.934   3.808  -3.676  0.00  0.00    +0.002 A 
ATOM     25  C   UNL     1      14.482   4.134  -4.904  0.00  0.00    +0.000 A 
ATOM     26  C   UNL     1      13.773   3.902  -6.069  0.00  0.00    +0.002 A 
ATOM     27  C   UNL     1      12.516   3.337  -6.014  0.00  0.00    +0.029 A 
ENDBRANCH  21  22
ENDBRANCH   4  20
TORSDOF 6
