REMARK  Name = ZINC05987998
REMARK  5 active torsions:
REMARK  status: ('A' for Active; 'I' for Inactive)
REMARK    1  A    between atoms: C_6  and  C_7
REMARK    2  A    between atoms: N_9  and  C_10
REMARK    3  A    between atoms: C_10  and  C_12
REMARK    4  A    between atoms: C_10  and  N_36
REMARK    5  A    between atoms: C_16  and  N_36
REMARK                            x       y       z     vdW  Elec       q    Type
REMARK                         _______ _______ _______ _____ _____    ______ ____
ROOT
ATOM      1  C   UNL     1      -1.256  -0.754   0.010  0.00  0.00    +0.068 C 
ENDROOT
BRANCH   1   4
ATOM      2  C   UNL     1      -0.016   1.344   0.009  0.00  0.00    +0.243 C 
ATOM      3  O   UNL     1      -1.077   1.937   0.018  0.00  0.00    -0.270 OA
ATOM      4  N   UNL     1       0.002  -0.004   0.002  0.00  0.00    -0.321 N 
ATOM      5  H   UNL     1       0.849  -0.478  -0.009  0.00  0.00    +0.147 HD
BRANCH   2  11
ATOM      6  C   UNL     1       2.474   1.421  -0.008  0.00  0.00    +0.014 A 
ATOM      7  C   UNL     1       3.655   2.133  -0.020  0.00  0.00    +0.016 A 
ATOM      8  C   UNL     1       3.633   3.517  -0.013  0.00  0.00    +0.018 A 
ATOM      9  C   UNL     1       2.426   4.196   0.002  0.00  0.00    +0.016 A 
ATOM     10  C   UNL     1       1.238   3.496   0.009  0.00  0.00    +0.014 A 
ATOM     11  C   UNL     1       1.254   2.100   0.001  0.00  0.00    +0.037 A 
ATOM     12 BR   UNL     1       5.258   4.485  -0.023  0.00  0.00    -0.050 Br
ENDBRANCH   2  11
ENDBRANCH   1   4
BRANCH   1  13
ATOM     13  C   UNL     1      -1.163  -1.897   1.023  0.00  0.00    +0.194 C 
ATOM     14 CL   UNL     1      -0.856  -1.220   2.666  0.00  0.00    -0.084 Cl
ATOM     15 CL   UNL     1      -2.712  -2.819   1.033  0.00  0.00    -0.084 Cl
ATOM     16 CL   UNL     1       0.189  -2.997   0.564  0.00  0.00    -0.084 Cl
ENDBRANCH   1  13
BRANCH   1  17
ATOM     17  N   UNL     1      -1.501  -1.314  -1.333  0.00  0.00    +0.397 N 
ATOM     18  H   UNL     1      -1.798  -2.292  -1.242  0.00  0.00    -0.083 HD
ATOM     19  H   UNL     1      -0.635  -1.268  -1.882  0.00  0.00    -0.083 HD
BRANCH  17  20
ATOM     20  C   UNL     1      -2.556  -0.547  -2.022  0.00  0.00    -0.046 C 
ATOM     21  C   UNL     1      -3.240  -1.454  -3.059  0.00  0.00    +0.008 C 
ATOM     22  C   UNL     1      -4.115  -0.559  -3.983  0.00  0.00    +0.164 C 
ATOM     23  S   UNL     1      -2.996   0.887  -4.208  0.00  0.00    -0.033 S 
ATOM     24  O   UNL     1      -2.213   0.689  -5.377  0.00  0.00    -0.174 OA
ATOM     25  O   UNL     1      -3.752   2.083  -4.067  0.00  0.00    -0.174 OA
ATOM     26  C   UNL     1      -1.925   0.676  -2.729  0.00  0.00    +0.150 C 
ENDBRANCH  17  20
ENDBRANCH   1  17
TORSDOF 5
