REMARK  Name = ZINC23186245
REMARK  15 active torsions:
REMARK  status: ('A' for Active; 'I' for Inactive)
REMARK    1  A    between atoms: C_1  and  C_2
REMARK    2  A    between atoms: C_2  and  O_3
REMARK    3  A    between atoms: O_3  and  C_4
REMARK    4  A    between atoms: C_4  and  C_6
REMARK    5  A    between atoms: C_7  and  C_36
REMARK    6  A    between atoms: C_8  and  C_13
REMARK    7  A    between atoms: C_11  and  C_12
REMARK    8  A    between atoms: C_13  and  C_15
REMARK    9  A    between atoms: C_15  and  N_16
REMARK   10  A    between atoms: N_16  and  C_17
REMARK   11  A    between atoms: N_16  and  C_30
REMARK   12  A    between atoms: C_17  and  C_18
REMARK   13  A    between atoms: C_21  and  C_24
REMARK   14  A    between atoms: N_26  and  C_27
REMARK   15  A    between atoms: C_30  and  C_31
REMARK                            x       y       z     vdW  Elec       q    Type
REMARK                         _______ _______ _______ _____ _____    ______ ____
ROOT
ATOM      1  N   UNL     1       1.169   3.962   1.434  0.00  0.00    +0.392 N 
ATOM      2  H   UNL     1       2.045   3.472   1.883  0.00  0.00    -0.080 HD
ENDROOT
BRANCH   1   3
ATOM      3  C   UNL     1       1.321   5.412   1.617  0.00  0.00    +0.005 C 
BRANCH   3   4
ATOM      4  C   UNL     1       1.595   5.710   3.068  0.00  0.00    +0.163 C 
ATOM      5  O   UNL     1       1.659   4.803   3.873  0.00  0.00    -0.293 OA
BRANCH   4   8
ATOM      6  C   UNL     1       2.146   8.865   4.750  0.00  0.00    +0.083 A 
ATOM      7  C   UNL     1       2.030   7.459   4.785  0.00  0.00    -0.008 A 
ATOM      8  C   UNL     1       1.780   7.047   3.494  0.00  0.00    +0.084 A 
ATOM      9  N   UNL     1       1.733   8.168   2.689  0.00  0.00    -0.355 N 
ATOM     10  H   UNL     1       1.539   8.063   1.611  0.00  0.00    +0.166 HD
ATOM     11  C   UNL     1       1.952   9.259   3.437  0.00  0.00    +0.028 A 
ATOM     12  C   UNL     1       1.982  10.679   2.933  0.00  0.00    +0.064 C 
ATOM     13  C   UNL     1       2.160   6.577   6.000  0.00  0.00    +0.047 C 
BRANCH   6  14
ATOM     14  C   UNL     1       2.415   9.749   5.897  0.00  0.00    +0.341 C 
ATOM     15  O   UNL     1       1.492  10.198   6.548  0.00  0.00    -0.245 OA
BRANCH  14  16
ATOM     16  O   UNL     1       3.685  10.059   6.225  0.00  0.00    -0.461 OA
BRANCH  16  18
ATOM     17  C   UNL     1       5.372  11.171   7.584  0.00  0.00    +0.048 C 
ATOM     18  C   UNL     1       3.876  10.935   7.367  0.00  0.00    +0.229 C 
ENDBRANCH  16  18
ENDBRANCH  14  16
ENDBRANCH   6  14
ENDBRANCH   4   8
ENDBRANCH   3   4
ENDBRANCH   1   3
BRANCH   1  19
ATOM     19  C   UNL     1       1.137   3.611   0.008  0.00  0.00    -0.042 C 
BRANCH  19  20
ATOM     20  C   UNL     1       2.531   3.685  -0.559  0.00  0.00    -0.064 A 
ATOM     21  C   UNL     1       3.382   2.601  -0.435  0.00  0.00    +0.002 A 
ATOM     22  C   UNL     1       4.660   2.661  -0.952  0.00  0.00    +0.013 A 
ATOM     23  C   UNL     1       5.093   3.818  -1.601  0.00  0.00    +0.037 A 
ATOM     24  C   UNL     1       4.229   4.908  -1.723  0.00  0.00    +0.013 A 
ATOM     25  C   UNL     1       2.954   4.835  -1.201  0.00  0.00    +0.002 A 
BRANCH  23  26
ATOM     26  C   UNL     1       6.461   3.890  -2.158  0.00  0.00    +0.244 C 
ATOM     27  O   UNL     1       7.211   2.940  -2.050  0.00  0.00    -0.270 OA
ATOM     28  N   UNL     1       6.876   5.009  -2.784  0.00  0.00    -0.308 N 
ATOM     29  H   UNL     1       6.197   5.869  -2.882  0.00  0.00    +0.149 HD
BRANCH  28  30
ATOM     30  C   UNL     1       8.232   5.080  -3.335  0.00  0.00    +0.073 C 
ATOM     31  C   UNL     1       9.023   6.368  -3.101  0.00  0.00    +0.024 C 
ATOM     32  C   UNL     1       8.473   6.051  -4.493  0.00  0.00    +0.024 C 
ENDBRANCH  28  30
ENDBRANCH  23  26
ENDBRANCH  19  20
ENDBRANCH   1  19
BRANCH   1  33
ATOM     33  C   UNL     1      -0.029   3.467   2.125  0.00  0.00    -0.002 C 
BRANCH  33  34
ATOM     34  C   UNL     1       0.093   1.981   2.340  0.00  0.00    +0.089 A 
ATOM     35  C   UNL     1       0.724   1.383   3.367  0.00  0.00    +0.042 A 
ATOM     36  C   UNL     1       0.593  -0.011   3.173  0.00  0.00    +0.041 A 
ATOM     37  C   UNL     1      -0.109  -0.182   2.038  0.00  0.00    +0.195 A 
ATOM     38  O   UNL     1      -0.414   1.028   1.541  0.00  0.00    -0.470 OA
ENDBRANCH  33  34
ENDBRANCH   1  33
TORSDOF 12
