REMARK  Name = ZINC16717778
REMARK  14 active torsions:
REMARK  status: ('A' for Active; 'I' for Inactive)
REMARK    1  A    between atoms: C_1  and  C_2
REMARK    2  A    between atoms: C_2  and  C_3
REMARK    3  A    between atoms: C_3  and  C_4
REMARK    4  A    between atoms: C_4  and  N_5
REMARK    5  A    between atoms: C_9  and  C_30
REMARK    6  A    between atoms: C_10  and  C_29
REMARK    7  A    between atoms: C_14  and  S_15
REMARK    8  A    between atoms: S_15  and  C_16
REMARK    9  A    between atoms: C_16  and  C_18
REMARK   10  A    between atoms: C_16  and  C_19
REMARK   11  A    between atoms: N_24  and  C_25
REMARK   12  A    between atoms: C_25  and  C_26
REMARK   13  A    between atoms: C_25  and  C_27
REMARK   14  A    between atoms: C_25  and  C_28
REMARK                            x       y       z     vdW  Elec       q    Type
REMARK                         _______ _______ _______ _____ _____    ______ ____
ROOT
ATOM      1  N   UNL     1      -6.378   1.157   1.071  0.00  0.00    -0.287 N 
ATOM      2  C   UNL     1      -7.414   0.299   1.112  0.00  0.00    +0.263 A 
ATOM      3  O   UNL     1      -8.513   0.676   1.479  0.00  0.00    -0.267 OA
ATOM      4  C   UNL     1      -7.206  -1.062   0.726  0.00  0.00    +0.075 A 
ATOM      5  C   UNL     1      -8.153  -2.163   0.691  0.00  0.00    -0.026 A 
ATOM      6  C   UNL     1      -7.737  -3.373   0.289  0.00  0.00    -0.008 A 
ATOM      7  S   UNL     1      -6.011  -3.116  -0.078  0.00  0.00    -0.073 S 
ATOM      8  C   UNL     1      -5.899  -1.391   0.319  0.00  0.00    +0.117 A 
ATOM      9  N   UNL     1      -4.922  -0.492   0.296  0.00  0.00    -0.216 NA
ATOM     10  C   UNL     1      -5.141   0.755   0.658  0.00  0.00    +0.173 A 
ATOM     11  C   UNL     1      -8.537  -4.645   0.175  0.00  0.00    +0.052 C 
ATOM     12  C   UNL     1      -9.587  -1.948   1.102  0.00  0.00    +0.045 C 
ENDROOT
BRANCH   1  13
ATOM     13  C   UNL     1      -6.583   2.551   1.473  0.00  0.00    +0.127 C 
BRANCH  13  14
ATOM     14  C   UNL     1      -6.998   3.377   0.254  0.00  0.00    +0.021 C 
BRANCH  14  16
ATOM     15  C   UNL     1      -7.628   5.659  -0.547  0.00  0.00    +0.004 C 
ATOM     16  C   UNL     1      -7.213   4.833   0.673  0.00  0.00    -0.002 C 
ENDBRANCH  14  16
ENDBRANCH  13  14
ENDBRANCH   1  13
BRANCH  10  17
ATOM     17  S   UNL     1      -3.818   1.918   0.614  0.00  0.00    -0.075 S 
BRANCH  17  18
ATOM     18  C   UNL     1      -2.482   0.853   0.018  0.00  0.00    +0.137 C 
ATOM     19  C   UNL     1      -2.799   0.384  -1.403  0.00  0.00    +0.029 C 
BRANCH  18  20
ATOM     20  C   UNL     1      -1.187   1.624   0.017  0.00  0.00    +0.233 C 
ATOM     21  O   UNL     1      -1.204   2.836   0.023  0.00  0.00    -0.274 OA
ATOM     22  N   UNL     1      -0.011   0.966   0.007  0.00  0.00    -0.239 N 
ATOM     23  C   UNL     1       1.147   1.655   0.000  0.00  0.00    +0.306 C 
ATOM     24  O   UNL     1       1.130   2.871   0.007  0.00  0.00    -0.252 OA
ATOM     25  N   UNL     1       2.323   0.998  -0.015  0.00  0.00    -0.294 N 
ATOM     26  H   UNL     1       0.002  -0.004   0.002  0.00  0.00    +0.159 HD
ATOM     27  H   UNL     1       2.336   0.028  -0.020  0.00  0.00    +0.151 HD
BRANCH  25  28
ATOM     28  C   UNL     1       3.582   1.747  -0.023  0.00  0.00    +0.028 C 
ATOM     29  C   UNL     1       3.663   2.621   1.230  0.00  0.00    +0.031 C 
ATOM     30  C   UNL     1       4.758   0.769  -0.039  0.00  0.00    +0.031 C 
ATOM     31  C   UNL     1       3.639   2.635  -1.268  0.00  0.00    +0.031 C 
ENDBRANCH  25  28
ENDBRANCH  18  20
ENDBRANCH  17  18
ENDBRANCH  10  17
TORSDOF 7
