REMARK  Name = ZINC09556730
REMARK  3 active torsions:
REMARK  status: ('A' for Active; 'I' for Inactive)
REMARK    1  A    between atoms: C_1  and  C_2
REMARK    2  A    between atoms: C_2  and  S_3
REMARK    3  A    between atoms: S_3  and  C_4
REMARK                            x       y       z     vdW  Elec       q    Type
REMARK                         _______ _______ _______ _____ _____    ______ ____
ROOT
ATOM      1  C   UNL     1      -0.632   5.439  -1.972  0.00  0.00    +0.212 A 
ATOM      2  N   UNL     1      -0.291   4.153  -1.965  0.00  0.00    -0.184 NA
ATOM      3  C   UNL     1      -0.958   3.312  -1.192  0.00  0.00    +0.248 A 
ATOM      4  C   UNL     1      -2.009   3.812  -0.392  0.00  0.00    +0.156 A 
ATOM      5  N   UNL     1      -2.299   5.104  -0.446  0.00  0.00    -0.141 NA
ATOM      6  N   UNL     1      -1.626   5.888  -1.216  0.00  0.00    -0.122 NA
ATOM      7  C   UNL     1      -2.761   2.892   0.487  0.00  0.00    +0.029 A 
ATOM      8  C   UNL     1      -4.150   2.904   0.533  0.00  0.00    +0.027 A 
ATOM      9  C   UNL     1      -4.815   2.050   1.392  0.00  0.00    +0.019 A 
ATOM     10  C   UNL     1      -4.106   1.183   2.208  0.00  0.00    +0.017 A 
ATOM     11  C   UNL     1      -2.724   1.158   2.167  0.00  0.00    +0.025 A 
ATOM     12  C   UNL     1      -2.045   2.002   1.308  0.00  0.00    +0.040 A 
ATOM     13  N   UNL     1      -0.648   1.991   1.230  0.00  0.00    -0.295 N 
ATOM     14  C   UNL     1      -0.018   1.495   0.010  0.00  0.00    +0.283 C 
ATOM     15  O   UNL     1      -0.657   1.992  -1.161  0.00  0.00    -0.437 OA
ATOM     16  C   UNL     1       0.002  -0.004   0.002  0.00  0.00    +0.048 A 
ATOM     17  C   UNL     1      -1.022  -0.927   0.006  0.00  0.00    +0.050 A 
ATOM     18  C   UNL     1      -0.659  -2.271  -0.006  0.00  0.00    +0.124 A 
ATOM     19  C   UNL     1       0.669  -2.657  -0.019  0.00  0.00    +0.040 A 
ATOM     20  C   UNL     1       1.701  -1.732  -0.022  0.00  0.00    +0.026 A 
ATOM     21  C   UNL     1       1.349  -0.381  -0.012  0.00  0.00    +0.043 A 
ATOM     22  N   UNL     1       2.162   0.739  -0.014  0.00  0.00    -0.280 N 
ATOM     23  C   UNL     1       1.448   1.883  -0.002  0.00  0.00    +0.285 C 
ATOM     24  O   UNL     1       1.894   3.011  -0.001  0.00  0.00    -0.269 OA
ATOM     25  F   UNL     1      -1.623  -3.218  -0.003  0.00  0.00    -0.205 F 
ATOM     26 BR   UNL     1      -6.705   2.065   1.455  0.00  0.00    -0.050 Br
ATOM     27  H   UNL     1      -0.109   2.307   1.972  0.00  0.00    +0.151 HD
ATOM     28  H   UNL     1       3.131   0.706  -0.022  0.00  0.00    +0.155 HD
ENDROOT
BRANCH   1  29
ATOM     29  S   UNL     1       0.252   6.564  -3.000  0.00  0.00    -0.085 S 
BRANCH  29  31
ATOM     30  C   UNL     1      -0.007   9.253  -3.405  0.00  0.00    +0.016 C 
ATOM     31  C   UNL     1      -0.618   8.101  -2.606  0.00  0.00    +0.074 C 
ENDBRANCH  29  31
ENDBRANCH   1  29
TORSDOF 2
