REMARK  Name = ZINC45741479
REMARK  7 active torsions:
REMARK  status: ('A' for Active; 'I' for Inactive)
REMARK    1  A    between atoms: C_1  and  C_2
REMARK    2  A    between atoms: C_2  and  C_3
REMARK    3  A    between atoms: C_3  and  S_4
REMARK    4  A    between atoms: S_4  and  N_7
REMARK    5  A    between atoms: C_10  and  N_13
REMARK    6  A    between atoms: N_16  and  C_17
REMARK    7  A    between atoms: N_16  and  C_18
REMARK                            x       y       z     vdW  Elec       q    Type
REMARK                         _______ _______ _______ _____ _____    ______ ____
ROOT
ATOM      1  N   UNL     1       1.586  -2.747   2.607  0.00  0.00    -0.181 NA
ATOM      2  C   UNL     1       3.045  -2.913   2.588  0.00  0.00    +0.111 C 
ATOM      3  C   UNL     1       3.392  -4.295   3.153  0.00  0.00    +0.039 C 
ATOM      4  C   UNL     1       2.759  -4.449   4.538  0.00  0.00    +0.077 C 
ATOM      5  C   UNL     1       1.237  -4.342   4.420  0.00  0.00    +0.039 C 
ATOM      6  C   UNL     1       0.867  -2.956   3.872  0.00  0.00    +0.111 C 
ENDROOT
BRANCH   4   7
ATOM      7  N   UNL     1       3.116  -5.756   5.095  0.00  0.00    -0.296 N 
ATOM      8  C   UNL     1       3.128  -5.939   6.430  0.00  0.00    +0.302 C 
ATOM      9  O   UNL     1       2.843  -5.020   7.172  0.00  0.00    -0.253 OA
ATOM     10  N   UNL     1       3.456  -7.142   6.942  0.00  0.00    -0.286 N 
ATOM     11  C   UNL     1       3.799  -8.251   6.047  0.00  0.00    +0.134 C 
ATOM     12  H   UNL     1       3.343  -6.490   4.502  0.00  0.00    +0.151 HD
BRANCH  10  13
ATOM     13  C   UNL     1       3.469  -7.342   8.393  0.00  0.00    +0.077 C 
ATOM     14  C   UNL     1       4.873  -7.755   8.838  0.00  0.00    +0.022 C 
ATOM     15  C   UNL     1       4.887  -7.963  10.354  0.00  0.00    +0.002 C 
ATOM     16  C   UNL     1       3.890  -9.062  10.727  0.00  0.00    +0.000 C 
ATOM     17  C   UNL     1       2.486  -8.648  10.282  0.00  0.00    +0.002 C 
ATOM     18  C   UNL     1       2.472  -8.440   8.766  0.00  0.00    +0.022 C 
ENDBRANCH  10  13
ENDBRANCH   4   7
BRANCH   1  19
ATOM     19  S   UNL     1       0.767  -2.325   1.232  0.00  0.00    +0.032 S 
ATOM     20  O   UNL     1      -0.547  -2.833   1.421  0.00  0.00    -0.158 OA
ATOM     21  O   UNL     1       1.580  -2.797   0.166  0.00  0.00    -0.158 OA
BRANCH  19  22
ATOM     22  C   UNL     1       0.742  -0.511   1.242  0.00  0.00    +0.185 C 
BRANCH  22  24
ATOM     23  C   UNL     1      -0.019   1.526   0.010  0.00  0.00    +0.005 C 
ATOM     24  C   UNL     1       0.002  -0.004   0.002  0.00  0.00    +0.021 C 
ENDBRANCH  22  24
ENDBRANCH  19  22
ENDBRANCH   1  19
TORSDOF 5
