REMARK  Name = ZINC13134291
REMARK  9 active torsions:
REMARK  status: ('A' for Active; 'I' for Inactive)
REMARK    1  A    between atoms: C_1  and  C_2
REMARK    2  A    between atoms: C_3  and  N_15
REMARK    3  A    between atoms: N_6  and  C_9
REMARK    4  A    between atoms: N_7  and  C_8
REMARK    5  A    between atoms: C_16  and  C_18
REMARK    6  A    between atoms: C_18  and  S_19
REMARK    7  A    between atoms: S_19  and  C_20
REMARK    8  A    between atoms: C_23  and  C_26
REMARK    9  A    between atoms: N_24  and  N_25
REMARK                            x       y       z     vdW  Elec       q    Type
REMARK                         _______ _______ _______ _____ _____    ______ ____
ROOT
ATOM      1  N   UNL     1      -0.859  -0.671   2.396  0.00  0.00    -0.279 N 
ATOM      2  C   UNL     1       0.054  -1.255   3.197  0.00  0.00    +0.228 C 
ATOM      3  O   UNL     1       0.704  -0.581   3.969  0.00  0.00    -0.275 OA
ATOM      4  H   UNL     1      -1.430  -1.217   1.834  0.00  0.00    +0.155 HD
ENDROOT
BRANCH   1   7
ATOM      5  C   UNL     1      -0.677   1.063  -0.129  0.00  0.00    +0.067 C 
ATOM      6  C   UNL     1      -0.909   1.528   1.286  0.00  0.00    +0.059 A 
ATOM      7  C   UNL     1      -0.983   0.732   2.376  0.00  0.00    +0.121 A 
ATOM      8  C   UNL     1      -1.215   1.600   3.531  0.00  0.00    +0.293 A 
ATOM      9  O   UNL     1      -1.338   1.247   4.690  0.00  0.00    -0.264 OA
ATOM     10  N   UNL     1      -1.266   2.866   3.067  0.00  0.00    -0.216 N 
ATOM     11  N   UNL     1      -1.073   2.829   1.682  0.00  0.00    -0.282 N 
ATOM     12  C   UNL     1      -1.053   3.996   0.796  0.00  0.00    +0.171 C 
BRANCH  10  13
ATOM     13  C   UNL     1      -1.472   4.015   3.838  0.00  0.00    +0.067 A 
ATOM     14  C   UNL     1      -0.739   4.213   5.001  0.00  0.00    +0.028 A 
ATOM     15  C   UNL     1      -0.939   5.352   5.756  0.00  0.00    +0.002 A 
ATOM     16  C   UNL     1      -1.877   6.289   5.361  0.00  0.00    +0.000 A 
ATOM     17  C   UNL     1      -2.613   6.091   4.207  0.00  0.00    +0.002 A 
ATOM     18  C   UNL     1      -2.413   4.958   3.444  0.00  0.00    +0.028 A 
ENDBRANCH  10  13
ENDBRANCH   1   7
BRANCH   2  19
ATOM     19  C   UNL     1       0.267  -2.746   3.135  0.00  0.00    +0.173 C 
BRANCH  19  20
ATOM     20  S   UNL     1       1.548  -3.222   4.322  0.00  0.00    -0.075 S 
BRANCH  20  21
ATOM     21  C   UNL     1       1.591  -4.962   4.044  0.00  0.00    +0.209 A 
ATOM     22  N   UNL     1       0.854  -5.632   3.187  0.00  0.00    -0.120 NA
ATOM     23  N   UNL     1       1.141  -6.884   3.241  0.00  0.00    -0.123 NA
ATOM     24  C   UNL     1       2.080  -7.091   4.138  0.00  0.00    +0.217 A 
ATOM     25  N   UNL     1       2.400  -5.864   4.676  0.00  0.00    -0.221 N 
BRANCH  24  26
ATOM     26  C   UNL     1       2.678  -8.386   4.495  0.00  0.00    +0.173 A 
ATOM     27  C   UNL     1       2.573  -9.541   3.779  0.00  0.00    +0.053 A 
ATOM     28  C   UNL     1       3.298 -10.522   4.483  0.00  0.00    +0.042 A 
ATOM     29  C   UNL     1       3.797  -9.929   5.586  0.00  0.00    +0.196 A 
ATOM     30  O   UNL     1       3.422  -8.640   5.590  0.00  0.00    -0.460 OA
ENDBRANCH  24  26
BRANCH  25  31
ATOM     31  N   UNL     1       3.331  -5.603   5.642  0.00  0.00    -0.294 N 
ATOM     32  H   UNL     1       2.922  -5.657   6.562  0.00  0.00    +0.163 HD
ATOM     33  H   UNL     1       4.121  -6.226   5.560  0.00  0.00    +0.163 HD
ENDBRANCH  25  31
ENDBRANCH  20  21
ENDBRANCH  19  20
ENDBRANCH   2  19
TORSDOF 7
