REMARK  Name = ZINC21560954
REMARK  7 active torsions:
REMARK  status: ('A' for Active; 'I' for Inactive)
REMARK    1  A    between atoms: C_1  and  C_2
REMARK    2  A    between atoms: N_11  and  C_15
REMARK    3  A    between atoms: C_15  and  C_16
REMARK    4  A    between atoms: N_18  and  C_19
REMARK    5  A    between atoms: C_19  and  C_20
REMARK    6  A    between atoms: C_20  and  C_21
REMARK    7  A    between atoms: C_21  and  N_22
REMARK                            x       y       z     vdW  Elec       q    Type
REMARK                         _______ _______ _______ _____ _____    ______ ____
ROOT
ATOM      1  C   UNL     1      -2.969   0.347   5.573  0.00  0.00    +0.231 C 
ATOM      2  O   UNL     1      -1.778   0.378   5.343  0.00  0.00    -0.274 OA
ATOM      3  N   UNL     1      -3.409   0.315   6.847  0.00  0.00    -0.314 N 
ATOM      4  H   UNL     1      -4.488   0.287   7.055  0.00  0.00    +0.149 HD
ENDROOT
BRANCH   1   5
ATOM      5  C   UNL     1      -3.956   0.343   4.435  0.00  0.00    +0.213 C 
BRANCH   5  15
ATOM      6  C   UNL     1      -0.002   1.056   2.507  0.00  0.00    +0.010 C 
ATOM      7  C   UNL     1      -0.730   1.580   1.267  0.00  0.00    +0.018 C 
ATOM      8  C   UNL     1      -0.013   1.086   0.008  0.00  0.00    +0.006 C 
ATOM      9  C   UNL     1      -0.753   1.593  -1.231  0.00  0.00    +0.000 C 
ATOM     10  C   UNL     1      -2.186   1.056  -1.227  0.00  0.00    +0.003 C 
ATOM     11  C   UNL     1      -2.911   1.550   0.027  0.00  0.00    +0.035 C 
ATOM     12  C   UNL     1      -2.167   1.069   1.268  0.00  0.00    +0.115 C 
ATOM     13  C   UNL     1      -2.885   1.517   2.521  0.00  0.00    +0.247 C 
ATOM     14  O   UNL     1      -3.102   2.655   2.875  0.00  0.00    -0.273 OA
ATOM     15  N   UNL     1      -3.233   0.381   3.161  0.00  0.00    -0.215 N 
ATOM     16  C   UNL     1      -2.836  -0.706   2.489  0.00  0.00    +0.310 C 
ATOM     17  O   UNL     1      -3.035  -1.844   2.866  0.00  0.00    -0.252 OA
ATOM     18  N   UNL     1      -2.191  -0.397   1.347  0.00  0.00    -0.285 N 
ATOM     19  H   UNL     1      -1.730  -0.998   0.550  0.00  0.00    +0.151 HD
ENDBRANCH   5  15
ENDBRANCH   1   5
BRANCH   3  20
ATOM     20  C   UNL     1      -2.449   0.319   7.953  0.00  0.00    +0.106 C 
BRANCH  20  21
ATOM     21  C   UNL     1      -3.204   0.279   9.284  0.00  0.00    +0.038 C 
BRANCH  21  22
ATOM     22  C   UNL     1      -2.201   0.282  10.439  0.00  0.00    +0.119 C 
BRANCH  22  23
ATOM     23  N   UNL     1      -2.924   0.244  11.713  0.00  0.00    -0.224 N 
ATOM     24  C   UNL     1      -3.273  -0.892  12.354  0.00  0.00    +0.246 C 
ATOM     25  O   UNL     1      -3.057  -2.031  12.001  0.00  0.00    -0.273 OA
ATOM     26  C   UNL     1      -3.988  -0.441  13.602  0.00  0.00    +0.113 C 
ATOM     27  C   UNL     1      -3.269  -0.943  14.861  0.00  0.00    +0.035 C 
ATOM     28  C   UNL     1      -4.420  -1.232  15.860  0.00  0.00    +0.003 C 
ATOM     29  C   UNL     1      -5.533  -1.805  14.946  0.00  0.00    +0.003 C 
ATOM     30  C   UNL     1      -5.421  -0.976  13.647  0.00  0.00    +0.035 C 
ATOM     31  N   UNL     1      -3.966   1.022  13.529  0.00  0.00    -0.285 N 
ATOM     32  C   UNL     1      -3.316   1.332  12.389  0.00  0.00    +0.309 C 
ATOM     33  O   UNL     1      -3.112   2.470  12.015  0.00  0.00    -0.252 OA
ATOM     34  H   UNL     1      -4.432   1.619  14.326  0.00  0.00    +0.151 HD
ENDBRANCH  22  23
ENDBRANCH  21  22
ENDBRANCH  20  21
ENDBRANCH   3  20
TORSDOF 6
