REMARK  Name = ZINC35043972
REMARK  13 active torsions:
REMARK  status: ('A' for Active; 'I' for Inactive)
REMARK    1  A    between atoms: C_1  and  C_2
REMARK    2  A    between atoms: C_2  and  C_4
REMARK    3  A    between atoms: C_2  and  N_23
REMARK    4  A    between atoms: N_14  and  C_15
REMARK    5  A    between atoms: C_18  and  O_21
REMARK    6  A    between atoms: O_21  and  C_22
REMARK    7  A    between atoms: N_23  and  C_24
REMARK    8  A    between atoms: C_24  and  C_25
REMARK    9  A    between atoms: C_25  and  C_26
REMARK   10  A    between atoms: C_26  and  C_27
REMARK   11  A    between atoms: C_26  and  C_28
REMARK   12  A    between atoms: N_31  and  C_32
REMARK   13  A    between atoms: C_35  and  N_38
REMARK                            x       y       z     vdW  Elec       q    Type
REMARK                         _______ _______ _______ _____ _____    ______ ____
ROOT
ATOM      1  C   UNL     1       0.296   1.497   0.428  0.00  0.00    +0.036 C 
ATOM      2  C   UNL     1       0.333  -0.031   0.375  0.00  0.00    +0.141 C 
ENDROOT
BRANCH   2   3
ATOM      3  C   UNL     1      -1.067  -0.573   0.504  0.00  0.00    +0.138 A 
ATOM      4  N   UNL     1      -1.994   0.217   0.953  0.00  0.00    -0.231 NA
ATOM      5  C   UNL     1      -3.277  -0.201   1.096  0.00  0.00    +0.078 A 
ATOM      6  C   UNL     1      -4.275   0.649   1.578  0.00  0.00    +0.028 A 
ATOM      7  C   UNL     1      -5.564   0.182   1.706  0.00  0.00    +0.002 A 
ATOM      8  C   UNL     1      -5.885  -1.124   1.363  0.00  0.00    +0.001 A 
ATOM      9  C   UNL     1      -4.919  -1.982   0.885  0.00  0.00    +0.015 A 
ATOM     10  C   UNL     1      -3.608  -1.530   0.747  0.00  0.00    +0.065 A 
ATOM     11  C   UNL     1      -2.535  -2.398   0.242  0.00  0.00    +0.266 A 
ATOM     12  O   UNL     1      -2.753  -3.553  -0.075  0.00  0.00    -0.267 OA
ATOM     13  N   UNL     1      -1.296  -1.864   0.140  0.00  0.00    -0.263 N 
BRANCH  13  14
ATOM     14  C   UNL     1      -0.238  -2.648  -0.341  0.00  0.00    +0.051 A 
ATOM     15  C   UNL     1       0.249  -3.700   0.423  0.00  0.00    +0.030 A 
ATOM     16  C   UNL     1       1.291  -4.472  -0.051  0.00  0.00    +0.047 A 
ATOM     17  C   UNL     1       1.851  -4.197  -1.290  0.00  0.00    +0.120 A 
ATOM     18  C   UNL     1       1.365  -3.145  -2.053  0.00  0.00    +0.047 A 
ATOM     19  C   UNL     1       0.319  -2.376  -1.583  0.00  0.00    +0.030 A 
BRANCH  17  20
ATOM     20  O   UNL     1       2.878  -4.957  -1.755  0.00  0.00    -0.495 OA
ATOM     21  C   UNL     1       3.406  -4.617  -3.039  0.00  0.00    +0.277 C 
ENDBRANCH  17  20
ENDBRANCH  13  14
ENDBRANCH   2   3
BRANCH   2  22
ATOM     22  N   UNL     1       1.157  -0.538   1.475  0.00  0.00    -0.276 N 
ATOM     23  C   UNL     1       2.313  -1.179   1.212  0.00  0.00    +0.307 C 
ATOM     24  O   UNL     1       2.673  -1.336   0.061  0.00  0.00    -0.252 OA
ATOM     25  N   UNL     1       3.071  -1.645   2.224  0.00  0.00    -0.269 N 
ATOM     26  H   UNL     1       2.746  -1.594   3.136  0.00  0.00    +0.156 HD
BRANCH  25  27
ATOM     27  C   UNL     1       4.327  -2.203   1.958  0.00  0.00    +0.035 A 
ATOM     28  C   UNL     1       5.104  -1.706   0.920  0.00  0.00    +0.025 A 
ATOM     29  C   UNL     1       6.343  -2.259   0.661  0.00  0.00    +0.034 A 
ATOM     30  C   UNL     1       6.810  -3.305   1.434  0.00  0.00    +0.126 A 
ATOM     31  C   UNL     1       6.038  -3.803   2.468  0.00  0.00    +0.034 A 
ATOM     32  C   UNL     1       4.801  -3.251   2.736  0.00  0.00    +0.025 A 
BRANCH  30  33
ATOM     33  N   UNL     1       8.138  -3.895   1.154  0.00  0.00    +0.056 N 
ATOM     34  O   UNL     1       8.813  -3.462   0.250  0.00  0.00    -0.126 OA
ATOM     35  O   UNL     1       8.548  -4.811   1.829  0.00  0.00    -0.126 OA
ENDBRANCH  30  33
ENDBRANCH  25  27
BRANCH  22  36
ATOM     36  C   UNL     1       0.724  -0.349   2.862  0.00  0.00    +0.110 C 
BRANCH  36  37
ATOM     37  C   UNL     1      -0.010  -1.602   3.342  0.00  0.00    +0.022 C 
BRANCH  37  38
ATOM     38  C   UNL     1      -0.552  -1.367   4.753  0.00  0.00    -0.016 C 
ATOM     39  C   UNL     1      -1.613  -0.266   4.715  0.00  0.00    +0.007 C 
ATOM     40  C   UNL     1      -1.176  -2.659   5.283  0.00  0.00    +0.007 C 
ENDBRANCH  37  38
ENDBRANCH  36  37
ENDBRANCH  22  36
ENDBRANCH   2  22
TORSDOF 9
