REMARK  Name = ZINC39667388
REMARK  6 active torsions:
REMARK  status: ('A' for Active; 'I' for Inactive)
REMARK    1  A    between atoms: C_1  and  S_2
REMARK    2  A    between atoms: S_2  and  C_3
REMARK    3  A    between atoms: C_6  and  C_9
REMARK    4  A    between atoms: C_9  and  N_10
REMARK    5  A    between atoms: C_11  and  C_13
REMARK    6  A    between atoms: C_24  and  C_26
REMARK                            x       y       z     vdW  Elec       q    Type
REMARK                         _______ _______ _______ _____ _____    ______ ____
ROOT
ATOM      1  C   UNL     1      -8.096  -2.573  -3.336  0.00  0.00    +0.100 C 
ATOM      2  C   UNL     1      -8.051  -1.113  -3.841  0.00  0.00    +0.121 C 
ATOM      3  N   UNL     1      -9.312  -0.940  -4.599  0.00  0.00    -0.296 N 
ATOM      4  C   UNL     1     -10.325  -1.673  -3.801  0.00  0.00    +0.115 C 
ATOM      5  C   UNL     1      -9.590  -2.936  -3.311  0.00  0.00    -0.004 C 
ATOM      6  C   UNL     1     -10.026  -3.281  -1.890  0.00  0.00    -0.010 C 
ATOM      7  C   UNL     1     -11.500  -3.695  -1.900  0.00  0.00    -0.082 C 
ATOM      8  N   UNL     1     -11.679  -4.854  -2.783  0.00  0.00    +0.379 N 
ATOM      9  C   UNL     1     -11.346  -4.487  -4.164  0.00  0.00    -0.082 C 
ATOM     10  C   UNL     1      -9.865  -4.106  -4.250  0.00  0.00    -0.010 C 
ATOM     11  C   UNL     1      -9.497  -0.269  -5.753  0.00  0.00    +0.248 C 
ATOM     12  O   UNL     1     -10.618  -0.137  -6.207  0.00  0.00    -0.270 OA
ATOM     13  H   UNL     1     -11.074  -5.603  -2.480  0.00  0.00    -0.086 HD
ATOM     14  H   UNL     1     -12.639  -5.163  -2.740  0.00  0.00    -0.086 HD
ENDROOT
BRANCH  11  15
ATOM     15  C   UNL     1      -8.346   0.304  -6.461  0.00  0.00    +0.052 A 
ATOM     16  C   UNL     1      -7.280   0.800  -5.781  0.00  0.00    +0.059 A 
ATOM     17  S   UNL     1      -6.214   1.343  -6.956  0.00  0.00    -0.096 S 
ATOM     18  C   UNL     1      -7.128   0.940  -8.419  0.00  0.00    +0.020 A 
ATOM     19  C   UNL     1      -8.308   0.352  -7.925  0.00  0.00    +0.001 A 
ATOM     20  C   UNL     1      -9.254  -0.087  -8.870  0.00  0.00    +0.010 A 
ATOM     21  C   UNL     1      -9.013   0.058 -10.214  0.00  0.00    +0.001 A 
ATOM     22  C   UNL     1      -7.839   0.636 -10.675  0.00  0.00    +0.001 A 
ATOM     23  C   UNL     1      -6.897   1.085  -9.770  0.00  0.00    +0.015 A 
ENDBRANCH  11  15
BRANCH   1  25
ATOM     24  N   UNL     1      -6.918  -3.809  -1.545  0.00  0.00    -0.311 N 
ATOM     25  C   UNL     1      -7.509  -2.667  -1.951  0.00  0.00    +0.218 C 
ATOM     26  O   UNL     1      -7.569  -1.716  -1.201  0.00  0.00    -0.275 OA
ATOM     27  H   UNL     1      -6.871  -4.570  -2.145  0.00  0.00    +0.149 HD
BRANCH  24  28
ATOM     28  C   UNL     1      -6.348  -3.901  -0.199  0.00  0.00    +0.139 C 
BRANCH  28  32
ATOM     29  C   UNL     1      -4.660  -7.785   0.372  0.00  0.00    +0.008 A 
ATOM     30  C   UNL     1      -3.880  -6.755  -0.141  0.00  0.00    +0.015 A 
ATOM     31  C   UNL     1      -4.429  -5.501  -0.324  0.00  0.00    +0.006 A 
ATOM     32  C   UNL     1      -5.753  -5.270   0.002  0.00  0.00    -0.030 A 
ATOM     33  C   UNL     1      -6.532  -6.293   0.513  0.00  0.00    +0.006 A 
ATOM     34  C   UNL     1      -5.991  -7.551   0.693  0.00  0.00    +0.015 A 
BRANCH  29  36
ATOM     35  C   UNL     1      -2.244  -9.202   0.059  0.00  0.00    +0.090 C 
ATOM     36  S   UNL     1      -3.963  -9.387   0.607  0.00  0.00    -0.129 S 
ENDBRANCH  29  36
ENDBRANCH  28  32
ENDBRANCH  24  28
ENDBRANCH   1  25
TORSDOF 5
