REMARK  Name = ZINC65753461
REMARK  6 active torsions:
REMARK  status: ('A' for Active; 'I' for Inactive)
REMARK    1  A    between atoms: C_1  and  C_2
REMARK    2  A    between atoms: C_2  and  C_3
REMARK    3  A    between atoms: C_2  and  C_4
REMARK    4  A    between atoms: C_4  and  C_5
REMARK    5  A    between atoms: C_4  and  N_15
REMARK    6  A    between atoms: N_18  and  C_19
REMARK                            x       y       z     vdW  Elec       q    Type
REMARK                         _______ _______ _______ _____ _____    ______ ____
ROOT
ATOM      1  N   UNL     1       0.735  -1.963  -1.261  0.00  0.00    -0.292 N 
ATOM      2  C   UNL     1       1.711  -2.627  -0.611  0.00  0.00    +0.304 C 
ATOM      3  O   UNL     1       2.577  -2.010  -0.021  0.00  0.00    -0.252 OA
ATOM      4  N   UNL     1       1.728  -3.974  -0.616  0.00  0.00    -0.269 N 
ATOM      5  H   UNL     1       0.044  -2.455  -1.731  0.00  0.00    +0.151 HD
ATOM      6  H   UNL     1       1.002  -4.467  -1.029  0.00  0.00    +0.156 HD
ENDROOT
BRANCH   4   7
ATOM      7  C   UNL     1       2.789  -4.660  -0.026  0.00  0.00    +0.036 A 
ATOM      8  C   UNL     1       3.390  -4.152   1.120  0.00  0.00    +0.024 A 
ATOM      9  C   UNL     1       4.442  -4.824   1.714  0.00  0.00    +0.015 A 
ATOM     10  C   UNL     1       4.902  -6.012   1.165  0.00  0.00    +0.049 A 
ATOM     11  C   UNL     1       4.294  -6.531   0.002  0.00  0.00    +0.051 A 
ATOM     12  C   UNL     1       3.238  -5.856  -0.584  0.00  0.00    +0.037 A 
ATOM     13  C   UNL     1       5.016  -7.784  -0.307  0.00  0.00    +0.251 C 
ATOM     14  O   UNL     1       4.786  -8.524  -1.241  0.00  0.00    -0.270 OA
ATOM     15  N   UNL     1       5.973  -7.965   0.622  0.00  0.00    -0.248 N 
ATOM     16  C   UNL     1       5.970  -6.965   1.522  0.00  0.00    +0.251 C 
ATOM     17  O   UNL     1       6.722  -6.864   2.471  0.00  0.00    -0.270 OA
ATOM     18  H   UNL     1       6.585  -8.717   0.639  0.00  0.00    +0.158 HD
ENDBRANCH   4   7
BRANCH   1  19
ATOM     19  C   UNL     1       0.717  -0.498  -1.256  0.00  0.00    +0.107 C 
BRANCH  19  20
ATOM     20  C   UNL     1      -0.022  -0.000  -2.471  0.00  0.00    -0.023 A 
ATOM     21  C   UNL     1      -1.171  -0.645  -2.892  0.00  0.00    +0.009 A 
ATOM     22  C   UNL     1      -1.850  -0.193  -4.007  0.00  0.00    +0.050 A 
ATOM     23  C   UNL     1      -1.382   0.910  -4.707  0.00  0.00    +0.162 A 
ATOM     24  C   UNL     1      -0.229   1.559  -4.282  0.00  0.00    +0.162 A 
ATOM     25  C   UNL     1       0.446   1.103  -3.160  0.00  0.00    +0.055 A 
ATOM     26  O   UNL     1       0.243   2.648  -4.949  0.00  0.00    -0.485 OA
ATOM     27  C   UNL     1      -0.251   2.853  -6.277  0.00  0.00    +0.270 C 
ATOM     28  C   UNL     1      -1.774   2.669  -6.257  0.00  0.00    +0.270 C 
ATOM     29  O   UNL     1      -2.060   1.341  -5.805  0.00  0.00    -0.485 OA
ENDBRANCH  19  20
BRANCH  19  31
ATOM     30  C   UNL     1      -0.007   1.529   0.014  0.00  0.00    +0.009 C 
ATOM     31  C   UNL     1       0.012  -0.001   0.008  0.00  0.00    +0.008 C 
ATOM     32  C   UNL     1      -1.424  -0.529   0.033  0.00  0.00    +0.009 C 
ENDBRANCH  19  31
ENDBRANCH   1  19
TORSDOF 4
