REMARK  Name = ZINC63256852
REMARK  10 active torsions:
REMARK  status: ('A' for Active; 'I' for Inactive)
REMARK    1  A    between atoms: C_1  and  C_2
REMARK    2  A    between atoms: C_7  and  N_8
REMARK    3  A    between atoms: C_9  and  C_29
REMARK    4  A    between atoms: C_12  and  S_13
REMARK    5  A    between atoms: S_13  and  C_14
REMARK    6  A    between atoms: C_14  and  C_15
REMARK    7  A    between atoms: N_17  and  C_18
REMARK    8  A    between atoms: C_21  and  O_27
REMARK    9  A    between atoms: C_23  and  N_24
REMARK   10  A    between atoms: O_27  and  C_28
REMARK                            x       y       z     vdW  Elec       q    Type
REMARK                         _______ _______ _______ _____ _____    ______ ____
ROOT
ATOM      1  N   UNL     1       0.018   0.055   2.411  0.00  0.00    -0.270 N 
ATOM      2  C   UNL     1      -1.082   0.467   3.146  0.00  0.00    +0.168 A 
ATOM      3  N   UNL     1      -0.618   1.092   4.218  0.00  0.00    -0.128 NA
ATOM      4  N   UNL     1       0.667   1.095   4.198  0.00  0.00    -0.122 NA
ATOM      5  C   UNL     1       1.108   0.469   3.118  0.00  0.00    +0.197 A 
ENDROOT
BRANCH   2   6
ATOM      6  C   UNL     1      -2.431   0.261   2.816  0.00  0.00    +0.025 C 
ATOM      7  C   UNL     1      -3.549   0.674   3.542  0.00  0.00    +0.006 A 
ATOM      8  C   UNL     1      -3.690   1.382   4.755  0.00  0.00    +0.010 A 
ATOM      9  C   UNL     1      -4.930   1.651   5.237  0.00  0.00    +0.001 A 
ATOM     10  C   UNL     1      -6.082   1.244   4.560  0.00  0.00    +0.002 A 
ATOM     11  C   UNL     1      -6.021   0.560   3.391  0.00  0.00    +0.026 A 
ATOM     12  C   UNL     1      -4.760   0.243   2.824  0.00  0.00    +0.043 A 
ATOM     13  N   UNL     1      -4.437  -0.400   1.719  0.00  0.00    -0.380 N 
ATOM     14  C   UNL     1      -2.977  -0.449   1.597  0.00  0.00    +0.152 C 
ATOM     15  H   UNL     1      -5.066  -0.778   1.085  0.00  0.00    +0.160 HD
ENDBRANCH   2   6
BRANCH   1  22
ATOM     16  C   UNL     1       0.000   1.552  -0.009  0.00  0.00    +0.046 C 
ATOM     17  C   UNL     1       0.003   0.045  -0.005  0.00  0.00    -0.026 A 
ATOM     18  C   UNL     1       0.002  -0.649  -1.199  0.00  0.00    +0.005 A 
ATOM     19  C   UNL     1       0.006  -2.032  -1.196  0.00  0.00    +0.000 A 
ATOM     20  C   UNL     1       0.009  -2.724   0.001  0.00  0.00    +0.002 A 
ATOM     21  C   UNL     1       0.010  -2.035   1.198  0.00  0.00    +0.026 A 
ATOM     22  C   UNL     1       0.012  -0.646   1.199  0.00  0.00    +0.053 A 
ENDBRANCH   1  22
BRANCH   5  23
ATOM     23  S   UNL     1       2.795   0.222   2.672  0.00  0.00    -0.076 S 
BRANCH  23  24
ATOM     24  C   UNL     1       3.724   1.006   4.019  0.00  0.00    +0.173 C 
BRANCH  24  25
ATOM     25  C   UNL     1       5.202   0.864   3.759  0.00  0.00    +0.228 C 
ATOM     26  O   UNL     1       5.590   0.290   2.763  0.00  0.00    -0.275 OA
ATOM     27  N   UNL     1       6.092   1.374   4.633  0.00  0.00    -0.283 N 
ATOM     28  H   UNL     1       5.783   1.888   5.395  0.00  0.00    +0.155 HD
BRANCH  27  29
ATOM     29  C   UNL     1       7.463   1.161   4.441  0.00  0.00    +0.064 A 
ATOM     30  C   UNL     1       7.987   1.122   3.155  0.00  0.00    +0.029 A 
ATOM     31  C   UNL     1       9.338   0.912   2.966  0.00  0.00    +0.047 A 
ATOM     32  C   UNL     1      10.173   0.741   4.060  0.00  0.00    +0.122 A 
ATOM     33  C   UNL     1       9.651   0.779   5.345  0.00  0.00    +0.080 A 
ATOM     34  C   UNL     1       8.300   0.995   5.535  0.00  0.00    +0.151 A 
BRANCH  34  35
ATOM     35  N   UNL     1       7.745   1.043   6.906  0.00  0.00    +0.058 N 
ATOM     36  O   UNL     1       8.485   0.997   7.861  0.00  0.00    -0.126 OA
ATOM     37  O   UNL     1       6.550   1.129   7.072  0.00  0.00    -0.126 OA
ENDBRANCH  34  35
BRANCH  32  38
ATOM     38  O   UNL     1      11.504   0.533   3.874  0.00  0.00    -0.495 OA
ATOM     39  C   UNL     1      11.973   0.505   2.524  0.00  0.00    +0.277 C 
ENDBRANCH  32  38
ENDBRANCH  27  29
ENDBRANCH  24  25
ENDBRANCH  23  24
ENDBRANCH   5  23
TORSDOF 8
