REMARK  Name = ZINC39688292
REMARK  6 active torsions:
REMARK  status: ('A' for Active; 'I' for Inactive)
REMARK    1  A    between atoms: C_9  and  C_12
REMARK    2  A    between atoms: C_16  and  C_25
REMARK    3  A    between atoms: N_27  and  C_28
REMARK    4  A    between atoms: C_28  and  C_29
REMARK    5  A    between atoms: C_29  and  O_30
REMARK    6  A    between atoms: O_30  and  C_31
REMARK                            x       y       z     vdW  Elec       q    Type
REMARK                         _______ _______ _______ _____ _____    ______ ____
ROOT
ATOM      1  C   UNL     1       5.032  -2.688   0.034  0.00  0.00    +0.260 C 
ATOM      2  O   UNL     1       5.911  -2.062   0.587  0.00  0.00    -0.271 OA
ATOM      3  N   UNL     1       5.250  -3.960  -0.354  0.00  0.00    -0.297 N 
ATOM      4  C   UNL     1       4.309  -4.874  -1.043  0.00  0.00    +0.121 C 
ATOM      5  C   UNL     1       5.183  -5.634  -2.066  0.00  0.00    +0.100 C 
ATOM      6  C   UNL     1       6.610  -5.558  -1.497  0.00  0.00    -0.004 C 
ATOM      7  C   UNL     1       6.489  -4.759  -0.192  0.00  0.00    +0.115 C 
ATOM      8  C   UNL     1       7.140  -6.960  -1.213  0.00  0.00    -0.010 C 
ATOM      9  C   UNL     1       8.581  -6.861  -0.703  0.00  0.00    -0.082 C 
ATOM     10  N   UNL     1       9.415  -6.196  -1.711  0.00  0.00    +0.379 N 
ATOM     11  C   UNL     1       8.954  -4.817  -1.911  0.00  0.00    -0.082 C 
ATOM     12  C   UNL     1       7.529  -4.829  -2.472  0.00  0.00    -0.010 C 
ATOM     13  H   UNL     1      10.374  -6.187  -1.399  0.00  0.00    -0.086 HD
ATOM     14  H   UNL     1       9.352  -6.700  -2.583  0.00  0.00    -0.086 HD
ENDROOT
BRANCH   1  23
ATOM     15  C   UNL     1       0.115   1.296   0.543  0.00  0.00    +0.004 A 
ATOM     16  C   UNL     1       1.295   2.013   0.465  0.00  0.00    +0.004 A 
ATOM     17  C   UNL     1       2.502   1.352   0.348  0.00  0.00    +0.049 A 
ATOM     18  C   UNL     1       2.534  -0.034   0.307  0.00  0.00    +0.163 A 
ATOM     19  C   UNL     1       1.349  -0.755   0.382  0.00  0.00    +0.162 A 
ATOM     20  C   UNL     1       0.140  -0.085   0.502  0.00  0.00    +0.049 A 
ATOM     21  O   UNL     1       1.356  -2.116   0.336  0.00  0.00    -0.484 OA
ATOM     22  C   UNL     1       2.609  -2.761   0.591  0.00  0.00    +0.283 C 
ATOM     23  C   UNL     1       3.694  -2.042  -0.221  0.00  0.00    +0.296 C 
ATOM     24  O   UNL     1       3.731  -0.672   0.195  0.00  0.00    -0.473 OA
ENDBRANCH   1  23
BRANCH   5  25
ATOM     25  C   UNL     1       4.735  -7.068  -2.176  0.00  0.00    +0.218 C 
ATOM     26  O   UNL     1       4.249  -7.627  -1.215  0.00  0.00    -0.275 OA
ATOM     27  N   UNL     1       4.874  -7.731  -3.341  0.00  0.00    -0.312 N 
ATOM     28  H   UNL     1       5.262  -7.284  -4.109  0.00  0.00    +0.149 HD
BRANCH  27  29
ATOM     29  C   UNL     1       4.438  -9.126  -3.447  0.00  0.00    +0.145 C 
BRANCH  29  30
ATOM     30  C   UNL     1       4.706  -9.637  -4.864  0.00  0.00    +0.247 C 
BRANCH  30  31
ATOM     31  O   UNL     1       6.115  -9.662  -5.103  0.00  0.00    -0.490 OA
BRANCH  31  32
ATOM     32  C   UNL     1       6.526 -10.095  -6.325  0.00  0.00    +0.121 A 
ATOM     33  C   UNL     1       5.592 -10.482  -7.275  0.00  0.00    +0.048 A 
ATOM     34  C   UNL     1       6.011 -10.921  -8.515  0.00  0.00    +0.042 A 
ATOM     35  C   UNL     1       7.363 -10.976  -8.811  0.00  0.00    +0.124 A 
ATOM     36  C   UNL     1       8.296 -10.591  -7.863  0.00  0.00    +0.042 A 
ATOM     37  C   UNL     1       7.879 -10.144  -6.624  0.00  0.00    +0.048 A 
ATOM     38  F   UNL     1       7.772 -11.406 -10.024  0.00  0.00    -0.205 F 
ENDBRANCH  31  32
ENDBRANCH  30  31
ENDBRANCH  29  30
ENDBRANCH  27  29
ENDBRANCH   5  25
TORSDOF 6
