REMARK  Name = ZINC12602573
REMARK  8 active torsions:
REMARK  status: ('A' for Active; 'I' for Inactive)
REMARK    1  A    between atoms: N_15  and  C_17
REMARK    2  A    between atoms: C_17  and  C_18
REMARK    3  A    between atoms: C_27  and  C_29
REMARK    4  A    between atoms: C_29  and  N_30
REMARK    5  A    between atoms: N_30  and  C_31
REMARK    6  A    between atoms: C_31  and  N_33
REMARK    7  A    between atoms: N_33  and  C_34
REMARK    8  A    between atoms: C_34  and  C_35
REMARK                            x       y       z     vdW  Elec       q    Type
REMARK                         _______ _______ _______ _____ _____    ______ ____
ROOT
ATOM      1  C   UNL     1       3.084   1.592   4.200  0.00  0.00    -0.011 C 
ATOM      2  C   UNL     1       1.863   0.693   3.995  0.00  0.00    -0.073 C 
ATOM      3  N   UNL     1       1.339   0.255   5.290  0.00  0.00    +0.383 N 
ATOM      4  C   UNL     1       0.908   1.406   6.088  0.00  0.00    -0.078 C 
ATOM      5  C   UNL     1       2.097   2.328   6.363  0.00  0.00    -0.015 C 
ATOM      6  C   UNL     1       3.350   1.735   5.705  0.00  0.00    -0.012 C 
ATOM      7  C   UNL     1       3.583   0.336   6.289  0.00  0.00    -0.010 C 
ATOM      8  C   UNL     1       2.343  -0.527   6.015  0.00  0.00    -0.051 C 
ATOM      9  H   UNL     1       0.534  -0.331   5.128  0.00  0.00    -0.081 HD
ENDROOT
BRANCH   1  10
ATOM     10  C   UNL     1       4.303   0.964   3.522  0.00  0.00    +0.086 C 
BRANCH  10  23
ATOM     11  C   UNL     1      -0.016   1.360   0.009  0.00  0.00    +0.007 A 
ATOM     12  C   UNL     1       1.199   2.053   0.002  0.00  0.00    +0.022 A 
ATOM     13  C   UNL     1       2.378   1.377  -0.045  0.00  0.00    +0.026 A 
ATOM     14  N   UNL     1       2.393   0.027  -0.140  0.00  0.00    -0.312 N 
ATOM     15  C   UNL     1       1.235  -0.670  -0.036  0.00  0.00    +0.251 A 
ATOM     16  O   UNL     1       1.267  -1.888   0.025  0.00  0.00    -0.268 OA
ATOM     17  C   UNL     1       0.002  -0.004   0.002  0.00  0.00    +0.070 A 
ATOM     18  C   UNL     1       3.608  -0.742  -0.411  0.00  0.00    +0.130 C 
ATOM     19  C   UNL     1       4.871   0.041  -0.093  0.00  0.00    +0.024 C 
ATOM     20  C   UNL     1       4.769   1.441  -0.706  0.00  0.00    +0.017 C 
ATOM     21  C   UNL     1       3.651   2.189   0.030  0.00  0.00    +0.050 C 
ATOM     22  C   UNL     1       4.045   2.293   1.513  0.00  0.00    +0.094 C 
ATOM     23  N   UNL     1       4.092   0.932   2.068  0.00  0.00    -0.301 NA
ATOM     24  C   UNL     1       5.114   0.137   1.406  0.00  0.00    +0.089 C 
ENDBRANCH  10  23
ENDBRANCH   1  10
BRANCH   8  25
ATOM     25  C   UNL     1       2.743  -1.742   5.174  0.00  0.00    +0.088 C 
BRANCH  25  26
ATOM     26  N   UNL     1       1.545  -2.509   4.823  0.00  0.00    -0.328 N 
ATOM     27  H   UNL     1       0.673  -2.211   5.125  0.00  0.00    +0.148 HD
BRANCH  26  28
ATOM     28  C   UNL     1       1.655  -3.628   4.080  0.00  0.00    +0.131 C 
ATOM     29  S   UNL     1       3.195  -4.154   3.548  0.00  0.00    -0.019 S 
BRANCH  28  30
ATOM     30  N   UNL     1       0.553  -4.333   3.757  0.00  0.00    -0.319 N 
ATOM     31  H   UNL     1      -0.319  -4.035   4.059  0.00  0.00    +0.148 HD
BRANCH  30  32
ATOM     32  C   UNL     1       0.673  -5.550   2.950  0.00  0.00    +0.177 C 
BRANCH  32  33
ATOM     33  C   UNL     1      -0.694  -6.144   2.731  0.00  0.00    +0.122 A 
ATOM     34  C   UNL     1      -1.518  -5.866   1.705  0.00  0.00    +0.046 A 
ATOM     35  C   UNL     1      -2.685  -6.641   1.895  0.00  0.00    +0.041 A 
ATOM     36  C   UNL     1      -2.505  -7.347   3.026  0.00  0.00    +0.195 A 
ATOM     37  O   UNL     1      -1.295  -7.046   3.525  0.00  0.00    -0.466 OA
ENDBRANCH  32  33
ENDBRANCH  30  32
ENDBRANCH  28  30
ENDBRANCH  26  28
ENDBRANCH  25  26
ENDBRANCH   8  25
TORSDOF 8
