REMARK  Name = ZINC40396170
REMARK  7 active torsions:
REMARK  status: ('A' for Active; 'I' for Inactive)
REMARK    1  A    between atoms: C_1  and  O_2
REMARK    2  A    between atoms: O_2  and  C_3
REMARK    3  A    between atoms: C_3  and  C_4
REMARK    4  A    between atoms: C_5  and  C_30
REMARK    5  A    between atoms: N_15  and  C_18
REMARK    6  A    between atoms: C_18  and  C_19
REMARK    7  A    between atoms: C_19  and  C_20
REMARK                            x       y       z     vdW  Elec       q    Type
REMARK                         _______ _______ _______ _____ _____    ______ ____
ROOT
ATOM      1  C   UNL     1      -1.156  -2.103   0.002  0.00  0.00    +0.099 A 
ATOM      2  C   UNL     1      -1.086  -2.908  -1.143  0.00  0.00    +0.053 A 
ATOM      3  C   UNL     1      -0.961  -4.231  -0.714  0.00  0.00    +0.186 A 
ATOM      4  N   UNL     1      -0.855  -5.396  -1.366  0.00  0.00    -0.128 NA
ATOM      5  N   UNL     1      -0.748  -6.521  -0.748  0.00  0.00    -0.140 NA
ATOM      6  C   UNL     1      -0.737  -6.576   0.590  0.00  0.00    +0.176 A 
ATOM      7  C   UNL     1      -0.845  -5.391   1.338  0.00  0.00    +0.102 A 
ATOM      8  N   UNL     1      -0.959  -4.200   0.661  0.00  0.00    -0.210 N 
ATOM      9  N   UNL     1      -1.075  -2.868   1.063  0.00  0.00    -0.166 NA
ATOM     10  C   UNL     1      -0.832  -5.463   2.738  0.00  0.00    +0.048 A 
ATOM     11  C   UNL     1      -0.717  -6.659   3.355  0.00  0.00    +0.091 A 
ATOM     12  N   UNL     1      -0.611  -7.824   2.662  0.00  0.00    -0.313 N 
ATOM     13  C   UNL     1      -0.616  -7.843   1.313  0.00  0.00    +0.281 A 
ATOM     14  O   UNL     1      -0.520  -8.896   0.707  0.00  0.00    -0.265 OA
ENDROOT
BRANCH   2  15
ATOM     15  C   UNL     1      -1.135  -2.442  -2.548  0.00  0.00    -0.012 A 
ATOM     16  C   UNL     1      -2.290  -1.836  -3.044  0.00  0.00    +0.010 A 
ATOM     17  C   UNL     1      -2.330  -1.404  -4.354  0.00  0.00    +0.020 A 
ATOM     18  C   UNL     1      -1.228  -1.571  -5.175  0.00  0.00    +0.041 A 
ATOM     19  C   UNL     1      -0.080  -2.171  -4.688  0.00  0.00    +0.020 A 
ATOM     20  C   UNL     1      -0.026  -2.602  -3.378  0.00  0.00    +0.010 A 
ATOM     21 CL   UNL     1      -1.287  -1.025  -6.822  0.00  0.00    -0.084 Cl
ENDBRANCH   2  15
BRANCH   1  22
ATOM     22  C   UNL     1      -1.295  -0.603   0.011  0.00  0.00    +0.217 C 
BRANCH  22  24
ATOM     23  C   UNL     1      -0.017   1.425   0.010  0.00  0.00    +0.194 C 
ATOM     24  O   UNL     1       0.002  -0.004   0.002  0.00  0.00    -0.377 OA
ENDBRANCH  22  24
ENDBRANCH   1  22
BRANCH  12  25
ATOM     25  C   UNL     1      -0.490  -9.086   3.397  0.00  0.00    +0.129 C 
BRANCH  25  26
ATOM     26  C   UNL     1      -1.883  -9.659   3.659  0.00  0.00    +0.059 C 
BRANCH  26  27
ATOM     27  C   UNL     1      -1.758 -10.957   4.415  0.00  0.00    -0.021 A 
ATOM     28  C   UNL     1      -1.734 -12.190   3.885  0.00  0.00    +0.087 A 
ATOM     29  N   UNL     1      -1.610 -13.123   4.878  0.00  0.00    -0.360 N 
ATOM     30  H   UNL     1      -1.570 -14.082   4.740  0.00  0.00    +0.165 HD
ATOM     31  C   UNL     1      -1.550 -12.497   6.103  0.00  0.00    +0.047 A 
ATOM     32  C   UNL     1      -1.634 -11.112   5.866  0.00  0.00    +0.003 A 
ATOM     33  C   UNL     1      -1.592 -10.218   6.937  0.00  0.00    +0.010 A 
ATOM     34  C   UNL     1      -1.466 -10.693   8.212  0.00  0.00    +0.001 A 
ATOM     35  C   UNL     1      -1.379 -12.057   8.451  0.00  0.00    +0.002 A 
ATOM     36  C   UNL     1      -1.427 -12.958   7.410  0.00  0.00    +0.026 A 
ENDBRANCH  26  27
ENDBRANCH  25  26
ENDBRANCH  12  25
TORSDOF 6
