REMARK  Name = ZINC12538136
REMARK  10 active torsions:
REMARK  status: ('A' for Active; 'I' for Inactive)
REMARK    1  A    between atoms: C_1  and  C_2
REMARK    2  A    between atoms: C_7  and  C_8
REMARK    3  A    between atoms: C_8  and  C_10
REMARK    4  A    between atoms: C_10  and  C_35
REMARK    5  A    between atoms: C_11  and  C_12
REMARK    6  A    between atoms: C_14  and  C_18
REMARK    7  A    between atoms: C_19  and  C_20
REMARK    8  A    between atoms: C_19  and  C_33
REMARK    9  A    between atoms: C_20  and  C_22
REMARK   10  A    between atoms: C_27  and  C_28
REMARK                            x       y       z     vdW  Elec       q    Type
REMARK                         _______ _______ _______ _____ _____    ______ ____
ROOT
ATOM      1  C   UNL     1       0.220   3.261   4.096  0.00  0.00    -0.023 A 
ATOM      2  C   UNL     1       0.504   3.832   5.340  0.00  0.00    +0.016 A 
ATOM      3  C   UNL     1       0.389   5.214   5.507  0.00  0.00    -0.023 A 
ATOM      4  C   UNL     1      -0.010   6.016   4.428  0.00  0.00    +0.008 A 
ATOM      5  C   UNL     1      -0.288   5.444   3.203  0.00  0.00    +0.001 A 
ATOM      6  C   UNL     1      -0.172   4.080   3.027  0.00  0.00    +0.008 A 
ENDROOT
BRANCH   1   8
ATOM      7  C   UNL     1       0.753   1.309   2.708  0.00  0.00    +0.100 C 
ATOM      8  C   UNL     1       0.337   1.810   3.908  0.00  0.00    +0.030 C 
BRANCH   7   9
ATOM      9  C   UNL     1       0.713  -0.143   2.463  0.00  0.00    +0.206 C 
ATOM     10  O   UNL     1       0.223  -0.887   3.293  0.00  0.00    -0.286 OA
BRANCH   9  17
ATOM     11  C   UNL     1      -0.807  -0.397  -0.241  0.00  0.00    +0.064 C 
ATOM     12  C   UNL     1       0.617  -0.815   0.021  0.00  0.00    +0.025 A 
ATOM     13  N   UNL     1       1.451  -1.361  -0.896  0.00  0.00    -0.358 N 
ATOM     14  H   UNL     1       1.215  -1.542  -1.820  0.00  0.00    +0.166 HD
ATOM     15  C   UNL     1       2.682  -1.626  -0.332  0.00  0.00    +0.047 A 
ATOM     16  C   UNL     1       2.624  -1.226   1.013  0.00  0.00    +0.011 A 
ATOM     17  C   UNL     1       1.264  -0.693   1.217  0.00  0.00    +0.051 A 
ATOM     18  C   UNL     1       3.737  -1.376   1.835  0.00  0.00    +0.011 A 
ATOM     19  C   UNL     1       4.895  -1.920   1.322  0.00  0.00    +0.001 A 
ATOM     20  C   UNL     1       4.954  -2.316  -0.006  0.00  0.00    +0.002 A 
ATOM     21  C   UNL     1       3.859  -2.173  -0.830  0.00  0.00    +0.026 A 
ENDBRANCH   9  17
ENDBRANCH   7   9
BRANCH   7  22
ATOM     22  C   UNL     1       1.228   2.194   1.688  0.00  0.00    +0.103 C 
ATOM     23  N   UNL     1       1.605   2.897   0.878  0.00  0.00    -0.191 NA
ENDBRANCH   7  22
ENDBRANCH   1   8
BRANCH   3  24
ATOM     24  C   UNL     1       0.684   5.825   6.808  0.00  0.00    +0.030 C 
ATOM     25  C   UNL     1       1.560   5.219   7.664  0.00  0.00    +0.100 C 
BRANCH  25  26
ATOM     26  C   UNL     1       1.732   5.739   9.032  0.00  0.00    +0.206 C 
ATOM     27  O   UNL     1       1.027   6.649   9.430  0.00  0.00    -0.286 OA
BRANCH  26  28
ATOM     28  C   UNL     1       2.753   5.161   9.914  0.00  0.00    +0.051 A 
ATOM     29  C   UNL     1       4.127   5.657  10.119  0.00  0.00    +0.011 A 
ATOM     30  C   UNL     1       4.717   4.783  11.046  0.00  0.00    +0.047 A 
ATOM     31  N   UNL     1       3.774   3.831  11.377  0.00  0.00    -0.358 N 
ATOM     32  H   UNL     1       3.918   3.103  12.001  0.00  0.00    +0.166 HD
ATOM     33  C   UNL     1       2.617   4.061  10.712  0.00  0.00    +0.025 A 
ATOM     34  C   UNL     1       1.368   3.225  10.830  0.00  0.00    +0.064 C 
ATOM     35  C   UNL     1       6.032   4.997  11.444  0.00  0.00    +0.026 A 
ATOM     36  C   UNL     1       6.742   6.060  10.928  0.00  0.00    +0.002 A 
ATOM     37  C   UNL     1       6.157   6.923  10.013  0.00  0.00    +0.001 A 
ATOM     38  C   UNL     1       4.855   6.726   9.606  0.00  0.00    +0.011 A 
ENDBRANCH  26  28
ENDBRANCH  25  26
BRANCH  25  39
ATOM     39  C   UNL     1       2.311   4.079   7.232  0.00  0.00    +0.103 C 
ATOM     40  N   UNL     1       2.906   3.175   6.889  0.00  0.00    -0.191 NA
ENDBRANCH  25  39
ENDBRANCH   3  24
TORSDOF 8
