REMARK  Name = ZINC17304433
REMARK  2 active torsions:
REMARK  status: ('A' for Active; 'I' for Inactive)
REMARK    1  A    between atoms: C_4  and  N_7
REMARK    2  A    between atoms: C_13  and  C_20
REMARK                            x       y       z     vdW  Elec       q    Type
REMARK                         _______ _______ _______ _____ _____    ______ ____
ROOT
ATOM      1  N   UNL     1      11.741   0.580  -0.110  0.00  0.00    -0.229 N 
ATOM      2  C   UNL     1      11.078   1.641   0.398  0.00  0.00    +0.269 A 
ATOM      3  O   UNL     1      11.681   2.600   0.841  0.00  0.00    -0.266 OA
ATOM      4  C   UNL     1       9.602   1.608   0.401  0.00  0.00    +0.063 A 
ATOM      5  C   UNL     1       8.850   2.666   0.907  0.00  0.00    +0.016 A 
ATOM      6  C   UNL     1       7.484   2.597   0.892  0.00  0.00    +0.014 A 
ATOM      7  C   UNL     1       6.838   1.473   0.371  0.00  0.00    +0.039 A 
ATOM      8  C   UNL     1       7.579   0.406  -0.134  0.00  0.00    +0.039 A 
ATOM      9  C   UNL     1       8.963   0.472  -0.125  0.00  0.00    +0.056 A 
ATOM     10  N   UNL     1       9.742  -0.563  -0.622  0.00  0.00    -0.307 N 
ATOM     11  H   UNL     1       9.315  -1.353  -0.988  0.00  0.00    +0.170 HD
ATOM     12  C   UNL     1      11.084  -0.482  -0.601  0.00  0.00    +0.334 A 
ATOM     13  O   UNL     1      11.730  -1.411  -1.047  0.00  0.00    -0.246 OA
ENDROOT
BRANCH   7  14
ATOM     14  C   UNL     1       5.359   1.412   0.360  0.00  0.00    +0.250 C 
ATOM     15  O   UNL     1       4.794   0.435  -0.092  0.00  0.00    -0.270 OA
ATOM     16  N   UNL     1       4.639   2.439   0.853  0.00  0.00    -0.252 N 
ATOM     17  C   UNL     1       3.257   2.382   0.843  0.00  0.00    +0.201 A 
ATOM     18  N   UNL     1       2.518   1.340   0.362  0.00  0.00    -0.326 N 
ATOM     19  H   UNL     1       2.874   0.496  -0.039  0.00  0.00    +0.169 HD
ATOM     20  C   UNL     1       1.184   1.669   0.533  0.00  0.00    +0.067 A 
ATOM     21  C   UNL     1      -0.010   1.024   0.244  0.00  0.00    +0.028 A 
ATOM     22  C   UNL     1      -1.209   1.637   0.541  0.00  0.00    +0.002 A 
ATOM     23  C   UNL     1      -1.230   2.890   1.138  0.00  0.00    +0.002 A 
ATOM     24  C   UNL     1      -0.055   3.544   1.430  0.00  0.00    +0.030 A 
ATOM     25  C   UNL     1       1.169   2.940   1.131  0.00  0.00    +0.091 A 
ATOM     26  N   UNL     1       2.462   3.320   1.294  0.00  0.00    -0.214 NA
ATOM     27  H   UNL     1       5.090   3.218   1.214  0.00  0.00    +0.158 HD
ENDBRANCH   7  14
BRANCH   1  31
ATOM     28  C   UNL     1      15.909   0.605  -0.153  0.00  0.00    +0.000 A 
ATOM     29  C   UNL     1      15.205   1.113  -1.229  0.00  0.00    +0.002 A 
ATOM     30  C   UNL     1      13.824   1.106  -1.218  0.00  0.00    +0.026 A 
ATOM     31  C   UNL     1      13.142   0.588  -0.125  0.00  0.00    +0.054 A 
ATOM     32  C   UNL     1      13.852   0.083   0.957  0.00  0.00    +0.026 A 
ATOM     33  C   UNL     1      15.233   0.088   0.937  0.00  0.00    +0.002 A 
ENDBRANCH   1  31
TORSDOF 2
