REMARK  Name = ZINC63363065
REMARK  4 active torsions:
REMARK  status: ('A' for Active; 'I' for Inactive)
REMARK    1  A    between atoms: C_1  and  O_2
REMARK    2  A    between atoms: O_2  and  C_3
REMARK    3  A    between atoms: C_10  and  C_18
REMARK    4  A    between atoms: N_24  and  C_27
REMARK                            x       y       z     vdW  Elec       q    Type
REMARK                         _______ _______ _______ _____ _____    ______ ____
ROOT
ATOM      1  C   UNL     1      -6.367  -5.149  -0.849  0.00  0.00    +0.101 A 
ATOM      2  C   UNL     1      -6.845  -5.885   0.251  0.00  0.00    +0.263 A 
ATOM      3  N   UNL     1      -8.170  -6.092   0.387  0.00  0.00    -0.274 N 
ATOM      4  H   UNL     1      -8.503  -6.598   1.145  0.00  0.00    +0.173 HD
ATOM      5  C   UNL     1      -9.035  -5.601  -0.519  0.00  0.00    +0.337 A 
ATOM      6  O   UNL     1     -10.226  -5.798  -0.378  0.00  0.00    -0.246 OA
ATOM      7  N   UNL     1      -8.601  -4.895  -1.579  0.00  0.00    -0.228 N 
ATOM      8  C   UNL     1      -7.259  -4.656  -1.754  0.00  0.00    +0.270 A 
ATOM      9  O   UNL     1      -6.827  -3.943  -2.816  0.00  0.00    -0.267 OA
ATOM     10  O   UNL     1      -6.067  -6.332   1.075  0.00  0.00    -0.267 OA
ENDROOT
BRANCH   1  17
ATOM     11  C   UNL     1      -1.200  -0.637   0.010  0.00  0.00    +0.121 A 
ATOM     12  C   UNL     1      -2.375   0.136   0.020  0.00  0.00    +0.047 A 
ATOM     13  C   UNL     1      -3.606  -0.417   0.033  0.00  0.00    +0.029 A 
ATOM     14  C   UNL     1      -3.753  -1.875   0.037  0.00  0.00    +0.043 A 
ATOM     15  N   UNL     1      -4.814  -2.649   0.026  0.00  0.00    -0.376 N 
ATOM     16  C   UNL     1      -4.374  -4.036   0.129  0.00  0.00    +0.128 C 
ATOM     17  C   UNL     1      -4.890  -4.905  -1.021  0.00  0.00    +0.121 C 
ATOM     18  N   UNL     1      -4.169  -6.187  -0.992  0.00  0.00    -0.307 NA
ATOM     19  C   UNL     1      -2.743  -6.055  -1.306  0.00  0.00    +0.086 C 
ATOM     20  C   UNL     1      -2.035  -5.237  -0.210  0.00  0.00    +0.048 C 
ATOM     21  C   UNL     1      -2.859  -3.987   0.008  0.00  0.00    -0.035 C 
ATOM     22  C   UNL     1      -2.514  -2.694   0.017  0.00  0.00    +0.003 A 
ATOM     23  C   UNL     1      -1.226  -1.991   0.003  0.00  0.00    +0.055 A 
ATOM     24  H   UNL     1      -4.303  -6.658  -0.110  0.00  0.00    +0.123 HD
ATOM     25  H   UNL     1      -5.734  -2.349  -0.039  0.00  0.00    +0.160 HD
BRANCH  11  27
ATOM     26  C   UNL     1      -0.017   1.425   0.010  0.00  0.00    +0.277 C 
ATOM     27  O   UNL     1       0.002  -0.004   0.002  0.00  0.00    -0.495 OA
ENDBRANCH  11  27
ENDBRANCH   1  17
BRANCH   7  28
ATOM     28  C   UNL     1      -9.522  -4.396  -2.506  0.00  0.00    +0.062 A 
ATOM     29  C   UNL     1     -10.067  -3.142  -2.339  0.00  0.00    +0.027 A 
ATOM     30  C   UNL     1     -10.984  -2.636  -3.255  0.00  0.00    +0.003 A 
ATOM     31  C   UNL     1     -11.367  -3.364  -4.340  0.00  0.00    +0.008 A 
ATOM     32  C   UNL     1     -10.834  -4.648  -4.548  0.00  0.00    -0.016 A 
ATOM     33  C   UNL     1      -9.896  -5.171  -3.624  0.00  0.00    +0.006 A 
ATOM     34  C   UNL     1      -9.361  -6.451  -3.836  0.00  0.00    +0.010 A 
ATOM     35  C   UNL     1      -9.745  -7.171  -4.926  0.00  0.00    +0.001 A 
ATOM     36  C   UNL     1     -10.664  -6.655  -5.838  0.00  0.00    +0.001 A 
ATOM     37  C   UNL     1     -11.212  -5.422  -5.659  0.00  0.00    +0.008 A 
ENDBRANCH   7  28
TORSDOF 3
