REMARK  Name = ZINC33851450
REMARK  9 active torsions:
REMARK  status: ('A' for Active; 'I' for Inactive)
REMARK    1  A    between atoms: C_1  and  C_2
REMARK    2  A    between atoms: C_2  and  C_3
REMARK    3  A    between atoms: C_3  and  C_4
REMARK    4  A    between atoms: C_4  and  C_5
REMARK    5  A    between atoms: C_5  and  C_6
REMARK    6  A    between atoms: C_9  and  C_12
REMARK    7  A    between atoms: C_21  and  C_25
REMARK    8  A    between atoms: N_27  and  C_28
REMARK    9  A    between atoms: C_28  and  C_29
REMARK                            x       y       z     vdW  Elec       q    Type
REMARK                         _______ _______ _______ _____ _____    ______ ____
ROOT
ATOM      1  C   UNL     1       1.533  -8.275  -2.556  0.00  0.00    +0.247 C 
ATOM      2  O   UNL     1       2.504  -8.872  -2.134  0.00  0.00    -0.270 OA
ATOM      3  N   UNL     1       0.482  -8.960  -3.048  0.00  0.00    -0.298 N 
ATOM      4  C   UNL     1      -0.639  -8.255  -3.684  0.00  0.00    +0.107 C 
ATOM      5  C   UNL     1      -0.856  -8.839  -5.084  0.00  0.00    +0.017 C 
ATOM      6  C   UNL     1      -1.014 -10.350  -4.986  0.00  0.00    -0.016 C 
ATOM      7  C   UNL     1       0.214 -10.998  -4.363  0.00  0.00    +0.017 C 
ATOM      8  C   UNL     1       0.441 -10.427  -2.964  0.00  0.00    +0.107 C 
ATOM      9  N   UNL     1      -2.236 -10.709  -4.249  0.00  0.00    +0.397 N 
ATOM     10  C   UNL     1      -3.180 -11.573  -4.965  0.00  0.00    +0.028 C 
ATOM     11  C   UNL     1      -3.122 -11.306  -6.499  0.00  0.00    +0.061 C 
ATOM     12  S   UNL     1      -1.296 -11.050  -6.662  0.00  0.00    -0.174 S 
ATOM     13  H   UNL     1      -1.965 -11.177  -3.397  0.00  0.00    -0.083 HD
ATOM     14  H   UNL     1      -2.716  -9.857  -3.999  0.00  0.00    -0.083 HD
ENDROOT
BRANCH   1  18
ATOM     15  C   UNL     1       1.452  -4.029  -2.482  0.00  0.00    -0.047 A 
ATOM     16  C   UNL     1       2.611  -4.689  -2.850  0.00  0.00    +0.004 A 
ATOM     17  C   UNL     1       2.644  -6.068  -2.876  0.00  0.00    +0.013 A 
ATOM     18  C   UNL     1       1.505  -6.797  -2.530  0.00  0.00    +0.037 A 
ATOM     19  C   UNL     1       0.339  -6.124  -2.160  0.00  0.00    +0.013 A 
ATOM     20  C   UNL     1       0.321  -4.745  -2.133  0.00  0.00    +0.004 A 
BRANCH  15  21
ATOM     21  C   UNL     1       1.423  -2.522  -2.457  0.00  0.00    +0.035 C 
BRANCH  21  22
ATOM     22  C   UNL     1       1.848  -2.028  -1.072  0.00  0.00    +0.005 C 
BRANCH  22  23
ATOM     23  C   UNL     1       1.819  -0.498  -1.046  0.00  0.00    +0.000 C 
BRANCH  23  25
ATOM     24  C   UNL     1       2.214   1.526   0.365  0.00  0.00    +0.004 C 
ATOM     25  C   UNL     1       2.243  -0.004   0.338  0.00  0.00    -0.003 C 
ENDBRANCH  23  25
ENDBRANCH  22  23
ENDBRANCH  21  22
ENDBRANCH  15  21
ENDBRANCH   1  18
BRANCH  10  26
ATOM     26  C   UNL     1      -4.577 -11.301  -4.469  0.00  0.00    +0.200 C 
ATOM     27  O   UNL     1      -4.762 -10.470  -3.606  0.00  0.00    -0.278 OA
ATOM     28  N   UNL     1      -5.620 -11.981  -4.985  0.00  0.00    -0.313 N 
ATOM     29  H   UNL     1      -5.471 -12.646  -5.676  0.00  0.00    +0.149 HD
BRANCH  28  30
ATOM     30  C   UNL     1      -6.978 -11.716  -4.503  0.00  0.00    +0.139 C 
BRANCH  30  31
ATOM     31  C   UNL     1      -7.952 -12.601  -5.235  0.00  0.00    -0.027 A 
ATOM     32  C   UNL     1      -8.529 -12.166  -6.414  0.00  0.00    +0.009 A 
ATOM     33  C   UNL     1      -9.423 -12.974  -7.090  0.00  0.00    +0.050 A 
ATOM     34  C   UNL     1      -9.745 -14.224  -6.587  0.00  0.00    +0.166 A 
ATOM     35  C   UNL     1      -9.165 -14.663  -5.400  0.00  0.00    +0.167 A 
ATOM     36  C   UNL     1      -8.265 -13.850  -4.730  0.00  0.00    +0.054 A 
ATOM     37  O   UNL     1      -9.638 -15.912  -5.118  0.00  0.00    -0.453 OA
ATOM     38  C   UNL     1     -10.820 -16.066  -5.926  0.00  0.00    +0.466 C 
ATOM     39  O   UNL     1     -10.582 -15.198  -7.050  0.00  0.00    -0.453 OA
ENDBRANCH  30  31
ENDBRANCH  28  30
ENDBRANCH  10  26
TORSDOF 8
