REMARK  Name = ZINC13189883
REMARK  8 active torsions:
REMARK  status: ('A' for Active; 'I' for Inactive)
REMARK    1  A    between atoms: C_3  and  C_28
REMARK    2  A    between atoms: C_5  and  N_7
REMARK    3  A    between atoms: N_7  and  S_8
REMARK    4  A    between atoms: S_8  and  C_11
REMARK    5  A    between atoms: C_14  and  N_20
REMARK    6  A    between atoms: C_15  and  N_17
REMARK    7  A    between atoms: N_20  and  C_21
REMARK    8  A    between atoms: C_21  and  C_22
REMARK                            x       y       z     vdW  Elec       q    Type
REMARK                         _______ _______ _______ _____ _____    ______ ____
ROOT
ATOM      1  C   UNL     1       4.454   7.323  -1.826  0.00  0.00    +0.111 A 
ATOM      2  C   UNL     1       3.176   6.907  -2.155  0.00  0.00    +0.031 A 
ATOM      3  C   UNL     1       2.786   5.607  -1.903  0.00  0.00    +0.027 A 
ATOM      4  C   UNL     1       3.677   4.716  -1.318  0.00  0.00    +0.058 A 
ATOM      5  C   UNL     1       4.957   5.139  -0.984  0.00  0.00    +0.149 A 
ATOM      6  C   UNL     1       5.344   6.439  -1.244  0.00  0.00    +0.063 A 
ENDROOT
BRANCH   1   7
ATOM      7  S   UNL     1       4.948   8.983  -2.151  0.00  0.00    +0.072 S 
ATOM      8  O   UNL     1       6.366   8.972  -2.251  0.00  0.00    -0.150 OA
ATOM      9  O   UNL     1       4.114   9.458  -3.198  0.00  0.00    -0.150 OA
BRANCH   7  10
ATOM     10  N   UNL     1       4.576   9.876  -0.807  0.00  0.00    -0.216 N 
ATOM     11  H   UNL     1       3.908  10.577  -0.860  0.00  0.00    +0.174 HD
BRANCH  10  16
ATOM     12  C   UNL     1       7.249   9.181   1.624  0.00  0.00    +0.003 A 
ATOM     13  C   UNL     1       6.532   9.111   2.801  0.00  0.00    +0.015 A 
ATOM     14  C   UNL     1       5.148   9.297   2.787  0.00  0.00    +0.065 A 
ATOM     15  C   UNL     1       4.495   9.557   1.581  0.00  0.00    +0.039 A 
ATOM     16  C   UNL     1       5.225   9.620   0.404  0.00  0.00    +0.049 A 
ATOM     17  C   UNL     1       6.602   9.434   0.429  0.00  0.00    +0.024 A 
BRANCH  14  18
ATOM     18  C   UNL     1       4.377   9.223   4.046  0.00  0.00    +0.387 C 
ATOM     19  O   UNL     1       3.174   9.384   4.031  0.00  0.00    -0.241 OA
ATOM     20  O   UNL     1       5.010   8.976   5.209  0.00  0.00    -0.241 OA
ENDBRANCH  14  18
ENDBRANCH  10  16
ENDBRANCH   7  10
ENDBRANCH   1   7
BRANCH   5  21
ATOM     21  N   UNL     1       5.909   4.196  -0.355  0.00  0.00    +0.058 N 
ATOM     22  O   UNL     1       5.511   3.383   0.460  0.00  0.00    -0.126 OA
ATOM     23  O   UNL     1       7.089   4.232  -0.653  0.00  0.00    -0.126 OA
ENDBRANCH   5  21
BRANCH   4  24
ATOM     24  N   UNL     1       3.285   3.401  -1.061  0.00  0.00    -0.340 N 
ATOM     25  H   UNL     1       3.933   2.757  -0.733  0.00  0.00    +0.146 HD
BRANCH  24  26
ATOM     26  C   UNL     1       1.897   2.992  -1.289  0.00  0.00    +0.133 C 
BRANCH  26  27
ATOM     27  C   UNL     1       1.736   1.513  -0.933  0.00  0.00    +0.135 C 
ATOM     28  C   UNL     1       0.274   1.052  -1.164  0.00  0.00    +0.035 C 
ATOM     29  C   UNL     1       0.445  -0.471  -1.382  0.00  0.00    +0.031 C 
ATOM     30  C   UNL     1       1.923  -0.631  -1.788  0.00  0.00    +0.160 C 
ATOM     31  O   UNL     1       2.497   0.686  -1.839  0.00  0.00    -0.375 OA
ENDBRANCH  26  27
ENDBRANCH  24  26
ENDBRANCH   4  24
TORSDOF 8
