REMARK  Name = ZINC51048379
REMARK  6 active torsions:
REMARK  status: ('A' for Active; 'I' for Inactive)
REMARK    1  A    between atoms: C_1  and  C_2
REMARK    2  A    between atoms: C_2  and  C_4
REMARK    3  A    between atoms: C_2  and  N_17
REMARK    4  A    between atoms: N_6  and  C_7
REMARK    5  A    between atoms: C_21  and  C_24
REMARK    6  A    between atoms: N_26  and  C_27
REMARK                            x       y       z     vdW  Elec       q    Type
REMARK                         _______ _______ _______ _____ _____    ______ ____
ROOT
ATOM      1  C   UNL     1      -0.695   1.311  -0.352  0.00  0.00    -0.004 C 
ATOM      2  C   UNL     1       0.002  -0.004   0.002  0.00  0.00    +0.016 C 
ENDROOT
BRANCH   2   3
ATOM      3  N   UNL     1      -0.978  -0.940   0.569  0.00  0.00    +0.388 N 
ATOM      4  C   UNL     1      -1.596  -0.340   1.757  0.00  0.00    -0.078 C 
ATOM      5  C   UNL     1      -2.675  -1.277   2.304  0.00  0.00    -0.018 C 
ATOM      6  C   UNL     1      -2.037  -2.617   2.680  0.00  0.00    +0.009 C 
ATOM      7  C   UNL     1      -1.332  -3.199   1.452  0.00  0.00    +0.058 C 
ATOM      8  C   UNL     1      -0.302  -2.191   0.936  0.00  0.00    -0.065 C 
ATOM      9  H   UNL     1      -1.692  -1.134  -0.117  0.00  0.00    -0.081 HD
BRANCH   7  10
ATOM     10  C   UNL     1      -0.636  -4.481   1.830  0.00  0.00    +0.215 C 
ATOM     11  O   UNL     1       0.565  -4.581   1.697  0.00  0.00    -0.276 OA
ATOM     12  N   UNL     1      -1.349  -5.516   2.316  0.00  0.00    -0.312 N 
ATOM     13  H   UNL     1      -2.310  -5.436   2.422  0.00  0.00    +0.149 HD
BRANCH  12  14
ATOM     14  C   UNL     1      -0.673  -6.762   2.684  0.00  0.00    +0.073 C 
ATOM     15  C   UNL     1      -1.331  -8.076   2.259  0.00  0.00    +0.024 C 
ATOM     16  C   UNL     1      -1.350  -7.652   3.729  0.00  0.00    +0.024 C 
ENDBRANCH  12  14
ENDBRANCH   7  10
ENDBRANCH   2   3
BRANCH   2  17
ATOM     17  C   UNL     1       0.608  -0.602  -1.242  0.00  0.00    +0.200 C 
ATOM     18  O   UNL     1      -0.024  -1.402  -1.899  0.00  0.00    -0.278 OA
ATOM     19  N   UNL     1       1.851  -0.248  -1.623  0.00  0.00    -0.311 N 
ATOM     20  H   UNL     1       2.356   0.391  -1.097  0.00  0.00    +0.149 HD
BRANCH  19  21
ATOM     21  C   UNL     1       2.439  -0.830  -2.832  0.00  0.00    +0.035 C 
ATOM     22  C   UNL     1       1.569  -0.482  -4.041  0.00  0.00    +0.029 C 
ATOM     23  C   UNL     1       2.183  -1.089  -5.304  0.00  0.00    -0.008 C 
ATOM     24  C   UNL     1       3.590  -0.524  -5.509  0.00  0.00    +0.007 C 
ATOM     25  C   UNL     1       4.461  -0.872  -4.300  0.00  0.00    -0.008 C 
ATOM     26  C   UNL     1       3.846  -0.265  -3.037  0.00  0.00    +0.029 C 
ATOM     27  C   UNL     1       4.539  -2.392  -4.148  0.00  0.00    +0.007 C 
ATOM     28  C   UNL     1       3.132  -2.958  -3.943  0.00  0.00    -0.008 C 
ATOM     29  C   UNL     1       2.262  -2.610  -5.152  0.00  0.00    +0.007 C 
ATOM     30  C   UNL     1       2.518  -2.350  -2.681  0.00  0.00    +0.029 C 
ENDBRANCH  19  21
ENDBRANCH   2  17
TORSDOF 5
