REMARK  Name = ZINC30338642
REMARK  8 active torsions:
REMARK  status: ('A' for Active; 'I' for Inactive)
REMARK    1  A    between atoms: C_3  and  C_15
REMARK    2  A    between atoms: C_5  and  N_7
REMARK    3  A    between atoms: C_8  and  C_10
REMARK    4  A    between atoms: C_15  and  N_16
REMARK    5  A    between atoms: N_16  and  S_17
REMARK    6  A    between atoms: S_17  and  C_20
REMARK    7  A    between atoms: C_23  and  O_27
REMARK    8  A    between atoms: O_27  and  C_28
REMARK                            x       y       z     vdW  Elec       q    Type
REMARK                         _______ _______ _______ _____ _____    ______ ____
ROOT
ATOM      1  C   UNL     1      -2.495   0.984  -0.365  0.00  0.00    +0.141 C 
ENDROOT
BRANCH   1   4
ATOM      2  C   UNL     1       1.159   1.778   0.164  0.00  0.00    +0.002 A 
ATOM      3  C   UNL     1      -0.020   1.076  -0.008  0.00  0.00    +0.005 A 
ATOM      4  C   UNL     1      -1.214   1.753  -0.172  0.00  0.00    -0.030 A 
ATOM      5  C   UNL     1      -1.235   3.134  -0.155  0.00  0.00    +0.028 A 
ATOM      6  C   UNL     1      -0.053   3.842   0.017  0.00  0.00    +0.034 A 
ATOM      7  C   UNL     1       1.146   3.159   0.177  0.00  0.00    +0.023 A 
BRANCH   6   8
ATOM      8  N   UNL     1      -0.069   5.241   0.029  0.00  0.00    -0.279 N 
ATOM      9  C   UNL     1      -1.131   5.898   0.535  0.00  0.00    +0.284 C 
ATOM     10  O   UNL     1      -2.032   5.278   1.069  0.00  0.00    -0.266 OA
ATOM     11  H   UNL     1       0.785   5.804  -0.375  0.00  0.00    +0.155 HD
BRANCH   9  12
ATOM     12  C   UNL     1      -1.201   7.359   0.444  0.00  0.00    +0.189 A 
ATOM     13  C   UNL     1      -2.214   8.146   0.913  0.00  0.00    +0.054 A 
ATOM     14  C   UNL     1      -1.868   9.472   0.612  0.00  0.00    +0.042 A 
ATOM     15  C   UNL     1      -0.674   9.438  -0.019  0.00  0.00    +0.196 A 
ATOM     16  O   UNL     1      -0.273   8.164  -0.114  0.00  0.00    -0.458 OA
ENDBRANCH   9  12
ENDBRANCH   6   8
ENDBRANCH   1   4
BRANCH   1  17
ATOM     17  N   UNL     1      -3.107   0.719   0.939  0.00  0.00    -0.186 NA
ATOM     18  H   UNL     1      -2.482   0.686   1.844  0.00  0.00    +0.148 HD
BRANCH  17  19
ATOM     19  S   UNL     1      -4.686   0.227   1.029  0.00  0.00    +0.059 S 
ATOM     20  O   UNL     1      -4.973   0.030   2.407  0.00  0.00    -0.153 OA
ATOM     21  O   UNL     1      -5.436   1.118   0.214  0.00  0.00    -0.153 OA
BRANCH  19  22
ATOM     22  C   UNL     1      -4.782  -1.357   0.264  0.00  0.00    +0.107 A 
ATOM     23  C   UNL     1      -5.048  -1.455  -1.090  0.00  0.00    +0.032 A 
ATOM     24  C   UNL     1      -5.118  -2.695  -1.694  0.00  0.00    +0.049 A 
ATOM     25  C   UNL     1      -4.933  -3.844  -0.940  0.00  0.00    +0.145 A 
ATOM     26  C   UNL     1      -4.672  -3.745   0.420  0.00  0.00    +0.085 A 
ATOM     27  C   UNL     1      -4.597  -2.501   1.018  0.00  0.00    +0.052 A 
ATOM     28 CL   UNL     1      -4.439  -5.180   1.368  0.00  0.00    -0.080 Cl
BRANCH  25  29
ATOM     29  O   UNL     1      -5.008  -5.066  -1.531  0.00  0.00    -0.433 OA
BRANCH  29  30
ATOM     30  C   UNL     1      -5.280  -5.093  -2.933  0.00  0.00    +0.541 C 
ATOM     31  F   UNL     1      -6.513  -4.479  -3.181  0.00  0.00    -0.166 F 
ATOM     32  F   UNL     1      -4.271  -4.405  -3.617  0.00  0.00    -0.166 F 
ENDBRANCH  29  30
ENDBRANCH  25  29
ENDBRANCH  19  22
ENDBRANCH  17  19
ENDBRANCH   1  17
TORSDOF 8
