REMARK  Name = ZINC21344015
REMARK  10 active torsions:
REMARK  status: ('A' for Active; 'I' for Inactive)
REMARK    1  A    between atoms: C_1  and  C_2
REMARK    2  A    between atoms: C_8  and  N_10
REMARK    3  A    between atoms: C_11  and  C_13
REMARK    4  A    between atoms: C_13  and  C_15
REMARK    5  A    between atoms: C_13  and  O_16
REMARK    6  A    between atoms: O_16  and  C_17
REMARK    7  A    between atoms: C_17  and  C_19
REMARK    8  A    between atoms: C_20  and  C_21
REMARK    9  A    between atoms: C_24  and  O_27
REMARK   10  A    between atoms: O_27  and  C_28
REMARK                            x       y       z     vdW  Elec       q    Type
REMARK                         _______ _______ _______ _____ _____    ______ ____
ROOT
ATOM      1  C   UNL     1      -1.330   1.944   0.019  0.00  0.00    +0.259 C 
ATOM      2  C   UNL     1      -1.483   2.732  -1.283  0.00  0.00    +0.062 C 
ENDROOT
BRANCH   1   4
ATOM      3  N   UNL     1       1.143   1.898   0.001  0.00  0.00    -0.309 N 
ATOM      4  C   UNL     1      -0.014   1.209   0.009  0.00  0.00    +0.254 C 
ATOM      5  O   UNL     1       0.002  -0.004   0.002  0.00  0.00    -0.272 OA
ATOM      6  H   UNL     1       1.129   2.998   0.007  0.00  0.00    +0.149 HD
BRANCH   3  13
ATOM      7  C   UNL     1       3.141   2.423   2.032  0.00  0.00    +0.009 C 
ATOM      8  C   UNL     1       3.511   2.072   0.589  0.00  0.00    +0.006 C 
ATOM      9  C   UNL     1       4.846   1.325   0.573  0.00  0.00    +0.005 C 
ATOM     10  C   UNL     1       5.216   0.974  -0.870  0.00  0.00    +0.000 C 
ATOM     11  C   UNL     1       4.127   0.085  -1.474  0.00  0.00    +0.002 C 
ATOM     12  C   UNL     1       2.792   0.832  -1.457  0.00  0.00    +0.022 C 
ATOM     13  C   UNL     1       2.422   1.183  -0.015  0.00  0.00    +0.076 C 
ENDBRANCH   3  13
ENDBRANCH   1   4
BRANCH   1  14
ATOM     14  O   UNL     1      -2.400   1.005   0.136  0.00  0.00    -0.449 OA
BRANCH  14  15
ATOM     15  C   UNL     1      -3.518   1.426   0.763  0.00  0.00    +0.333 C 
ATOM     16  O   UNL     1      -3.582   2.560   1.197  0.00  0.00    -0.246 OA
BRANCH  15  17
ATOM     17  C   UNL     1      -4.620   0.546   0.915  0.00  0.00    +0.092 C 
ATOM     18  C   UNL     1      -5.739   0.967   1.542  0.00  0.00    +0.015 C 
BRANCH  18  19
ATOM     19  C   UNL     1      -6.881   0.055   1.699  0.00  0.00    -0.025 A 
ATOM     20  C   UNL     1      -6.813  -1.249   1.195  0.00  0.00    +0.011 A 
ATOM     21  C   UNL     1      -7.883  -2.101   1.350  0.00  0.00    +0.046 A 
ATOM     22  C   UNL     1      -9.034  -1.665   1.996  0.00  0.00    +0.120 A 
ATOM     23  C   UNL     1      -9.109  -0.369   2.494  0.00  0.00    +0.046 A 
ATOM     24  C   UNL     1      -8.043   0.489   2.349  0.00  0.00    +0.011 A 
BRANCH  22  25
ATOM     25  O   UNL     1     -10.088  -2.507   2.140  0.00  0.00    -0.495 OA
ATOM     26  C   UNL     1      -9.945  -3.825   1.606  0.00  0.00    +0.277 C 
ENDBRANCH  22  25
ENDBRANCH  18  19
ENDBRANCH  15  17
ENDBRANCH  14  15
ENDBRANCH   1  14
TORSDOF 7
