REMARK  Name = ZINC20158261
REMARK  7 active torsions:
REMARK  status: ('A' for Active; 'I' for Inactive)
REMARK    1  A    between atoms: C_1  and  C_2
REMARK    2  A    between atoms: C_2  and  C_16
REMARK    3  A    between atoms: N_3  and  N_4
REMARK    4  A    between atoms: C_5  and  C_7
REMARK    5  A    between atoms: C_7  and  C_8
REMARK    6  A    between atoms: C_19  and  N_22
REMARK    7  A    between atoms: C_23  and  C_25
REMARK                            x       y       z     vdW  Elec       q    Type
REMARK                         _______ _______ _______ _____ _____    ______ ____
ROOT
ATOM      1  C   UNL     1      -9.057  -1.113  -0.335  0.00  0.00    +0.068 C 
ATOM      2  C   UNL     1      -8.799   0.372  -0.336  0.00  0.00    +0.063 C 
ATOM      3  N   UNL     1      -9.793   1.203  -0.421  0.00  0.00    -0.185 NA
ENDROOT
BRANCH   2   4
ATOM      4  C   UNL     1      -7.419   0.881  -0.240  0.00  0.00    -0.002 A 
ATOM      5  C   UNL     1      -7.178   2.257  -0.241  0.00  0.00    +0.011 A 
ATOM      6  C   UNL     1      -5.887   2.729  -0.151  0.00  0.00    +0.024 A 
ATOM      7  C   UNL     1      -4.824   1.837  -0.061  0.00  0.00    +0.034 A 
ATOM      8  C   UNL     1      -5.059   0.466  -0.065  0.00  0.00    +0.024 A 
ATOM      9  C   UNL     1      -6.348  -0.013  -0.149  0.00  0.00    +0.011 A 
BRANCH   7  10
ATOM     10  N   UNL     1      -3.516   2.318   0.029  0.00  0.00    -0.279 N 
ATOM     11  C   UNL     1      -2.598   1.645   0.750  0.00  0.00    +0.284 C 
ATOM     12  O   UNL     1      -2.930   0.672   1.401  0.00  0.00    -0.266 OA
ATOM     13  H   UNL     1      -3.235   3.247  -0.489  0.00  0.00    +0.155 HD
BRANCH  11  14
ATOM     14  C   UNL     1      -1.201   2.085   0.751  0.00  0.00    +0.191 A 
ATOM     15  C   UNL     1      -0.174   1.497   1.435  0.00  0.00    +0.056 A 
ATOM     16  C   UNL     1       0.981   2.238   1.145  0.00  0.00    +0.058 A 
ATOM     17  C   UNL     1       0.614   3.238   0.311  0.00  0.00    +0.171 A 
ATOM     18  O   UNL     1      -0.702   3.144   0.079  0.00  0.00    -0.444 OA
ATOM     19 BR   UNL     1       1.768   4.553  -0.408  0.00  0.00    -0.008 Br
ENDBRANCH  11  14
ENDBRANCH   7  10
ENDBRANCH   2   4
BRANCH   3  20
ATOM     20  N   UNL     1     -11.104   0.720  -0.512  0.00  0.00    -0.206 N 
ATOM     21  C   UNL     1     -12.136   1.583  -0.600  0.00  0.00    +0.237 C 
ATOM     22  O   UNL     1     -11.928   2.778  -0.601  0.00  0.00    -0.274 OA
ATOM     23  H   UNL     1     -11.293  -0.364  -0.511  0.00  0.00    +0.177 HD
BRANCH  21  24
ATOM     24  C   UNL     1     -13.547   1.063  -0.698  0.00  0.00    +0.137 C 
BRANCH  24  25
ATOM     25  C   UNL     1     -14.505   2.223  -0.785  0.00  0.00    +0.015 A 
ATOM     26  C   UNL     1     -14.856   2.740  -2.020  0.00  0.00    +0.128 A 
ATOM     27  C   UNL     1     -15.736   3.806  -2.099  0.00  0.00    +0.039 A 
ATOM     28  C   UNL     1     -16.264   4.354  -0.944  0.00  0.00    +0.004 A 
ATOM     29  C   UNL     1     -15.913   3.837   0.289  0.00  0.00    +0.020 A 
ATOM     30  C   UNL     1     -15.038   2.768   0.369  0.00  0.00    +0.047 A 
ATOM     31 CL   UNL     1     -14.604   2.116   1.918  0.00  0.00    -0.083 Cl
ATOM     32  F   UNL     1     -14.340   2.205  -3.148  0.00  0.00    -0.205 F 
ENDBRANCH  24  25
ENDBRANCH  21  24
ENDBRANCH   3  20
TORSDOF 6
