REMARK  Name = ZINC65370368
REMARK  8 active torsions:
REMARK  status: ('A' for Active; 'I' for Inactive)
REMARK    1  A    between atoms: C_1  and  C_2
REMARK    2  A    between atoms: C_2  and  N_3
REMARK    3  A    between atoms: C_4  and  C_28
REMARK    4  A    between atoms: C_6  and  N_10
REMARK    5  A    between atoms: C_7  and  C_9
REMARK    6  A    between atoms: C_11  and  C_13
REMARK    7  A    between atoms: C_13  and  N_14
REMARK    8  A    between atoms: C_20  and  C_24
REMARK                            x       y       z     vdW  Elec       q    Type
REMARK                         _______ _______ _______ _____ _____    ______ ____
ROOT
ATOM      1  N   UNL     1       2.673  -3.657   1.286  0.00  0.00    -0.285 N 
ATOM      2  C   UNL     1       4.001  -3.858   1.171  0.00  0.00    +0.231 C 
ATOM      3  O   UNL     1       4.756  -2.909   1.122  0.00  0.00    -0.274 OA
ATOM      4  H   UNL     1       2.076  -4.414   1.399  0.00  0.00    +0.155 HD
ENDROOT
BRANCH   1   7
ATOM      5  N   UNL     1       1.598  -0.156   0.590  0.00  0.00    -0.221 NA
ATOM      6  C   UNL     1       2.342  -1.346   0.134  0.00  0.00    +0.118 C 
ATOM      7  C   UNL     1       2.155  -2.357   1.245  0.00  0.00    +0.047 C 
ATOM      8  C   UNL     1       1.409  -1.775   2.169  0.00  0.00    +0.034 C 
ATOM      9  N   UNL     1       1.068  -0.478   1.806  0.00  0.00    -0.280 N 
ATOM     10  C   UNL     1       0.982  -2.436   3.455  0.00  0.00    +0.063 C 
ATOM     11  C   UNL     1       1.754  -1.874  -1.177  0.00  0.00    +0.032 C 
ATOM     12  H   UNL     1       0.525   0.119   2.345  0.00  0.00    +0.166 HD
BRANCH   5  14
ATOM     13  C   UNL     1       1.666   2.239   1.100  0.00  0.00    +0.022 C 
ATOM     14  C   UNL     1       2.485   1.011   0.695  0.00  0.00    +0.103 C 
ENDBRANCH   5  14
ENDBRANCH   1   7
BRANCH   2  15
ATOM     15  C   UNL     1       4.548  -5.261   1.101  0.00  0.00    +0.181 C 
BRANCH  15  16
ATOM     16  N   UNL     1       6.011  -5.210   0.978  0.00  0.00    -0.290 NA
ATOM     17  C   UNL     1       6.411  -4.611  -0.303  0.00  0.00    +0.091 C 
ATOM     18  C   UNL     1       7.897  -4.231  -0.259  0.00  0.00    +0.072 C 
ATOM     19  C   UNL     1       8.671  -5.432   0.240  0.00  0.00    +0.067 C 
ATOM     20  C   UNL     1       8.071  -6.455   0.862  0.00  0.00    -0.006 C 
ATOM     21  C   UNL     1       6.602  -6.551   1.145  0.00  0.00    +0.119 C 
ATOM     22  C   UNL     1       9.183  -7.418   1.182  0.00  0.00    +0.160 C 
ATOM     23  N   UNL     1      10.372  -6.729   0.641  0.00  0.00    -0.179 NA
ATOM     24  N   UNL     1       9.997  -5.658   0.148  0.00  0.00    -0.158 NA
BRANCH  22  25
ATOM     25  C   UNL     1       9.309  -7.620   2.693  0.00  0.00    +0.020 C 
ATOM     26  C   UNL     1      10.123  -6.520   3.396  0.00  0.00    +0.006 C 
ATOM     27  C   UNL     1      10.741  -7.636   4.255  0.00  0.00    +0.001 C 
ATOM     28  C   UNL     1      10.429  -8.595   3.093  0.00  0.00    +0.006 C 
ENDBRANCH  22  25
ENDBRANCH  15  16
ENDBRANCH   2  15
TORSDOF 5
