REMARK  Name = ZINC01945548
REMARK  12 active torsions:
REMARK  status: ('A' for Active; 'I' for Inactive)
REMARK    1  A    between atoms: C_1  and  C_2
REMARK    2  A    between atoms: C_5  and  O_25
REMARK    3  A    between atoms: C_6  and  N_8
REMARK    4  A    between atoms: C_9  and  C_11
REMARK    5  A    between atoms: C_12  and  C_13
REMARK    6  A    between atoms: C_16  and  O_21
REMARK    7  A    between atoms: C_17  and  O_19
REMARK    8  A    between atoms: O_19  and  C_20
REMARK    9  A    between atoms: O_21  and  C_22
REMARK   10  A    between atoms: C_22  and  C_23
REMARK   11  A    between atoms: C_22  and  C_24
REMARK   12  A    between atoms: O_25  and  C_26
REMARK                            x       y       z     vdW  Elec       q    Type
REMARK                         _______ _______ _______ _____ _____    ______ ____
ROOT
ATOM      1  C   UNL     1       1.875   2.873   0.214  0.00  0.00    +0.068 C 
ATOM      2  C   UNL     1       1.644   4.202   0.166  0.00  0.00    +0.013 C 
ENDROOT
BRANCH   2   3
ATOM      3  C   UNL     1       2.773   5.144   0.140  0.00  0.00    -0.021 A 
ATOM      4  C   UNL     1       4.087   4.665   0.165  0.00  0.00    +0.012 A 
ATOM      5  C   UNL     1       5.143   5.550   0.140  0.00  0.00    +0.050 A 
ATOM      6  C   UNL     1       4.907   6.917   0.090  0.00  0.00    +0.162 A 
ATOM      7  C   UNL     1       3.600   7.402   0.065  0.00  0.00    +0.162 A 
ATOM      8  C   UNL     1       2.535   6.522   0.084  0.00  0.00    +0.057 A 
BRANCH   7   9
ATOM      9  O   UNL     1       3.373   8.742   0.016  0.00  0.00    -0.491 OA
ATOM     10  C   UNL     1       2.009   9.169  -0.008  0.00  0.00    +0.277 C 
ENDBRANCH   7   9
BRANCH   6  11
ATOM     11  O   UNL     1       5.952   7.784   0.066  0.00  0.00    -0.486 OA
BRANCH  11  12
ATOM     12  C   UNL     1       7.260   7.221  -0.041  0.00  0.00    +0.167 C 
ATOM     13  C   UNL     1       8.153   8.156  -0.858  0.00  0.00    +0.051 C 
ATOM     14  C   UNL     1       7.854   7.042   1.358  0.00  0.00    +0.051 C 
ENDBRANCH  11  12
ENDBRANCH   6  11
ENDBRANCH   2   3
BRANCH   1  16
ATOM     15  N   UNL     1       0.983   0.610   0.288  0.00  0.00    -0.279 N 
ATOM     16  C   UNL     1       0.753   1.937   0.239  0.00  0.00    +0.241 C 
ATOM     17  O   UNL     1      -0.390   2.355   0.212  0.00  0.00    -0.270 OA
ATOM     18  H   UNL     1       1.892   0.273   0.244  0.00  0.00    +0.155 HD
BRANCH  15  24
ATOM     19  C   UNL     1      -3.668  -0.576  -0.777  0.00  0.00    +0.044 C 
ATOM     20  C   UNL     1      -2.355  -0.884  -0.105  0.00  0.00    -0.048 A 
ATOM     21  C   UNL     1      -2.210  -2.051   0.623  0.00  0.00    +0.007 A 
ATOM     22  C   UNL     1      -1.008  -2.340   1.242  0.00  0.00    +0.048 A 
ATOM     23  C   UNL     1       0.057  -1.462   1.130  0.00  0.00    +0.141 A 
ATOM     24  C   UNL     1      -0.089  -0.284   0.401  0.00  0.00    +0.076 A 
ATOM     25  C   UNL     1      -1.298  -0.001  -0.218  0.00  0.00    +0.030 A 
BRANCH  23  26
ATOM     26  O   UNL     1       1.242  -1.747   1.734  0.00  0.00    -0.493 OA
ATOM     27  C   UNL     1       1.319  -2.973   2.464  0.00  0.00    +0.277 C 
ENDBRANCH  23  26
ENDBRANCH  15  24
ENDBRANCH   1  16
TORSDOF 7
