REMARK  Name = ZINC63676464
REMARK  11 active torsions:
REMARK  status: ('A' for Active; 'I' for Inactive)
REMARK    1  A    between atoms: C_1  and  C_2
REMARK    2  A    between atoms: C_4  and  S_10
REMARK    3  A    between atoms: C_7  and  O_8
REMARK    4  A    between atoms: O_8  and  C_9
REMARK    5  A    between atoms: S_10  and  N_13
REMARK    6  A    between atoms: C_17  and  C_19
REMARK    7  A    between atoms: C_19  and  N_20
REMARK    8  A    between atoms: C_21  and  C_23
REMARK    9  A    between atoms: N_25  and  C_26
REMARK   10  A    between atoms: C_26  and  C_27
REMARK   11  A    between atoms: C_27  and  C_28
REMARK                            x       y       z     vdW  Elec       q    Type
REMARK                         _______ _______ _______ _____ _____    ______ ____
ROOT
ATOM      1  N   UNL     1       3.154  -3.194  -0.753  0.00  0.00    -0.304 N 
ATOM      2  C   UNL     1       3.342  -3.072   0.576  0.00  0.00    +0.299 C 
ATOM      3  O   UNL     1       3.034  -3.981   1.318  0.00  0.00    -0.265 OA
ATOM      4  H   UNL     1       3.401  -2.467  -1.346  0.00  0.00    +0.149 HD
ENDROOT
BRANCH   2   5
ATOM      5  C   UNL     1       3.931  -1.817   1.136  0.00  0.00    +0.299 C 
ATOM      6  O   UNL     1       4.239  -0.908   0.393  0.00  0.00    -0.265 OA
ATOM      7  N   UNL     1       4.119  -1.696   2.465  0.00  0.00    -0.307 N 
ATOM      8  H   UNL     1       3.872  -2.422   3.058  0.00  0.00    +0.149 HD
BRANCH   7   9
ATOM      9  C   UNL     1       4.695  -0.466   3.013  0.00  0.00    +0.109 C 
BRANCH   9  10
ATOM     10  C   UNL     1       4.801  -0.586   4.535  0.00  0.00    +0.052 C 
BRANCH  10  11
ATOM     11  C   UNL     1       5.394   0.679   5.099  0.00  0.00    -0.040 C 
ATOM     12  C   UNL     1       4.721   1.741   5.597  0.00  0.00    -0.001 A 
ATOM     13  C   UNL     1       3.289   2.026   5.755  0.00  0.00    +0.010 A 
ATOM     14  C   UNL     1       2.912   3.205   6.299  0.00  0.00    +0.001 A 
ATOM     15  C   UNL     1       3.850   4.160   6.715  0.00  0.00    +0.002 A 
ATOM     16  C   UNL     1       5.182   3.970   6.602  0.00  0.00    +0.026 A 
ATOM     17  C   UNL     1       5.692   2.765   6.044  0.00  0.00    +0.043 A 
ATOM     18  N   UNL     1       6.918   2.352   5.831  0.00  0.00    -0.380 N 
ATOM     19  C   UNL     1       6.863   1.015   5.229  0.00  0.00    +0.144 C 
ATOM     20  H   UNL     1       7.726   2.846   6.040  0.00  0.00    +0.160 HD
ENDBRANCH  10  11
ENDBRANCH   9  10
ENDBRANCH   7   9
ENDBRANCH   2   5
BRANCH   1  21
ATOM     21  C   UNL     1       2.578  -4.424  -1.301  0.00  0.00    +0.154 C 
BRANCH  21  26
ATOM     22  N   UNL     1       1.610  -3.163  -3.172  0.00  0.00    -0.145 NA
ATOM     23  C   UNL     1       2.445  -2.250  -3.984  0.00  0.00    +0.140 C 
ATOM     24  C   UNL     1       3.565  -3.185  -4.507  0.00  0.00    +0.179 C 
ATOM     25  O   UNL     1       3.775  -4.073  -3.385  0.00  0.00    -0.357 OA
ATOM     26  C   UNL     1       2.472  -4.303  -2.823  0.00  0.00    +0.226 C 
BRANCH  22  27
ATOM     27  S   UNL     1       0.027  -2.942  -2.738  0.00  0.00    +0.063 S 
ATOM     28  O   UNL     1      -0.505  -4.232  -2.473  0.00  0.00    -0.153 OA
ATOM     29  O   UNL     1      -0.540  -2.067  -3.704  0.00  0.00    -0.153 OA
BRANCH  27  33
ATOM     30  C   UNL     1      -0.018   1.503   0.010  0.00  0.00    +0.047 C 
ATOM     31  C   UNL     1       0.002  -0.004   0.002  0.00  0.00    -0.007 A 
ATOM     32  C   UNL     1       0.006  -0.689  -1.198  0.00  0.00    +0.035 A 
ATOM     33  C   UNL     1       0.024  -2.071  -1.206  0.00  0.00    +0.106 A 
ATOM     34  C   UNL     1       0.039  -2.772  -0.014  0.00  0.00    +0.032 A 
ATOM     35  C   UNL     1       0.036  -2.092   1.188  0.00  0.00    +0.048 A 
ATOM     36  C   UNL     1       0.023  -0.705   1.199  0.00  0.00    +0.123 A 
BRANCH  36  37
ATOM     37  O   UNL     1       0.025  -0.033   2.381  0.00  0.00    -0.495 OA
ATOM     38  C   UNL     1       0.048  -0.820   3.574  0.00  0.00    +0.277 C 
ENDBRANCH  36  37
ENDBRANCH  27  33
ENDBRANCH  22  27
ENDBRANCH  21  26
ENDBRANCH   1  21
TORSDOF 9
