REMARK  Name = ZINC03127067
REMARK  8 active torsions:
REMARK  status: ('A' for Active; 'I' for Inactive)
REMARK    1  A    between atoms: C_1  and  C_2
REMARK    2  A    between atoms: C_2  and  C_3
REMARK    3  A    between atoms: C_3  and  C_4
REMARK    4  A    between atoms: C_4  and  C_5
REMARK    5  A    between atoms: N_7  and  N_8
REMARK    6  A    between atoms: C_9  and  C_10
REMARK    7  A    between atoms: C_13  and  S_15
REMARK    8  A    between atoms: S_15  and  C_16
REMARK                            x       y       z     vdW  Elec       q    Type
REMARK                         _______ _______ _______ _____ _____    ______ ____
ROOT
ATOM      1  C   UNL     1       4.800   6.556  -0.007  0.00  0.00    +0.149 A 
ATOM      2  C   UNL     1       6.159   6.423  -0.021  0.00  0.00    +0.052 A 
ATOM      3  C   UNL     1       6.433   5.046  -0.027  0.00  0.00    +0.057 A 
ATOM      4  C   UNL     1       5.235   4.402  -0.025  0.00  0.00    +0.169 A 
ATOM      5  O   UNL     1       4.255   5.321  -0.009  0.00  0.00    -0.447 OA
ENDROOT
BRANCH   1   7
ATOM      6  N   UNL     1       2.759   7.813   0.020  0.00  0.00    -0.185 NA
ATOM      7  C   UNL     1       4.061   7.820   0.007  0.00  0.00    +0.176 C 
BRANCH   6  10
ATOM      8  C   UNL     1       0.705   9.015   0.046  0.00  0.00    +0.232 C 
ATOM      9  O   UNL     1       0.103   7.961   0.046  0.00  0.00    -0.274 OA
ATOM     10  N   UNL     1       2.052   9.022   0.034  0.00  0.00    -0.207 N 
ATOM     11  H   UNL     1       2.533   9.865   0.034  0.00  0.00    +0.177 HD
BRANCH   8  12
ATOM     12  C   UNL     1      -0.056  10.316   0.061  0.00  0.00    +0.097 C 
BRANCH  12  13
ATOM     13  C   UNL     1      -1.558  10.029   0.074  0.00  0.00    +0.009 C 
BRANCH  13  15
ATOM     14  C   UNL     1      -3.833  11.062   0.102  0.00  0.00    +0.004 C 
ATOM     15  C   UNL     1      -2.330  11.350   0.089  0.00  0.00    -0.003 C 
ENDBRANCH  13  15
ENDBRANCH  12  13
ENDBRANCH   8  12
ENDBRANCH   6  10
ENDBRANCH   1   7
BRANCH   4  16
ATOM     16  S   UNL     1       5.008   2.655  -0.032  0.00  0.00    -0.014 S 
BRANCH  16  17
ATOM     17  C   UNL     1       3.248   2.575  -0.015  0.00  0.00    +0.175 A 
ATOM     18  N   UNL     1       2.514   1.422  -0.014  0.00  0.00    -0.333 N 
ATOM     19  H   UNL     1       2.874   0.490  -0.023  0.00  0.00    +0.168 HD
ATOM     20  C   UNL     1       1.178   1.787   0.000  0.00  0.00    +0.067 A 
ATOM     21  C   UNL     1      -0.013   1.076   0.008  0.00  0.00    +0.028 A 
ATOM     22  C   UNL     1      -1.216   1.751   0.017  0.00  0.00    +0.002 A 
ATOM     23  C   UNL     1      -1.243   3.138   0.032  0.00  0.00    +0.002 A 
ATOM     24  C   UNL     1      -0.071   3.860   0.024  0.00  0.00    +0.030 A 
ATOM     25  C   UNL     1       1.156   3.192   0.008  0.00  0.00    +0.090 A 
ATOM     26  N   UNL     1       2.447   3.612  -0.002  0.00  0.00    -0.222 NA
ENDBRANCH  16  17
ENDBRANCH   4  16
TORSDOF 7
