REMARK  Name = ZINC48138835
REMARK  4 active torsions:
REMARK  status: ('A' for Active; 'I' for Inactive)
REMARK    1  A    between atoms: C_1  and  N_2
REMARK    2  A    between atoms: N_2  and  C_3
REMARK    3  A    between atoms: N_15  and  C_16
REMARK    4  A    between atoms: C_19  and  N_23
REMARK                            x       y       z     vdW  Elec       q    Type
REMARK                         _______ _______ _______ _____ _____    ______ ____
ROOT
ATOM      1  C   UNL     1      -0.027   1.556  -0.014  0.00  0.00    +0.134 C 
ATOM      2  N   UNL     1       0.190   0.108   0.045  0.00  0.00    -0.281 N 
ATOM      3  C   UNL     1       0.086  -0.635  -1.074  0.00  0.00    +0.307 C 
ATOM      4  O   UNL     1       0.266  -1.837  -1.025  0.00  0.00    -0.252 OA
ATOM      5  N   UNL     1      -0.219  -0.047  -2.248  0.00  0.00    -0.269 N 
ATOM      6  H   UNL     1      -0.288   0.919  -2.303  0.00  0.00    +0.156 HD
ENDROOT
BRANCH   2   7
ATOM      7  C   UNL     1       0.521  -0.531   1.321  0.00  0.00    +0.108 C 
ATOM      8  C   UNL     1      -0.623  -0.325   2.336  0.00  0.00    +0.032 C 
ATOM      9  C   UNL     1      -0.186   0.960   3.071  0.00  0.00    +0.037 C 
ATOM     10  C   UNL     1       1.323   0.992   2.950  0.00  0.00    -0.042 A 
ATOM     11  C   UNL     1       1.731   0.134   1.943  0.00  0.00    -0.024 A 
ATOM     12  C   UNL     1       3.078  -0.001   1.652  0.00  0.00    +0.006 A 
ATOM     13  C   UNL     1       4.018   0.718   2.364  0.00  0.00    +0.000 A 
ATOM     14  C   UNL     1       3.614   1.575   3.370  0.00  0.00    +0.000 A 
ATOM     15  C   UNL     1       2.265   1.714   3.664  0.00  0.00    +0.004 A 
ENDBRANCH   2   7
BRANCH   5  16
ATOM     16  C   UNL     1      -0.436  -0.831  -3.389  0.00  0.00    +0.038 A 
ATOM     17  C   UNL     1      -0.073  -0.351  -4.640  0.00  0.00    +0.025 A 
ATOM     18  C   UNL     1      -0.285  -1.123  -5.766  0.00  0.00    +0.028 A 
ATOM     19  C   UNL     1      -0.863  -2.380  -5.647  0.00  0.00    +0.065 A 
ATOM     20  C   UNL     1      -1.227  -2.861  -4.394  0.00  0.00    +0.146 A 
ATOM     21  C   UNL     1      -1.008  -2.090  -3.268  0.00  0.00    +0.063 A 
ATOM     22  F   UNL     1      -1.789  -4.085  -4.277  0.00  0.00    -0.203 F 
BRANCH  19  23
ATOM     23  N   UNL     1      -1.079  -3.162  -6.788  0.00  0.00    -0.328 N 
ATOM     24  C   UNL     1      -2.293  -3.150  -7.618  0.00  0.00    +0.105 C 
ATOM     25  C   UNL     1      -2.090  -4.187  -8.743  0.00  0.00    +0.020 C 
ATOM     26  C   UNL     1      -1.006  -5.129  -8.155  0.00  0.00    +0.020 C 
ATOM     27  C   UNL     1      -0.125  -4.129  -7.361  0.00  0.00    +0.105 C 
ENDBRANCH  19  23
ENDBRANCH   5  16
TORSDOF 3
