REMARK  Name = ZINC65897100
REMARK  12 active torsions:
REMARK  status: ('A' for Active; 'I' for Inactive)
REMARK    1  A    between atoms: C_1  and  C_2
REMARK    2  A    between atoms: C_2  and  C_3
REMARK    3  A    between atoms: C_2  and  C_4
REMARK    4  A    between atoms: C_4  and  C_5
REMARK    5  A    between atoms: C_4  and  N_17
REMARK    6  A    between atoms: N_7  and  C_8
REMARK    7  A    between atoms: C_8  and  C_9
REMARK    8  A    between atoms: C_8  and  C_10
REMARK    9  A    between atoms: N_12  and  C_13
REMARK   10  A    between atoms: C_13  and  C_14
REMARK   11  A    between atoms: C_13  and  C_15
REMARK   12  A    between atoms: C_13  and  C_16
REMARK                            x       y       z     vdW  Elec       q    Type
REMARK                         _______ _______ _______ _____ _____    ______ ____
ROOT
ATOM      1  C   UNL     1      -1.383  -0.661  -0.049  0.00  0.00    +0.173 C 
ENDROOT
BRANCH   1   2
ATOM      2  N   UNL     1      -2.067  -0.719  -1.344  0.00  0.00    -0.222 N 
ATOM      3  C   UNL     1      -2.454   0.359  -2.049  0.00  0.00    +0.255 C 
ATOM      4  O   UNL     1      -2.297   1.517  -1.717  0.00  0.00    -0.270 OA
ATOM      5  C   UNL     1      -3.105  -0.101  -3.294  0.00  0.00    +0.049 A 
ATOM      6  C   UNL     1      -3.685   0.540  -4.376  0.00  0.00    +0.014 A 
ATOM      7  C   UNL     1      -4.221  -0.209  -5.412  0.00  0.00    +0.001 A 
ATOM      8  C   UNL     1      -4.179  -1.590  -5.373  0.00  0.00    +0.001 A 
ATOM      9  C   UNL     1      -3.602  -2.245  -4.296  0.00  0.00    +0.014 A 
ATOM     10  C   UNL     1      -3.062  -1.509  -3.253  0.00  0.00    +0.049 A 
ATOM     11  C   UNL     1      -2.383  -1.857  -1.987  0.00  0.00    +0.255 C 
ATOM     12  O   UNL     1      -2.152  -2.983  -1.593  0.00  0.00    -0.270 OA
ENDBRANCH   1   2
BRANCH   1  13
ATOM     13  C   UNL     1      -2.311  -0.073   0.982  0.00  0.00    +0.235 C 
ATOM     14  O   UNL     1      -3.277   0.572   0.632  0.00  0.00    -0.274 OA
ATOM     15  N   UNL     1      -2.067  -0.262   2.294  0.00  0.00    -0.303 N 
ATOM     16  H   UNL     1      -1.254  -0.710   2.577  0.00  0.00    +0.149 HD
BRANCH  15  17
ATOM     17  C   UNL     1      -3.028   0.210   3.294  0.00  0.00    +0.156 C 
ATOM     18  C   UNL     1      -2.758   1.683   3.606  0.00  0.00    +0.038 C 
BRANCH  17  19
ATOM     19  C   UNL     1      -2.884  -0.605   4.553  0.00  0.00    +0.233 C 
ATOM     20  O   UNL     1      -2.060  -1.492   4.610  0.00  0.00    -0.274 OA
ATOM     21  N   UNL     1      -3.672  -0.348   5.616  0.00  0.00    -0.309 N 
ATOM     22  H   UNL     1      -4.332   0.362   5.570  0.00  0.00    +0.149 HD
BRANCH  21  23
ATOM     23  C   UNL     1      -3.532  -1.140   6.840  0.00  0.00    +0.026 C 
ATOM     24  C   UNL     1      -2.112  -0.987   7.387  0.00  0.00    +0.031 C 
ATOM     25  C   UNL     1      -4.537  -0.648   7.884  0.00  0.00    +0.031 C 
ATOM     26  C   UNL     1      -3.802  -2.613   6.528  0.00  0.00    +0.031 C 
ENDBRANCH  21  23
ENDBRANCH  17  19
ENDBRANCH  15  17
ENDBRANCH   1  13
BRANCH   1  28
ATOM     27  C   UNL     1       0.639   0.184   1.150  0.00  0.00    +0.009 C 
ATOM     28  C   UNL     1      -0.134   0.213  -0.171  0.00  0.00    +0.013 C 
ATOM     29  C   UNL     1       0.756  -0.322  -1.294  0.00  0.00    +0.009 C 
ENDBRANCH   1  28
TORSDOF 6
