REMARK  Name = ZINC32699201
REMARK  8 active torsions:
REMARK  status: ('A' for Active; 'I' for Inactive)
REMARK    1  A    between atoms: C_4  and  C_7
REMARK    2  A    between atoms: C_8  and  C_33
REMARK    3  A    between atoms: C_9  and  N_18
REMARK    4  A    between atoms: C_11  and  C_12
REMARK    5  A    between atoms: C_19  and  C_21
REMARK    6  A    between atoms: C_21  and  S_22
REMARK    7  A    between atoms: S_22  and  C_23
REMARK    8  A    between atoms: C_26  and  C_28
REMARK                            x       y       z     vdW  Elec       q    Type
REMARK                         _______ _______ _______ _____ _____    ______ ____
ROOT
ATOM      1  C   UNL     1      -4.576   0.568  -0.025  0.00  0.00    +0.047 A 
ATOM      2  C   UNL     1      -3.651   1.706   0.135  0.00  0.00    +0.121 A 
ATOM      3  C   UNL     1      -2.380   1.153   0.131  0.00  0.00    +0.211 A 
ATOM      4  O   UNL     1      -2.493  -0.174  -0.020  0.00  0.00    -0.439 OA
ATOM      5  C   UNL     1      -3.785  -0.545  -0.109  0.00  0.00    +0.146 A 
ENDROOT
BRANCH   1   9
ATOM      6  C   UNL     1      -8.820   0.718  -0.189  0.00  0.00    +0.000 A 
ATOM      7  C   UNL     1      -8.071   1.285  -1.205  0.00  0.00    +0.001 A 
ATOM      8  C   UNL     1      -6.693   1.240  -1.157  0.00  0.00    +0.008 A 
ATOM      9  C   UNL     1      -6.055   0.621  -0.082  0.00  0.00    -0.013 A 
ATOM     10  C   UNL     1      -6.816   0.046   0.936  0.00  0.00    +0.008 A 
ATOM     11  C   UNL     1      -8.193   0.103   0.880  0.00  0.00    +0.001 A 
ENDBRANCH   1   9
BRANCH   5  12
ATOM     12  C   UNL     1      -4.269  -1.928  -0.277  0.00  0.00    +0.018 A 
ATOM     13  C   UNL     1      -3.757  -2.952   0.525  0.00  0.00    +0.011 A 
ATOM     14  C   UNL     1      -4.219  -4.242   0.367  0.00  0.00    +0.001 A 
ATOM     15  C   UNL     1      -5.177  -4.525  -0.591  0.00  0.00    +0.000 A 
ATOM     16  C   UNL     1      -5.684  -3.517  -1.392  0.00  0.00    +0.001 A 
ATOM     17  C   UNL     1      -5.237  -2.221  -1.241  0.00  0.00    +0.011 A 
ENDBRANCH   5  12
BRANCH   3  18
ATOM     18  N   UNL     1      -1.195   1.853   0.255  0.00  0.00    -0.255 N 
ATOM     19  C   UNL     1      -0.018   1.195   0.235  0.00  0.00    +0.230 C 
ATOM     20  O   UNL     1      -0.000  -0.011   0.109  0.00  0.00    -0.274 OA
ATOM     21  H   UNL     1      -1.211   2.946   0.369  0.00  0.00    +0.158 HD
BRANCH  19  22
ATOM     22  C   UNL     1       1.274   1.958   0.364  0.00  0.00    +0.175 C 
BRANCH  22  23
ATOM     23  S   UNL     1       2.667   0.804   0.295  0.00  0.00    -0.056 S 
BRANCH  23  24
ATOM     24  C   UNL     1       4.009   1.933   0.464  0.00  0.00    +0.278 A 
ATOM     25  N   UNL     1       3.916   3.236   0.592  0.00  0.00    -0.101 NA
ATOM     26  N   UNL     1       5.094   3.742   0.695  0.00  0.00    -0.103 NA
ATOM     27  C   UNL     1       5.988   2.783   0.627  0.00  0.00    +0.284 A 
ATOM     28  O   UNL     1       5.319   1.617   0.480  0.00  0.00    -0.408 OA
BRANCH  27  29
ATOM     29  C   UNL     1       7.447   2.946   0.699  0.00  0.00    +0.191 A 
ATOM     30  C   UNL     1       8.115   4.125   0.847  0.00  0.00    +0.055 A 
ATOM     31  C   UNL     1       9.488   3.813   0.867  0.00  0.00    +0.042 A 
ATOM     32  C   UNL     1       9.593   2.476   0.731  0.00  0.00    +0.196 A 
ATOM     33  O   UNL     1       8.359   1.954   0.634  0.00  0.00    -0.458 OA
ENDBRANCH  27  29
ENDBRANCH  23  24
ENDBRANCH  22  23
ENDBRANCH  19  22
ENDBRANCH   3  18
BRANCH   2  34
ATOM     34  C   UNL     1      -3.993   3.090   0.267  0.00  0.00    +0.105 C 
ATOM     35  N   UNL     1      -4.264   4.188   0.371  0.00  0.00    -0.191 NA
ENDBRANCH   2  34
TORSDOF 8
