REMARK  Name = ZINC38568298
REMARK  3 active torsions:
REMARK  status: ('A' for Active; 'I' for Inactive)
REMARK    1  A    between atoms: C_6  and  S_7
REMARK    2  A    between atoms: S_7  and  N_10
REMARK    3  A    between atoms: C_20  and  C_22
REMARK                            x       y       z     vdW  Elec       q    Type
REMARK                         _______ _______ _______ _____ _____    ______ ____
ROOT
ATOM      1  N   UNL     1      -2.065  -1.084  -1.552  0.00  0.00    -0.144 NA
ATOM      2  C   UNL     1      -2.879  -0.118  -2.325  0.00  0.00    +0.140 C 
ATOM      3  C   UNL     1      -2.622  -0.550  -3.790  0.00  0.00    +0.179 C 
ATOM      4  O   UNL     1      -2.535  -1.990  -3.678  0.00  0.00    -0.356 OA
ATOM      5  C   UNL     1      -1.848  -2.236  -2.441  0.00  0.00    +0.145 C 
ATOM      6  C   UNL     1      -2.410  -3.501  -1.791  0.00  0.00    +0.072 C 
ATOM      7  C   UNL     1      -1.700  -3.743  -0.455  0.00  0.00    +0.112 C 
ATOM      8  N   UNL     1      -0.250  -3.772  -0.689  0.00  0.00    -0.297 N 
ATOM      9  C   UNL     1       0.377  -2.636  -1.380  0.00  0.00    +0.112 C 
ATOM     10  C   UNL     1      -0.352  -2.405  -2.707  0.00  0.00    +0.072 C 
ATOM     11  C   UNL     1       0.492  -4.819  -0.276  0.00  0.00    +0.250 C 
ATOM     12  O   UNL     1      -0.050  -5.794   0.209  0.00  0.00    -0.270 OA
ENDROOT
BRANCH  11  13
ATOM     13  C   UNL     1       1.960  -4.782  -0.413  0.00  0.00    +0.072 A 
ATOM     14  C   UNL     1       2.602  -5.532  -1.433  0.00  0.00    +0.023 A 
ATOM     15  C   UNL     1       3.957  -5.477  -1.534  0.00  0.00    +0.093 A 
ATOM     16  C   UNL     1       4.684  -4.681  -0.628  0.00  0.00    +0.337 A 
ATOM     17  O   UNL     1       5.899  -4.627  -0.712  0.00  0.00    -0.245 OA
ATOM     18  O   UNL     1       4.050  -3.982   0.328  0.00  0.00    -0.430 OA
ATOM     19  C   UNL     1       2.718  -4.016   0.443  0.00  0.00    +0.212 A 
ENDBRANCH  11  13
BRANCH   1  20
ATOM     20  S   UNL     1      -1.507  -0.902  -0.004  0.00  0.00    +0.063 S 
ATOM     21  O   UNL     1      -0.727  -2.054   0.285  0.00  0.00    -0.153 OA
ATOM     22  O   UNL     1      -2.623  -0.519   0.788  0.00  0.00    -0.153 OA
BRANCH  20  28
ATOM     23  C   UNL     1      -0.894   1.757   0.073  0.00  0.00    +0.030 A 
ATOM     24  C   UNL     1      -0.025   2.832   0.070  0.00  0.00    +0.022 A 
ATOM     25  C   UNL     1       1.339   2.619  -0.013  0.00  0.00    +0.041 A 
ATOM     26  C   UNL     1       1.833   1.329  -0.093  0.00  0.00    +0.022 A 
ATOM     27  C   UNL     1       0.964   0.255  -0.091  0.00  0.00    +0.030 A 
ATOM     28  C   UNL     1      -0.399   0.469  -0.008  0.00  0.00    +0.106 A 
ATOM     29 CL   UNL     1       2.430   3.969  -0.017  0.00  0.00    -0.084 Cl
ENDBRANCH  20  28
ENDBRANCH   1  20
TORSDOF 3
