REMARK  Name = ZINC35836770
REMARK  7 active torsions:
REMARK  status: ('A' for Active; 'I' for Inactive)
REMARK    1  A    between atoms: C_4  and  C_7
REMARK    2  A    between atoms: C_7  and  N_8
REMARK    3  A    between atoms: C_9  and  O_35
REMARK    4  A    between atoms: C_10  and  C_19
REMARK    5  A    between atoms: C_11  and  C_13
REMARK    6  A    between atoms: N_23  and  C_27
REMARK    7  A    between atoms: C_27  and  C_28
REMARK                            x       y       z     vdW  Elec       q    Type
REMARK                         _______ _______ _______ _____ _____    ______ ____
ROOT
ATOM      1  N   UNL     1       4.152  -0.952   1.338  0.00  0.00    -0.228 N 
ATOM      2  C   UNL     1       4.918  -0.119   2.067  0.00  0.00    +0.219 A 
ATOM      3  C   UNL     1       5.114  -0.708   3.313  0.00  0.00    +0.066 A 
ATOM      4  C   UNL     1       4.392  -1.986   3.279  0.00  0.00    +0.104 A 
ATOM      5  N   UNL     1       3.836  -2.084   2.094  0.00  0.00    -0.167 NA
ENDROOT
BRANCH   3   6
ATOM      6  C   UNL     1       5.883  -0.163   4.431  0.00  0.00    +0.044 C 
ATOM      7  C   UNL     1       7.149   0.293   4.227  0.00  0.00    +0.099 C 
ATOM      8  C   UNL     1       8.027   0.842   5.199  0.00  0.00    +0.269 C 
ATOM      9  O   UNL     1       7.790   0.998   6.384  0.00  0.00    -0.268 OA
ATOM     10  N   UNL     1       9.172   1.159   4.564  0.00  0.00    -0.216 N 
ATOM     11  C   UNL     1       9.068   0.845   3.262  0.00  0.00    +0.313 C 
ATOM     12  O   UNL     1       9.940   1.013   2.431  0.00  0.00    -0.252 OA
ATOM     13  N   UNL     1       7.857   0.310   3.015  0.00  0.00    -0.265 N 
ATOM     14  H   UNL     1       7.533  -0.003   2.156  0.00  0.00    +0.157 HD
BRANCH  10  15
ATOM     15  C   UNL     1      10.351   1.757   5.196  0.00  0.00    +0.153 C 
BRANCH  15  16
ATOM     16  C   UNL     1      11.266   0.664   5.686  0.00  0.00    -0.029 A 
ATOM     17  C   UNL     1      11.115   0.159   6.965  0.00  0.00    +0.008 A 
ATOM     18  C   UNL     1      11.954  -0.843   7.415  0.00  0.00    +0.038 A 
ATOM     19  C   UNL     1      12.944  -1.341   6.586  0.00  0.00    +0.123 A 
ATOM     20  C   UNL     1      13.094  -0.834   5.306  0.00  0.00    +0.038 A 
ATOM     21  C   UNL     1      12.251   0.164   4.856  0.00  0.00    +0.008 A 
ATOM     22  F   UNL     1      13.765  -2.320   7.025  0.00  0.00    -0.205 F 
ENDBRANCH  15  16
ENDBRANCH  10  15
ENDBRANCH   3   6
BRANCH   4  23
ATOM     23  C   UNL     1       4.304  -2.977   4.378  0.00  0.00    +0.003 A 
ATOM     24  C   UNL     1       5.389  -3.174   5.231  0.00  0.00    +0.010 A 
ATOM     25  C   UNL     1       5.301  -4.098   6.252  0.00  0.00    +0.001 A 
ATOM     26  C   UNL     1       4.140  -4.829   6.430  0.00  0.00    +0.000 A 
ATOM     27  C   UNL     1       3.060  -4.638   5.586  0.00  0.00    +0.001 A 
ATOM     28  C   UNL     1       3.134  -3.712   4.566  0.00  0.00    +0.010 A 
ENDBRANCH   4  23
BRANCH   2  29
ATOM     29  O   UNL     1       5.410   1.076   1.661  0.00  0.00    -0.492 OA
ATOM     30  H   UNL     1       4.827   1.825   1.847  0.00  0.00    +0.294 HD
ENDBRANCH   2  29
BRANCH   1  31
ATOM     31  C   UNL     1       3.711  -0.707  -0.038  0.00  0.00    +0.182 C 
BRANCH  31  35
ATOM     32  C   UNL     1      -0.017   1.378   0.010  0.00  0.00    +0.000 A 
ATOM     33  C   UNL     1       1.171   2.086   0.002  0.00  0.00    +0.000 A 
ATOM     34  C   UNL     1       2.377   1.411  -0.013  0.00  0.00    +0.005 A 
ATOM     35  C   UNL     1       2.396   0.029  -0.020  0.00  0.00    -0.026 A 
ATOM     36  C   UNL     1       1.208  -0.679  -0.012  0.00  0.00    +0.005 A 
ATOM     37  C   UNL     1       0.002  -0.004   0.002  0.00  0.00    +0.000 A 
ENDBRANCH  31  35
ENDBRANCH   1  31
TORSDOF 7
