REMARK  Name = ZINC67171015
REMARK  6 active torsions:
REMARK  status: ('A' for Active; 'I' for Inactive)
REMARK    1  A    between atoms: C_1  and  C_2
REMARK    2  A    between atoms: C_2  and  N_3
REMARK    3  A    between atoms: C_4  and  C_6
REMARK    4  A    between atoms: C_11  and  N_12
REMARK    5  A    between atoms: C_13  and  C_15
REMARK    6  A    between atoms: C_20  and  N_21
REMARK                            x       y       z     vdW  Elec       q    Type
REMARK                         _______ _______ _______ _____ _____    ______ ____
ROOT
ATOM      1  N   UNL     1       1.393  -4.541  -1.823  0.00  0.00    -0.281 N 
ATOM      2  C   UNL     1       2.103  -5.667  -1.613  0.00  0.00    +0.251 C 
ATOM      3  O   UNL     1       3.156  -5.839  -2.196  0.00  0.00    -0.270 OA
ATOM      4  H   UNL     1       0.598  -4.364  -1.296  0.00  0.00    +0.155 HD
ENDROOT
BRANCH   1  10
ATOM      5  C   UNL     1       1.611  -2.256  -2.599  0.00  0.00    +0.059 A 
ATOM      6  C   UNL     1       2.030  -1.354  -3.579  0.00  0.00    +0.035 A 
ATOM      7  C   UNL     1       2.619  -1.820  -4.736  0.00  0.00    +0.042 A 
ATOM      8  C   UNL     1       2.799  -3.181  -4.930  0.00  0.00    +0.022 A 
ATOM      9  C   UNL     1       2.390  -4.084  -3.970  0.00  0.00    +0.025 A 
ATOM     10  C   UNL     1       1.800  -3.632  -2.796  0.00  0.00    +0.046 A 
ATOM     11 CL   UNL     1       3.139  -0.698  -5.954  0.00  0.00    -0.084 Cl
BRANCH   5  13
ATOM     12  N   UNL     1       0.890  -0.440  -1.129  0.00  0.00    -0.312 N 
ATOM     13  C   UNL     1       0.980  -1.765  -1.359  0.00  0.00    +0.246 C 
ATOM     14  O   UNL     1       0.540  -2.555  -0.546  0.00  0.00    -0.270 OA
ATOM     15  H   UNL     1       1.240   0.190  -1.777  0.00  0.00    +0.149 HD
BRANCH  12  17
ATOM     16  C   UNL     1       0.290   1.578   0.116  0.00  0.00    +0.024 C 
ATOM     17  C   UNL     1       0.263   0.048   0.102  0.00  0.00    +0.101 C 
ENDBRANCH  12  17
ENDBRANCH   5  13
ENDBRANCH   1  10
BRANCH   2  18
ATOM     18  C   UNL     1       1.602  -6.693  -0.675  0.00  0.00    +0.070 A 
ATOM     19  C   UNL     1       1.444  -6.387   0.678  0.00  0.00    +0.053 A 
ATOM     20  C   UNL     1       0.976  -7.351   1.550  0.00  0.00    +0.124 A 
ATOM     21  C   UNL     1       0.663  -8.618   1.083  0.00  0.00    +0.040 A 
ATOM     22  C   UNL     1       0.818  -8.925  -0.257  0.00  0.00    +0.036 A 
ATOM     23  C   UNL     1       1.280  -7.969  -1.138  0.00  0.00    +0.138 A 
ATOM     24  F   UNL     1       0.822  -7.058   2.860  0.00  0.00    -0.205 F 
BRANCH  23  25
ATOM     25  N   UNL     1       1.438  -8.299  -2.572  0.00  0.00    +0.057 N 
ATOM     26  O   UNL     1       1.082  -9.377  -2.988  0.00  0.00    -0.126 OA
ATOM     27  O   UNL     1       1.925  -7.491  -3.328  0.00  0.00    -0.126 OA
ENDBRANCH  23  25
ENDBRANCH   2  18
TORSDOF 5
