REMARK  Name = ZINC00945686
REMARK  8 active torsions:
REMARK  status: ('A' for Active; 'I' for Inactive)
REMARK    1  A    between atoms: C_1  and  C_2
REMARK    2  A    between atoms: C_3  and  C_9
REMARK    3  A    between atoms: C_4  and  C_8
REMARK    4  A    between atoms: C_9  and  C_10
REMARK    5  A    between atoms: C_10  and  C_11
REMARK    6  A    between atoms: N_13  and  N_14
REMARK    7  A    between atoms: C_15  and  C_16
REMARK    8  A    between atoms: C_15  and  C_17
REMARK                            x       y       z     vdW  Elec       q    Type
REMARK                         _______ _______ _______ _____ _____    ______ ____
ROOT
ATOM      1  C   UNL     1       2.434  -3.722  -1.484  0.00  0.00    +0.233 C 
ATOM      2  O   UNL     1       2.642  -4.301  -0.438  0.00  0.00    -0.274 OA
ATOM      3  N   UNL     1       2.643  -4.352  -2.656  0.00  0.00    -0.207 N 
ATOM      4  H   UNL     1       2.476  -3.889  -3.492  0.00  0.00    +0.177 HD
ENDROOT
BRANCH   3   5
ATOM      5  N   UNL     1       3.101  -5.676  -2.668  0.00  0.00    -0.185 NA
ATOM      6  C   UNL     1       3.302  -6.284  -3.797  0.00  0.00    +0.063 C 
ATOM      7  C   UNL     1       3.043  -5.564  -5.096  0.00  0.00    +0.068 C 
BRANCH   6   8
ATOM      8  C   UNL     1       3.784  -7.677  -3.809  0.00  0.00    -0.002 A 
ATOM      9  C   UNL     1       3.996  -8.336  -5.023  0.00  0.00    +0.011 A 
ATOM     10  C   UNL     1       4.452  -9.637  -5.027  0.00  0.00    +0.016 A 
ATOM     11  C   UNL     1       4.689 -10.295  -3.832  0.00  0.00    +0.018 A 
ATOM     12  C   UNL     1       4.475  -9.650  -2.625  0.00  0.00    +0.016 A 
ATOM     13  C   UNL     1       4.024  -8.347  -2.607  0.00  0.00    +0.011 A 
ATOM     14 BR   UNL     1       5.308 -12.082  -3.847  0.00  0.00    -0.050 Br
ENDBRANCH   6   8
ENDBRANCH   3   5
BRANCH   1  15
ATOM     15  C   UNL     1       1.942  -2.297  -1.471  0.00  0.00    +0.102 C 
BRANCH  15  16
ATOM     16  C   UNL     1       1.789  -1.823  -0.025  0.00  0.00    +0.048 C 
BRANCH  16  19
ATOM     17  C   UNL     1      -1.203  -0.909   0.009  0.00  0.00    +0.065 C 
ATOM     18  C   UNL     1       0.002  -0.004   0.002  0.00  0.00    +0.036 A 
ATOM     19  C   UNL     1       1.296  -0.399  -0.013  0.00  0.00    -0.004 A 
ATOM     20  C   UNL     1       2.096   0.748  -0.014  0.00  0.00    +0.063 A 
ATOM     21  N   UNL     1       1.311   1.794  -0.001  0.00  0.00    -0.179 NA
ATOM     22  N   UNL     1      -0.016   1.345   0.009  0.00  0.00    -0.281 N 
ATOM     23  H   UNL     1      -0.833   1.923   0.020  0.00  0.00    +0.189 HD
ATOM     24  C   UNL     1       3.603   0.775  -0.028  0.00  0.00    +0.068 C 
ENDBRANCH  16  19
ENDBRANCH  15  16
ENDBRANCH   1  15
TORSDOF 5
