REMARK  Name = ZINC48854049
REMARK  6 active torsions:
REMARK  status: ('A' for Active; 'I' for Inactive)
REMARK    1  A    between atoms: C_3  and  C_6
REMARK    2  A    between atoms: C_6  and  C_8
REMARK    3  A    between atoms: C_6  and  N_24
REMARK    4  A    between atoms: C_8  and  N_9
REMARK    5  A    between atoms: C_10  and  C_12
REMARK    6  A    between atoms: N_14  and  C_15
REMARK                            x       y       z     vdW  Elec       q    Type
REMARK                         _______ _______ _______ _____ _____    ______ ____
ROOT
ATOM      1  N   UNL     1       5.999   2.127   1.312  0.00  0.00    -0.309 N 
ATOM      2  C   UNL     1       6.899   2.114   2.315  0.00  0.00    +0.299 C 
ATOM      3  O   UNL     1       6.546   1.845   3.445  0.00  0.00    -0.265 OA
ATOM      4  H   UNL     1       6.282   2.342   0.410  0.00  0.00    +0.149 HD
ENDROOT
BRANCH   2   5
ATOM      5  C   UNL     1       8.332   2.432   2.037  0.00  0.00    +0.303 C 
ATOM      6  O   UNL     1       8.685   2.702   0.908  0.00  0.00    -0.265 OA
ATOM      7  N   UNL     1       9.232   2.420   3.040  0.00  0.00    -0.278 N 
ATOM      8  H   UNL     1       8.939   2.273   3.953  0.00  0.00    +0.155 HD
BRANCH   7   9
ATOM      9  C   UNL     1      10.588   2.618   2.765  0.00  0.00    +0.034 A 
ATOM     10  C   UNL     1      10.974   3.494   1.758  0.00  0.00    +0.023 A 
ATOM     11  C   UNL     1      12.313   3.686   1.491  0.00  0.00    +0.006 A 
ATOM     12  C   UNL     1      13.276   3.009   2.222  0.00  0.00    -0.044 A 
ATOM     13  C   UNL     1      12.895   2.136   3.225  0.00  0.00    -0.042 A 
ATOM     14  C   UNL     1      11.553   1.944   3.500  0.00  0.00    +0.027 A 
ATOM     15  C   UNL     1      14.124   1.528   3.868  0.00  0.00    +0.036 C 
ATOM     16  C   UNL     1      15.271   1.784   2.868  0.00  0.00    +0.009 C 
ATOM     17  C   UNL     1      14.787   3.046   2.124  0.00  0.00    +0.036 C 
ENDBRANCH   7   9
ENDBRANCH   2   5
BRANCH   1  18
ATOM     18  C   UNL     1       4.594   1.815   1.585  0.00  0.00    +0.094 C 
BRANCH  18  19
ATOM     19  C   UNL     1       3.815   1.778   0.269  0.00  0.00    -0.013 C 
BRANCH  19  20
ATOM     20  N   UNL     1       2.437   1.341   0.528  0.00  0.00    +0.386 N 
ATOM     21  C   UNL     1       1.719   1.122  -0.754  0.00  0.00    -0.078 C 
ATOM     22  C   UNL     1       0.564   0.169  -0.356  0.00  0.00    -0.020 C 
ATOM     23  C   UNL     1       1.226  -0.758   0.690  0.00  0.00    -0.020 C 
ATOM     24  C   UNL     1       2.438   0.032   1.217  0.00  0.00    -0.078 C 
ATOM     25  H   UNL     1       1.952   2.027   1.086  0.00  0.00    -0.081 HD
ENDBRANCH  19  20
BRANCH  19  28
ATOM     26  C   UNL     1       4.373   4.961  -1.748  0.00  0.00    +0.008 A 
ATOM     27  C   UNL     1       4.566   3.653  -1.343  0.00  0.00    +0.009 A 
ATOM     28  C   UNL     1       3.799   3.155  -0.344  0.00  0.00    -0.022 A 
ATOM     29  S   UNL     1       2.762   4.552   0.058  0.00  0.00    -0.103 S 
ATOM     30  C   UNL     1       3.422   5.706  -1.133  0.00  0.00    +0.045 A 
ENDBRANCH  19  28
ENDBRANCH  18  19
ENDBRANCH   1  18
TORSDOF 6
