REMARK  Name = ZINC66277826
REMARK  8 active torsions:
REMARK  status: ('A' for Active; 'I' for Inactive)
REMARK    1  A    between atoms: C_1  and  C_2
REMARK    2  A    between atoms: C_5  and  O_27
REMARK    3  A    between atoms: C_6  and  C_8
REMARK    4  A    between atoms: C_8  and  C_10
REMARK    5  A    between atoms: C_8  and  N_11
REMARK    6  A    between atoms: C_12  and  C_14
REMARK    7  A    between atoms: C_16  and  N_24
REMARK    8  A    between atoms: O_27  and  C_28
REMARK                            x       y       z     vdW  Elec       q    Type
REMARK                         _______ _______ _______ _____ _____    ______ ____
ROOT
ATOM      1  N   UNL     1       0.630  -1.997   3.542  0.00  0.00    -0.305 N 
ATOM      2  C   UNL     1       1.298  -2.561   4.569  0.00  0.00    +0.248 C 
ATOM      3  O   UNL     1       1.420  -3.769   4.624  0.00  0.00    -0.270 OA
ATOM      4  H   UNL     1       0.532  -1.033   3.499  0.00  0.00    +0.150 HD
ENDROOT
BRANCH   2   5
ATOM      5  C   UNL     1       1.879  -1.712   5.626  0.00  0.00    +0.084 A 
ATOM      6  C   UNL     1       1.735  -0.323   5.569  0.00  0.00    +0.049 A 
ATOM      7  C   UNL     1       2.280   0.467   6.557  0.00  0.00    +0.131 A 
ATOM      8  C   UNL     1       2.972  -0.109   7.609  0.00  0.00    +0.082 A 
ATOM      9  C   UNL     1       3.124  -1.484   7.680  0.00  0.00    +0.165 A 
ATOM     10  C   UNL     1       2.574  -2.294   6.694  0.00  0.00    +0.174 A 
ATOM     11  O   UNL     1       2.701  -3.645   6.750  0.00  0.00    -0.484 OA
ATOM     12  C   UNL     1       3.712  -4.161   7.622  0.00  0.00    +0.270 C 
ATOM     13  C   UNL     1       3.609  -3.426   8.965  0.00  0.00    +0.270 C 
ATOM     14  O   UNL     1       3.812  -2.027   8.722  0.00  0.00    -0.485 OA
BRANCH   7  15
ATOM     15  N   UNL     1       2.125   1.938   6.495  0.00  0.00    +0.057 N 
ATOM     16  O   UNL     1       1.521   2.443   5.577  0.00  0.00    -0.126 OA
ATOM     17  O   UNL     1       2.602   2.633   7.361  0.00  0.00    -0.126 OA
ENDBRANCH   7  15
ENDBRANCH   2   5
BRANCH   1  18
ATOM     18  C   UNL     1       0.052  -2.841   2.493  0.00  0.00    +0.104 C 
ATOM     19  C   UNL     1      -1.352  -3.283   2.910  0.00  0.00    +0.033 C 
BRANCH  18  25
ATOM     20  C   UNL     1      -0.349   1.536   0.102  0.00  0.00    +0.044 C 
ATOM     21  C   UNL     1      -0.220   0.035   0.062  0.00  0.00    -0.050 A 
ATOM     22  C   UNL     1      -0.175  -0.622  -1.154  0.00  0.00    +0.007 A 
ATOM     23  C   UNL     1      -0.057  -1.997  -1.193  0.00  0.00    +0.046 A 
ATOM     24  C   UNL     1       0.017  -2.720  -0.011  0.00  0.00    +0.125 A 
ATOM     25  C   UNL     1      -0.028  -2.059   1.207  0.00  0.00    +0.014 A 
ATOM     26  C   UNL     1      -0.140  -0.682   1.241  0.00  0.00    +0.012 A 
BRANCH  24  27
ATOM     27  O   UNL     1       0.133  -4.074  -0.047  0.00  0.00    -0.495 OA
ATOM     28  C   UNL     1       0.172  -4.687  -1.337  0.00  0.00    +0.277 C 
ENDBRANCH  24  27
ENDBRANCH  18  25
ENDBRANCH   1  18
TORSDOF 5
