REMARK  Name = ZINC13396881
REMARK  7 active torsions:
REMARK  status: ('A' for Active; 'I' for Inactive)
REMARK    1  A    between atoms: C_1  and  C_2
REMARK    2  A    between atoms: C_5  and  C_29
REMARK    3  A    between atoms: C_6  and  C_8
REMARK    4  A    between atoms: N_10  and  C_11
REMARK    5  A    between atoms: C_14  and  S_17
REMARK    6  A    between atoms: S_17  and  N_20
REMARK    7  A    between atoms: C_24  and  C_27
REMARK                            x       y       z     vdW  Elec       q    Type
REMARK                         _______ _______ _______ _____ _____    ______ ____
ROOT
ATOM      1  C   UNL     1      -2.290   2.529   3.789  0.00  0.00    +0.034 A 
ATOM      2  C   UNL     1      -2.491   1.262   3.258  0.00  0.00    +0.025 A 
ATOM      3  C   UNL     1      -1.757   0.849   2.163  0.00  0.00    +0.030 A 
ATOM      4  C   UNL     1      -0.822   1.695   1.597  0.00  0.00    +0.106 A 
ATOM      5  C   UNL     1      -0.616   2.956   2.127  0.00  0.00    +0.030 A 
ATOM      6  C   UNL     1      -1.350   3.377   3.218  0.00  0.00    +0.025 A 
ENDROOT
BRANCH   1   9
ATOM      7  C   UNL     1      -4.314   2.562   5.038  0.00  0.00    +0.249 C 
ATOM      8  O   UNL     1      -4.800   1.775   4.250  0.00  0.00    -0.270 OA
ATOM      9  N   UNL     1      -3.031   2.950   4.898  0.00  0.00    -0.281 N 
ATOM     10  H   UNL     1      -2.621   3.521   5.567  0.00  0.00    +0.155 HD
BRANCH   7  16
ATOM     11  C   UNL     1      -4.798   5.594   8.971  0.00  0.00    +0.044 C 
ATOM     12  C   UNL     1      -5.368   4.553   8.043  0.00  0.00    -0.050 A 
ATOM     13  C   UNL     1      -6.660   4.093   8.231  0.00  0.00    +0.003 A 
ATOM     14  C   UNL     1      -7.191   3.138   7.383  0.00  0.00    +0.004 A 
ATOM     15  C   UNL     1      -6.436   2.640   6.340  0.00  0.00    -0.038 A 
ATOM     16  C   UNL     1      -5.130   3.095   6.149  0.00  0.00    +0.040 A 
ATOM     17  C   UNL     1      -4.601   4.060   7.008  0.00  0.00    +0.016 A 
ATOM     18  C   UNL     1      -7.018   1.604   5.414  0.00  0.00    +0.044 C 
ENDBRANCH   7  16
ENDBRANCH   1   9
BRANCH   4  19
ATOM     19  S   UNL     1       0.113   1.164   0.201  0.00  0.00    +0.061 S 
ATOM     20  O   UNL     1       0.123  -0.257   0.236  0.00  0.00    -0.153 OA
ATOM     21  O   UNL     1       1.306   1.935   0.194  0.00  0.00    -0.153 OA
BRANCH  19  22
ATOM     22  N   UNL     1      -0.739   1.597  -1.152  0.00  0.00    -0.176 NA
ATOM     23  C   UNL     1      -1.719   0.678  -1.746  0.00  0.00    +0.109 C 
ATOM     24  C   UNL     1      -3.060   1.415  -1.881  0.00  0.00    +0.018 C 
ATOM     25  C   UNL     1      -2.849   2.706  -2.674  0.00  0.00    +0.017 C 
ATOM     26  C   UNL     1      -1.874   3.615  -1.923  0.00  0.00    +0.118 C 
ATOM     27  C   UNL     1      -0.523   2.905  -1.785  0.00  0.00    +0.124 C 
BRANCH  26  28
ATOM     28  C   UNL     1      -1.691   4.900  -2.689  0.00  0.00    +0.360 C 
ATOM     29  O   UNL     1      -0.595   5.217  -3.085  0.00  0.00    -0.246 OA
ATOM     30  O   UNL     1      -2.747   5.692  -2.931  0.00  0.00    -0.246 OA
ENDBRANCH  26  28
ENDBRANCH  19  22
ENDBRANCH   4  19
TORSDOF 5
