REMARK  Name = ZINC21986589
REMARK  9 active torsions:
REMARK  status: ('A' for Active; 'I' for Inactive)
REMARK    1  A    between atoms: C_1  and  C_2
REMARK    2  A    between atoms: C_2  and  C_3
REMARK    3  A    between atoms: C_2  and  C_4
REMARK    4  A    between atoms: C_2  and  O_5
REMARK    5  A    between atoms: O_5  and  C_6
REMARK    6  A    between atoms: C_21  and  C_23
REMARK    7  A    between atoms: C_23  and  C_24
REMARK    8  A    between atoms: C_24  and  O_26
REMARK    9  A    between atoms: O_26  and  C_27
REMARK                            x       y       z     vdW  Elec       q    Type
REMARK                         _______ _______ _______ _____ _____    ______ ____
ROOT
ATOM      1  C   UNL     1      -4.648   2.276   1.016  0.00  0.00    +0.404 C 
ATOM      2  O   UNL     1      -4.910   1.180   1.470  0.00  0.00    -0.226 OA
ATOM      3  N   UNL     1      -3.560   2.440   0.237  0.00  0.00    -0.258 N 
ATOM      4  C   UNL     1      -3.295   3.726  -0.426  0.00  0.00    +0.116 C 
ATOM      5  C   UNL     1      -1.996   4.318   0.135  0.00  0.00    +0.056 C 
ATOM      6  C   UNL     1      -0.956   3.231   0.206  0.00  0.00    -0.016 A 
ATOM      7  C   UNL     1       0.491   3.386   0.332  0.00  0.00    +0.003 A 
ATOM      8  C   UNL     1       1.350   4.484   0.419  0.00  0.00    +0.010 A 
ATOM      9  C   UNL     1       2.696   4.286   0.534  0.00  0.00    +0.001 A 
ATOM     10  C   UNL     1       3.220   3.000   0.565  0.00  0.00    +0.002 A 
ATOM     11  C   UNL     1       2.392   1.903   0.481  0.00  0.00    +0.026 A 
ATOM     12  C   UNL     1       1.017   2.080   0.363  0.00  0.00    +0.047 A 
ATOM     13  N   UNL     1      -0.045   1.209   0.261  0.00  0.00    -0.356 N 
ATOM     14  H   UNL     1       0.132   0.123   0.269  0.00  0.00    +0.166 HD
ATOM     15  C   UNL     1      -1.213   1.909   0.160  0.00  0.00    +0.042 A 
ATOM     16  C   UNL     1      -2.607   1.336   0.030  0.00  0.00    +0.137 C 
ENDROOT
BRANCH   1  17
ATOM     17  O   UNL     1      -5.444   3.327   1.290  0.00  0.00    -0.445 OA
BRANCH  17  19
ATOM     18  C   UNL     1      -6.131   2.549   3.493  0.00  0.00    +0.055 C 
ATOM     19  C   UNL     1      -6.598   3.076   2.135  0.00  0.00    +0.107 C 
ATOM     20  C   UNL     1      -7.377   4.379   2.333  0.00  0.00    +0.055 C 
ATOM     21  C   UNL     1      -7.503   2.038   1.468  0.00  0.00    +0.055 C 
ENDBRANCH  17  19
ENDBRANCH   1  17
BRANCH  16  22
ATOM     22  C   UNL     1      -2.829   0.252   1.087  0.00  0.00    +0.149 C 
BRANCH  22  23
ATOM     23  C   UNL     1      -2.674   0.852   2.461  0.00  0.00    +0.309 C 
ATOM     24  O   UNL     1      -2.489   2.039   2.585  0.00  0.00    -0.251 OA
BRANCH  23  25
ATOM     25  O   UNL     1      -2.740   0.066   3.547  0.00  0.00    -0.468 OA
ATOM     26  C   UNL     1      -2.582   0.711   4.838  0.00  0.00    +0.280 C 
ENDBRANCH  23  25
ENDBRANCH  22  23
ENDBRANCH  16  22
TORSDOF 5
