REMARK  Name = ZINC30848527
REMARK  10 active torsions:
REMARK  status: ('A' for Active; 'I' for Inactive)
REMARK    1  A    between atoms: C_1  and  C_2
REMARK    2  A    between atoms: C_5  and  N_8
REMARK    3  A    between atoms: N_8  and  S_9
REMARK    4  A    between atoms: S_9  and  C_12
REMARK    5  A    between atoms: C_14  and  C_19
REMARK    6  A    between atoms: N_21  and  C_22
REMARK    7  A    between atoms: C_22  and  C_24
REMARK    8  A    between atoms: C_22  and  C_25
REMARK    9  A    between atoms: C_28  and  C_32
REMARK   10  A    between atoms: C_30  and  C_31
REMARK                            x       y       z     vdW  Elec       q    Type
REMARK                         _______ _______ _______ _____ _____    ______ ____
ROOT
ATOM      1  C   UNL     1       1.476  -0.567  -0.104  0.00  0.00    +0.129 A 
ATOM      2  C   UNL     1       0.357   0.231   0.011  0.00  0.00    +0.043 A 
ATOM      3  C   UNL     1       0.486   1.620  -0.043  0.00  0.00    +0.039 A 
ATOM      4  C   UNL     1       1.748   2.193  -0.211  0.00  0.00    +0.014 A 
ATOM      5  C   UNL     1       2.859   1.385  -0.324  0.00  0.00    +0.023 A 
ATOM      6  C   UNL     1       2.725   0.007  -0.271  0.00  0.00    +0.068 A 
ATOM      7 CL   UNL     1       4.129  -1.004  -0.413  0.00  0.00    -0.082 Cl
ENDROOT
BRANCH   3   8
ATOM      8  C   UNL     1      -0.710   2.481   0.073  0.00  0.00    +0.245 C 
ATOM      9  O   UNL     1      -1.808   1.980   0.215  0.00  0.00    -0.270 OA
ATOM     10  N   UNL     1      -0.583   3.822   0.021  0.00  0.00    -0.305 N 
ATOM     11  H   UNL     1       0.411   4.276  -0.107  0.00  0.00    +0.150 HD
BRANCH  10  12
ATOM     12  C   UNL     1      -1.768   4.675   0.136  0.00  0.00    +0.101 C 
ATOM     13  C   UNL     1      -2.420   4.831  -1.239  0.00  0.00    +0.033 C 
BRANCH  12  14
ATOM     14  C   UNL     1      -1.364   6.030   0.656  0.00  0.00    -0.025 A 
ATOM     15  C   UNL     1      -0.072   6.485   0.468  0.00  0.00    +0.006 A 
ATOM     16  C   UNL     1       0.298   7.730   0.941  0.00  0.00    +0.004 A 
ATOM     17  C   UNL     1      -0.621   8.516   1.612  0.00  0.00    -0.050 A 
ATOM     18  C   UNL     1      -1.911   8.059   1.805  0.00  0.00    +0.007 A 
ATOM     19  C   UNL     1      -2.282   6.816   1.327  0.00  0.00    -0.045 A 
ATOM     20  C   UNL     1      -3.688   6.317   1.538  0.00  0.00    +0.044 C 
ATOM     21  C   UNL     1      -0.215   9.871   2.133  0.00  0.00    +0.044 C 
ENDBRANCH  12  14
ENDBRANCH  10  12
ENDBRANCH   3   8
BRANCH   1  22
ATOM     22  S   UNL     1       1.316  -2.320  -0.037  0.00  0.00    +0.093 S 
ATOM     23  O   UNL     1       2.284  -2.781   0.896  0.00  0.00    -0.148 OA
ATOM     24  O   UNL     1      -0.071  -2.596   0.105  0.00  0.00    -0.148 OA
BRANCH  22  25
ATOM     25  N   UNL     1       1.767  -2.910  -1.517  0.00  0.00    -0.098 NA
BRANCH  25  30
ATOM     26  C   UNL     1      -1.121  -1.420  -6.164  0.00  0.00    +0.044 C 
ATOM     27  C   UNL     1      -0.354  -1.816  -4.929  0.00  0.00    -0.050 A 
ATOM     28  C   UNL     1       1.029  -1.796  -4.940  0.00  0.00    +0.005 A 
ATOM     29  C   UNL     1       1.736  -2.158  -3.810  0.00  0.00    +0.027 A 
ATOM     30  C   UNL     1       1.056  -2.543  -2.662  0.00  0.00    +0.074 A 
ATOM     31  C   UNL     1      -0.333  -2.567  -2.656  0.00  0.00    +0.027 A 
ATOM     32  C   UNL     1      -1.034  -2.199  -3.788  0.00  0.00    +0.005 A 
ENDBRANCH  25  30
ENDBRANCH  22  25
ENDBRANCH   1  22
TORSDOF 6
