REMARK  Name = ZINC02282687
REMARK  11 active torsions:
REMARK  status: ('A' for Active; 'I' for Inactive)
REMARK    1  A    between atoms: C_1  and  C_2
REMARK    2  A    between atoms: C_2  and  O_3
REMARK    3  A    between atoms: O_3  and  C_4
REMARK    4  A    between atoms: C_4  and  C_6
REMARK    5  A    between atoms: C_6  and  C_7
REMARK    6  A    between atoms: C_6  and  N_11
REMARK    7  A    between atoms: C_6  and  O_27
REMARK    8  A    between atoms: N_14  and  C_15
REMARK    9  A    between atoms: C_16  and  C_24
REMARK   10  A    between atoms: O_27  and  C_28
REMARK   11  A    between atoms: C_28  and  C_29
REMARK                            x       y       z     vdW  Elec       q    Type
REMARK                         _______ _______ _______ _____ _____    ______ ____
ROOT
ATOM      1  N   UNL     1      -0.828   3.231   3.671  0.00  0.00    -0.255 N 
ATOM      2  C   UNL     1      -1.424   3.768   4.754  0.00  0.00    +0.307 C 
ATOM      3  O   UNL     1      -1.693   3.068   5.711  0.00  0.00    -0.252 OA
ATOM      4  N   UNL     1      -1.720   5.083   4.777  0.00  0.00    -0.263 N 
ATOM      5  H   UNL     1      -0.545   3.801   2.940  0.00  0.00    +0.154 HD
ATOM      6  H   UNL     1      -1.506   5.642   4.014  0.00  0.00    +0.157 HD
ENDROOT
BRANCH   4   7
ATOM      7  C   UNL     1      -2.333   5.636   5.891  0.00  0.00    +0.086 A 
ATOM      8  C   UNL     1      -2.708   6.955   6.103  0.00  0.00    +0.068 A 
ATOM      9  C   UNL     1      -3.345   7.277   7.369  0.00  0.00    -0.023 A 
ATOM     10  C   UNL     1      -3.493   6.239   8.219  0.00  0.00    -0.004 A 
ATOM     11  S   UNL     1      -2.810   4.850   7.359  0.00  0.00    -0.077 S 
ATOM     12  C   UNL     1      -4.102   6.270   9.587  0.00  0.00    +0.043 C 
ATOM     13  C   UNL     1      -4.200   7.734  10.039  0.00  0.00    +0.005 C 
ATOM     14  C   UNL     1      -4.813   8.561   8.905  0.00  0.00    +0.005 C 
ATOM     15  C   UNL     1      -3.818   8.675   7.748  0.00  0.00    +0.037 C 
BRANCH   8  16
ATOM     16  C   UNL     1      -2.475   7.985   5.085  0.00  0.00    +0.244 C 
ATOM     17  O   UNL     1      -3.324   8.211   4.243  0.00  0.00    -0.270 OA
ATOM     18  N   UNL     1      -1.321   8.681   5.083  0.00  0.00    -0.325 N 
ATOM     19  H   UNL     1      -0.644   8.500   5.755  0.00  0.00    +0.145 HD
ATOM     20  H   UNL     1      -1.167   9.362   4.410  0.00  0.00    +0.145 HD
ENDBRANCH   8  16
ENDBRANCH   4   7
BRANCH   1  21
ATOM     21  C   UNL     1      -0.607   1.784   3.599  0.00  0.00    +0.333 C 
BRANCH  21  22
ATOM     22  C   UNL     1      -1.937   1.079   3.324  0.00  0.00    +0.447 C 
ATOM     23  F   UNL     1      -2.797   1.264   4.412  0.00  0.00    -0.166 F 
ATOM     24  F   UNL     1      -2.520   1.616   2.171  0.00  0.00    -0.166 F 
ATOM     25  F   UNL     1      -1.709  -0.289   3.138  0.00  0.00    -0.166 F 
ENDBRANCH  21  22
BRANCH  21  26
ATOM     26  C   UNL     1       0.363   1.479   2.488  0.00  0.00    +0.368 C 
ATOM     27  O   UNL     1       1.365   0.843   2.718  0.00  0.00    -0.245 OA
BRANCH  26  28
ATOM     28  O   UNL     1       0.115   1.913   1.242  0.00  0.00    -0.462 OA
BRANCH  28  30
ATOM     29  C   UNL     1       0.642   2.157  -1.123  0.00  0.00    +0.048 C 
ATOM     30  C   UNL     1       1.093   1.582   0.221  0.00  0.00    +0.229 C 
ENDBRANCH  28  30
ENDBRANCH  26  28
ENDBRANCH  21  26
BRANCH  21  31
ATOM     31  O   UNL     1      -0.071   1.322   4.840  0.00  0.00    -0.331 OA
BRANCH  31  32
ATOM     32  C   UNL     1       1.118   2.002   5.249  0.00  0.00    +0.276 C 
BRANCH  32  33
ATOM     33  C   UNL     1       1.601   1.428   6.583  0.00  0.00    +0.413 C 
ATOM     34  F   UNL     1       1.872   0.064   6.432  0.00  0.00    -0.168 F 
ATOM     35  F   UNL     1       0.608   1.602   7.552  0.00  0.00    -0.168 F 
ATOM     36  F   UNL     1       2.765   2.093   6.982  0.00  0.00    -0.168 F 
ENDBRANCH  32  33
ENDBRANCH  31  32
ENDBRANCH  21  31
ENDBRANCH   1  21
TORSDOF 10
