REMARK  Name = ZINC40476330
REMARK  9 active torsions:
REMARK  status: ('A' for Active; 'I' for Inactive)
REMARK    1  A    between atoms: C_1  and  C_2
REMARK    2  A    between atoms: C_2  and  C_3
REMARK    3  A    between atoms: C_3  and  C_4
REMARK    4  A    between atoms: C_4  and  C_5
REMARK    5  A    between atoms: C_5  and  S_6
REMARK    6  A    between atoms: S_6  and  C_7
REMARK    7  A    between atoms: C_18  and  C_20
REMARK    8  A    between atoms: C_31  and  C_33
REMARK    9  A    between atoms: C_31  and  C_34
REMARK                            x       y       z     vdW  Elec       q    Type
REMARK                         _______ _______ _______ _____ _____    ______ ____
ROOT
ATOM      1  C   UNL     1       2.402  -4.784   3.933  0.00  0.00    +0.171 A 
ATOM      2  N   UNL     1       2.608  -6.097   4.233  0.00  0.00    -0.302 N 
ATOM      3  H   UNL     1       2.275  -6.787   3.638  0.00  0.00    +0.171 HD
ATOM      4  C   UNL     1       3.273  -6.439   5.356  0.00  0.00    +0.258 A 
ATOM      5  O   UNL     1       3.461  -7.612   5.635  0.00  0.00    -0.267 OA
ATOM      6  C   UNL     1       3.745  -5.423   6.195  0.00  0.00    +0.069 A 
ATOM      7  C   UNL     1       3.513  -4.104   5.843  0.00  0.00    +0.135 A 
ATOM      8  N   UNL     1       2.848  -3.824   4.717  0.00  0.00    -0.208 NA
ATOM      9  N   UNL     1       3.977  -3.088   6.654  0.00  0.00    -0.302 N 
ATOM     10  C   UNL     1       4.970  -3.321   7.565  0.00  0.00    +0.017 C 
ATOM     11  C   UNL     1       5.257  -4.575   7.974  0.00  0.00    +0.024 C 
ATOM     12  C   UNL     1       4.485  -5.762   7.454  0.00  0.00    +0.094 C 
ATOM     13  C   UNL     1       6.288  -4.817   8.898  0.00  0.00    +0.162 C 
ATOM     14  O   UNL     1       6.515  -5.958   9.252  0.00  0.00    -0.292 OA
ATOM     15  C   UNL     1       7.116  -3.694   9.459  0.00  0.00    +0.086 C 
ATOM     16  C   UNL     1       7.168  -2.554   8.435  0.00  0.00    -0.023 C 
ATOM     17  C   UNL     1       5.734  -2.136   8.105  0.00  0.00    +0.058 C 
ATOM     18  C   UNL     1       7.869  -3.036   7.164  0.00  0.00    +0.011 C 
ATOM     19  C   UNL     1       7.927  -1.365   9.028  0.00  0.00    +0.011 C 
ATOM     20  H   UNL     1       3.595  -2.200   6.577  0.00  0.00    +0.153 HD
ENDROOT
BRANCH  12  21
ATOM     21  C   UNL     1       3.498  -6.205   8.503  0.00  0.00    -0.015 A 
ATOM     22  C   UNL     1       2.494  -5.347   8.914  0.00  0.00    +0.006 A 
ATOM     23  C   UNL     1       1.589  -5.753   9.876  0.00  0.00    +0.002 A 
ATOM     24  C   UNL     1       1.685  -7.017  10.428  0.00  0.00    +0.021 A 
ATOM     25  C   UNL     1       2.688  -7.876  10.018  0.00  0.00    +0.060 A 
ATOM     26  C   UNL     1       3.592  -7.472   9.050  0.00  0.00    +0.063 A 
ATOM     27 CL   UNL     1       4.847  -8.552   8.529  0.00  0.00    -0.082 Cl
ATOM     28 CL   UNL     1       2.809  -9.463  10.711  0.00  0.00    -0.082 Cl
ENDBRANCH  12  21
BRANCH   1  29
ATOM     29  S   UNL     1       1.527  -4.361   2.463  0.00  0.00    -0.088 S 
BRANCH  29  30
ATOM     30  C   UNL     1       1.503  -2.548   2.473  0.00  0.00    +0.077 C 
BRANCH  30  31
ATOM     31  C   UNL     1       0.763  -2.041   1.233  0.00  0.00    +0.011 C 
BRANCH  31  32
ATOM     32  C   UNL     1       0.742  -0.511   1.242  0.00  0.00    +0.001 C 
BRANCH  32  34
ATOM     33  C   UNL     1      -0.019   1.526   0.010  0.00  0.00    +0.004 C 
ATOM     34  C   UNL     1       0.002  -0.004   0.002  0.00  0.00    -0.003 C 
ENDBRANCH  32  34
ENDBRANCH  31  32
ENDBRANCH  30  31
ENDBRANCH  29  30
ENDBRANCH   1  29
TORSDOF 6
