REMARK  Name = ZINC08772330
REMARK  11 active torsions:
REMARK  status: ('A' for Active; 'I' for Inactive)
REMARK    1  A    between atoms: C_1  and  C_2
REMARK    2  A    between atoms: C_7  and  N_8
REMARK    3  A    between atoms: C_9  and  C_11
REMARK    4  A    between atoms: C_11  and  N_54
REMARK    5  A    between atoms: C_12  and  N_54
REMARK    6  A    between atoms: C_13  and  C_14
REMARK    7  A    between atoms: C_13  and  N_54
REMARK    8  A    between atoms: N_16  and  C_17
REMARK    9  A    between atoms: N_16  and  C_18
REMARK   10  A    between atoms: C_18  and  C_19
REMARK   11  A    between atoms: N_21  and  C_22
REMARK                            x       y       z     vdW  Elec       q    Type
REMARK                         _______ _______ _______ _____ _____    ______ ____
ROOT
ATOM      1  C   UNL     1       4.387   3.708  -1.625  0.00  0.00    +0.019 C 
ENDROOT
BRANCH   1   2
ATOM      2  C   UNL     1       3.547   2.489  -1.342  0.00  0.00    +0.199 C 
ATOM      3  O   UNL     1       3.083   1.847  -2.260  0.00  0.00    -0.278 OA
ATOM      4  N   UNL     1       3.312   2.113  -0.070  0.00  0.00    -0.297 N 
ATOM      5  C   UNL     1       3.873   2.889   1.039  0.00  0.00    +0.132 C 
BRANCH   4   6
ATOM      6  C   UNL     1       2.496   0.928   0.205  0.00  0.00    +0.203 C 
BRANCH   6   7
ATOM      7  C   UNL     1       1.048   1.331   0.322  0.00  0.00    +0.235 C 
ATOM      8  O   UNL     1       0.730   2.494   0.190  0.00  0.00    -0.274 OA
ATOM      9  N   UNL     1       0.108   0.400   0.575  0.00  0.00    -0.284 N 
ATOM     10  H   UNL     1       0.351  -0.539   0.607  0.00  0.00    +0.155 HD
BRANCH   9  11
ATOM     11  C   UNL     1      -1.222   0.786   0.785  0.00  0.00    +0.034 A 
ATOM     12  C   UNL     1      -1.504   1.989   1.419  0.00  0.00    +0.026 A 
ATOM     13  C   UNL     1      -2.816   2.371   1.621  0.00  0.00    +0.040 A 
ATOM     14  C   UNL     1      -3.849   1.550   1.201  0.00  0.00    +0.124 A 
ATOM     15  C   UNL     1      -3.570   0.348   0.574  0.00  0.00    +0.040 A 
ATOM     16  C   UNL     1      -2.259  -0.035   0.365  0.00  0.00    +0.026 A 
ATOM     17  F   UNL     1      -5.132   1.923   1.404  0.00  0.00    -0.205 F 
ENDBRANCH   9  11
ENDBRANCH   6   7
ENDBRANCH   4   6
ENDBRANCH   1   2
BRANCH   1  19
ATOM     18  C   UNL     1       5.247   2.808  -3.702  0.00  0.00    -0.095 C 
ATOM     19  N   UNL     1       4.467   3.904  -3.087  0.00  0.00    +0.389 N 
ATOM     20  H   UNL     1       3.517   3.897  -3.477  0.00  0.00    -0.081 HD
BRANCH  19  21
ATOM     21  C   UNL     1       5.100   5.205  -3.389  0.00  0.00    +0.019 C 
BRANCH  21  23
ATOM     22  N   UNL     1       5.459   6.622  -5.385  0.00  0.00    -0.287 N 
ATOM     23  C   UNL     1       4.971   5.478  -4.866  0.00  0.00    +0.201 C 
ATOM     24  O   UNL     1       4.427   4.668  -5.587  0.00  0.00    -0.278 OA
ATOM     25  H   UNL     1       5.952   7.238  -4.822  0.00  0.00    +0.155 HD
BRANCH  22  32
ATOM     26  C   UNL     1       5.159   9.351  -6.130  0.00  0.00    +0.046 C 
ATOM     27  C   UNL     1       5.103   8.238  -7.144  0.00  0.00    -0.028 A 
ATOM     28  C   UNL     1       4.907   8.530  -8.480  0.00  0.00    +0.020 A 
ATOM     29  C   UNL     1       4.850   7.508  -9.411  0.00  0.00    +0.018 A 
ATOM     30  C   UNL     1       4.995   6.192  -9.008  0.00  0.00    +0.017 A 
ATOM     31  C   UNL     1       5.197   5.896  -7.674  0.00  0.00    +0.024 A 
ATOM     32  C   UNL     1       5.255   6.919  -6.737  0.00  0.00    +0.036 A 
ATOM     33 BR   UNL     1       4.573   7.910 -11.238  0.00  0.00    -0.050 Br
ENDBRANCH  22  32
ENDBRANCH  21  23
ENDBRANCH  19  21
ENDBRANCH   1  19
TORSDOF 8
