REMARK  Name = ZINC21149466
REMARK  5 active torsions:
REMARK  status: ('A' for Active; 'I' for Inactive)
REMARK    1  A    between atoms: C_5  and  S_7
REMARK    2  A    between atoms: S_7  and  N_10
REMARK    3  A    between atoms: N_13  and  C_16
REMARK    4  A    between atoms: C_16  and  C_17
REMARK    5  A    between atoms: N_21  and  C_22
REMARK                            x       y       z     vdW  Elec       q    Type
REMARK                         _______ _______ _______ _____ _____    ______ ____
ROOT
ATOM      1  N   UNL     1       5.181  -0.675  -3.854  0.00  0.00    -0.174 NA
ATOM      2  C   UNL     1       5.770   0.499  -3.195  0.00  0.00    +0.125 C 
ATOM      3  C   UNL     1       5.411   0.453  -1.706  0.00  0.00    +0.102 C 
ATOM      4  N   UNL     1       3.955   0.325  -1.561  0.00  0.00    -0.293 NA
ATOM      5  C   UNL     1       3.471  -0.937  -2.136  0.00  0.00    +0.102 C 
ATOM      6  C   UNL     1       3.751  -0.948  -3.643  0.00  0.00    +0.125 C 
ENDROOT
BRANCH   1   7
ATOM      7  S   UNL     1       6.102  -1.666  -4.809  0.00  0.00    +0.061 S 
ATOM      8  O   UNL     1       5.208  -2.314  -5.704  0.00  0.00    -0.153 OA
ATOM      9  O   UNL     1       7.201  -0.886  -5.262  0.00  0.00    -0.153 OA
BRANCH   7  14
ATOM     10  C   UNL     1       8.515  -3.710  -2.329  0.00  0.00    +0.005 A 
ATOM     11  C   UNL     1       7.820  -4.888  -2.132  0.00  0.00    +0.038 A 
ATOM     12  C   UNL     1       6.599  -5.084  -2.753  0.00  0.00    +0.125 A 
ATOM     13  C   UNL     1       6.074  -4.098  -3.572  0.00  0.00    +0.066 A 
ATOM     14  C   UNL     1       6.769  -2.920  -3.768  0.00  0.00    +0.108 A 
ATOM     15  C   UNL     1       7.992  -2.728  -3.151  0.00  0.00    +0.029 A 
ATOM     16  F   UNL     1       5.920  -6.236  -2.562  0.00  0.00    -0.205 F 
ENDBRANCH   7  14
ENDBRANCH   1   7
BRANCH   4  17
ATOM     17  C   UNL     1       3.553   0.450  -0.153  0.00  0.00    +0.162 C 
BRANCH  17  18
ATOM     18  C   UNL     1       2.052   0.560  -0.067  0.00  0.00    +0.170 A 
ATOM     19  N   UNL     1       1.204  -0.433  -0.022  0.00  0.00    -0.112 NA
ATOM     20  N   UNL     1      -0.002   0.004   0.048  0.00  0.00    -0.023 NA
ATOM     21  N   UNL     1      -0.008   1.293   0.052  0.00  0.00    -0.039 NA
ATOM     22  N   UNL     1       1.335   1.703  -0.023  0.00  0.00    -0.196 N 
BRANCH  22  23
ATOM     23  C   UNL     1       1.824   3.018  -0.047  0.00  0.00    +0.069 A 
ATOM     24  C   UNL     1       1.276   3.979   0.791  0.00  0.00    +0.029 A 
ATOM     25  C   UNL     1       1.762   5.272   0.768  0.00  0.00    +0.022 A 
ATOM     26  C   UNL     1       2.788   5.611  -0.096  0.00  0.00    +0.041 A 
ATOM     27  C   UNL     1       3.333   4.655  -0.936  0.00  0.00    +0.022 A 
ATOM     28  C   UNL     1       2.853   3.361  -0.913  0.00  0.00    +0.029 A 
ATOM     29 CL   UNL     1       3.393   7.238  -0.126  0.00  0.00    -0.084 Cl
ENDBRANCH  22  23
ENDBRANCH  17  18
ENDBRANCH   4  17
TORSDOF 5
