REMARK  Name = ZINC37499093
REMARK  4 active torsions:
REMARK  status: ('A' for Active; 'I' for Inactive)
REMARK    1  A    between atoms: C_1  and  C_2
REMARK    2  A    between atoms: C_3  and  N_11
REMARK    3  A    between atoms: C_7  and  N_8
REMARK    4  A    between atoms: C_12  and  C_14
REMARK                            x       y       z     vdW  Elec       q    Type
REMARK                         _______ _______ _______ _____ _____    ______ ____
ROOT
ATOM      1  C   UNL     1       0.098   1.646   0.111  0.00  0.00    +0.048 C 
ATOM      2  C   UNL     1       0.124   0.145  -0.018  0.00  0.00    +0.001 A 
ATOM      3  C   UNL     1      -0.072  -0.450  -1.257  0.00  0.00    +0.039 A 
ATOM      4  C   UNL     1      -0.046  -1.834  -1.372  0.00  0.00    +0.024 A 
ATOM      5  C   UNL     1       0.175  -2.614  -0.254  0.00  0.00    +0.004 A 
ATOM      6  C   UNL     1       0.370  -2.018   0.979  0.00  0.00    +0.033 A 
ATOM      7  C   UNL     1       0.350  -0.640   1.095  0.00  0.00    +0.131 A 
ENDROOT
BRANCH   3   8
ATOM      8  N   UNL     1      -0.296   0.343  -2.388  0.00  0.00    -0.281 N 
ATOM      9  C   UNL     1      -1.119  -0.091  -3.363  0.00  0.00    +0.249 C 
ATOM     10  O   UNL     1      -1.615  -1.200  -3.292  0.00  0.00    -0.270 OA
ATOM     11  H   UNL     1       0.142   1.204  -2.470  0.00  0.00    +0.155 HD
BRANCH   9  12
ATOM     12  C   UNL     1      -1.418   0.776  -4.513  0.00  0.00    +0.045 A 
ATOM     13  C   UNL     1      -2.299   0.348  -5.573  0.00  0.00    +0.036 A 
ATOM     14  C   UNL     1      -2.490   1.237  -6.570  0.00  0.00    +0.056 A 
ATOM     15  S   UNL     1      -1.491   2.623  -6.072  0.00  0.00    -0.089 S 
ATOM     16  C   UNL     1      -0.875   2.036  -4.626  0.00  0.00    +0.059 A 
ATOM     17 BR   UNL     1      -3.559   1.054  -8.119  0.00  0.00    -0.043 Br
ENDBRANCH   9  12
ENDBRANCH   3   8
BRANCH   7  18
ATOM     18  N   UNL     1       0.565  -0.007   2.416  0.00  0.00    +0.057 N 
ATOM     19  O   UNL     1       1.030   1.107   2.483  0.00  0.00    -0.126 OA
ATOM     20  O   UNL     1       0.275  -0.604   3.427  0.00  0.00    -0.126 OA
ENDBRANCH   7  18
TORSDOF 3
