REMARK  Name = ZINC39273043
REMARK  7 active torsions:
REMARK  status: ('A' for Active; 'I' for Inactive)
REMARK    1  A    between atoms: C_1  and  C_2
REMARK    2  A    between atoms: C_5  and  C_26
REMARK    3  A    between atoms: C_7  and  N_8
REMARK    4  A    between atoms: C_9  and  C_11
REMARK    5  A    between atoms: C_11  and  S_12
REMARK    6  A    between atoms: S_12  and  C_13
REMARK    7  A    between atoms: C_19  and  N_23
REMARK                            x       y       z     vdW  Elec       q    Type
REMARK                         _______ _______ _______ _____ _____    ______ ____
ROOT
ATOM      1  C   UNL     1      -0.168   0.071   4.882  0.00  0.00    +0.173 C 
ENDROOT
BRANCH   1   3
ATOM      2  N   UNL     1       0.025  -0.007   2.417  0.00  0.00    -0.285 N 
ATOM      3  C   UNL     1      -0.057  -0.681   3.581  0.00  0.00    +0.227 C 
ATOM      4  O   UNL     1      -0.040  -1.894   3.581  0.00  0.00    -0.275 OA
ATOM      5  H   UNL     1       0.078   0.962   2.421  0.00  0.00    +0.155 HD
BRANCH   2  12
ATOM      6  C   UNL     1      -1.266   1.183   0.183  0.00  0.00    +0.045 C 
ATOM      7  C   UNL     1      -0.586  -0.158   0.085  0.00  0.00    -0.029 A 
ATOM      8  C   UNL     1      -0.576  -0.839  -1.118  0.00  0.00    +0.006 A 
ATOM      9  C   UNL     1       0.044  -2.067  -1.216  0.00  0.00    +0.015 A 
ATOM     10  C   UNL     1       0.665  -2.627  -0.096  0.00  0.00    +0.065 A 
ATOM     11  C   UNL     1       0.654  -1.939   1.118  0.00  0.00    +0.038 A 
ATOM     12  C   UNL     1       0.033  -0.703   1.204  0.00  0.00    +0.037 A 
BRANCH  10  13
ATOM     13  C   UNL     1       1.329  -3.942  -0.197  0.00  0.00    +0.387 C 
ATOM     14  O   UNL     1       1.336  -4.543  -1.262  0.00  0.00    -0.241 OA
ATOM     15  O   UNL     1       1.871  -4.429   0.784  0.00  0.00    -0.241 OA
ENDBRANCH  10  13
ENDBRANCH   2  12
ENDBRANCH   1   3
BRANCH   1  16
ATOM     16  S   UNL     1      -0.259  -1.109   6.257  0.00  0.00    -0.079 S 
BRANCH  16  17
ATOM     17  C   UNL     1      -0.384  -0.088   7.688  0.00  0.00    +0.168 A 
ATOM     18  H   UNL     1      -0.497  -1.473   9.253  0.00  0.00    +0.168 HD
ATOM     19  N   UNL     1      -0.402   1.222   7.678  0.00  0.00    -0.222 NA
ATOM     20  C   UNL     1      -0.507   1.686   8.951  0.00  0.00    +0.090 A 
ATOM     21  C   UNL     1      -0.568   2.968   9.503  0.00  0.00    +0.032 A 
ATOM     22  C   UNL     1      -0.677   3.120  10.868  0.00  0.00    +0.035 A 
ATOM     23  C   UNL     1      -0.726   2.011  11.698  0.00  0.00    +0.128 A 
ATOM     24  C   UNL     1      -0.666   0.738  11.168  0.00  0.00    +0.060 A 
ATOM     25  C   UNL     1      -0.557   0.566   9.797  0.00  0.00    +0.069 A 
ATOM     26  N   UNL     1      -0.484  -0.544   8.972  0.00  0.00    -0.333 N 
BRANCH  23  27
ATOM     27  N   UNL     1      -0.842   2.193  13.162  0.00  0.00    +0.056 N 
ATOM     28  O   UNL     1      -0.894   3.307  13.631  0.00  0.00    -0.126 OA
ATOM     29  O   UNL     1      -0.885   1.229  13.890  0.00  0.00    -0.126 OA
ENDBRANCH  23  27
ENDBRANCH  16  17
ENDBRANCH   1  16
TORSDOF 6
