REMARK  Name = ZINC54705950
REMARK  6 active torsions:
REMARK  status: ('A' for Active; 'I' for Inactive)
REMARK    1  A    between atoms: C_4  and  N_17
REMARK    2  A    between atoms: C_5  and  C_7
REMARK    3  A    between atoms: N_9  and  C_10
REMARK    4  A    between atoms: C_10  and  C_11
REMARK    5  A    between atoms: C_18  and  C_20
REMARK    6  A    between atoms: C_22  and  C_25
REMARK                            x       y       z     vdW  Elec       q    Type
REMARK                         _______ _______ _______ _____ _____    ______ ____
ROOT
ATOM      1  C   UNL     1      -0.238   1.325  -0.096  0.00  0.00    +0.001 A 
ATOM      2  C   UNL     1       0.918   2.087  -0.133  0.00  0.00    +0.002 A 
ATOM      3  C   UNL     1       2.157   1.479  -0.117  0.00  0.00    +0.024 A 
ATOM      4  C   UNL     1       2.252   0.095  -0.064  0.00  0.00    +0.046 A 
ATOM      5  C   UNL     1       1.083  -0.680  -0.026  0.00  0.00    +0.058 A 
ATOM      6  C   UNL     1      -0.164  -0.050  -0.042  0.00  0.00    +0.015 A 
ENDROOT
BRANCH   5   7
ATOM      7  C   UNL     1       1.169  -2.152   0.030  0.00  0.00    +0.246 C 
ATOM      8  O   UNL     1       2.252  -2.693   0.141  0.00  0.00    -0.270 OA
ATOM      9  N   UNL     1       0.048  -2.896  -0.041  0.00  0.00    -0.309 N 
ATOM     10  H   UNL     1      -0.816  -2.464  -0.129  0.00  0.00    +0.149 HD
BRANCH   9  11
ATOM     11  C   UNL     1       0.134  -4.357   0.015  0.00  0.00    +0.136 C 
BRANCH  11  12
ATOM     12  C   UNL     1      -1.271  -4.955  -0.085  0.00  0.00    +0.135 C 
ATOM     13  C   UNL     1      -1.202  -6.487   0.094  0.00  0.00    +0.035 C 
ATOM     14  C   UNL     1      -2.243  -6.987  -0.944  0.00  0.00    +0.031 C 
ATOM     15  C   UNL     1      -2.069  -5.934  -2.067  0.00  0.00    +0.160 C 
ATOM     16  O   UNL     1      -1.819  -4.693  -1.382  0.00  0.00    -0.375 OA
ENDBRANCH  11  12
ENDBRANCH   9  11
ENDBRANCH   5   7
BRANCH   4  17
ATOM     17  N   UNL     1       3.500  -0.521  -0.049  0.00  0.00    -0.279 N 
ATOM     18  C   UNL     1       4.575   0.146   0.415  0.00  0.00    +0.270 C 
ATOM     19  O   UNL     1       4.439   1.245   0.914  0.00  0.00    -0.268 OA
ATOM     20  H   UNL     1       3.596  -1.431  -0.372  0.00  0.00    +0.155 HD
BRANCH  18  21
ATOM     21  C   UNL     1       5.924  -0.462   0.317  0.00  0.00    +0.169 A 
ATOM     22  C   UNL     1       7.128   0.118   0.765  0.00  0.00    +0.086 A 
ATOM     23  C   UNL     1       8.140  -0.754   0.493  0.00  0.00    +0.174 A 
ATOM     24  O   UNL     1       7.603  -1.838  -0.100  0.00  0.00    -0.353 OA
ATOM     25  N   UNL     1       6.205  -1.637  -0.196  0.00  0.00    -0.073 NA
BRANCH  23  26
ATOM     26  C   UNL     1       9.565  -0.549   0.792  0.00  0.00    +0.057 A 
ATOM     27  C   UNL     1      10.638  -1.384   0.541  0.00  0.00    +0.019 A 
ATOM     28  C   UNL     1      11.894  -0.967   0.917  0.00  0.00    +0.008 A 
ATOM     29  C   UNL     1      12.040   0.242   1.520  0.00  0.00    +0.046 A 
ATOM     30  S   UNL     1      10.362   0.848   1.569  0.00  0.00    -0.093 S 
ENDBRANCH  23  26
ENDBRANCH  18  21
ENDBRANCH   4  17
TORSDOF 6
