REMARK  Name = ZINC39487847
REMARK  14 active torsions:
REMARK  status: ('A' for Active; 'I' for Inactive)
REMARK    1  A    between atoms: C_1  and  C_2
REMARK    2  A    between atoms: C_2  and  C_3
REMARK    3  A    between atoms: C_2  and  C_4
REMARK    4  A    between atoms: C_4  and  C_5
REMARK    5  A    between atoms: C_5  and  C_37
REMARK    6  A    between atoms: N_7  and  C_30
REMARK    7  A    between atoms: N_10  and  C_11
REMARK    8  A    between atoms: C_11  and  C_12
REMARK    9  A    between atoms: C_12  and  C_24
REMARK   10  A    between atoms: N_15  and  S_18
REMARK   11  A    between atoms: S_18  and  C_21
REMARK   12  A    between atoms: C_21  and  C_22
REMARK   13  A    between atoms: C_21  and  C_23
REMARK   14  A    between atoms: C_35  and  O_36
REMARK                            x       y       z     vdW  Elec       q    Type
REMARK                         _______ _______ _______ _____ _____    ______ ____
ROOT
ATOM      1  C   UNL     1      -4.532  -2.863   2.867  0.00  0.00    +0.052 C 
ATOM      2  C   UNL     1      -3.327  -2.066   3.403  0.00  0.00    +0.141 C 
ATOM      3  N   UNL     1      -2.895  -1.262   2.250  0.00  0.00    -0.250 N 
ATOM      4  C   UNL     1      -3.693  -1.524   1.207  0.00  0.00    +0.310 C 
ATOM      5  O   UNL     1      -3.561  -0.995   0.120  0.00  0.00    -0.252 OA
ATOM      6  N   UNL     1      -4.651  -2.424   1.469  0.00  0.00    -0.278 N 
ATOM      7  C   UNL     1      -4.258  -4.367   2.936  0.00  0.00    +0.033 C 
ENDROOT
BRANCH   3   8
ATOM      8  C   UNL     1      -1.820  -0.363   2.243  0.00  0.00    +0.079 A 
ATOM      9  C   UNL     1      -0.572  -0.774   1.798  0.00  0.00    +0.027 A 
ATOM     10  C   UNL     1       0.487   0.114   1.792  0.00  0.00    +0.002 A 
ATOM     11  C   UNL     1       0.306   1.413   2.230  0.00  0.00    +0.004 A 
ATOM     12  C   UNL     1      -0.934   1.830   2.676  0.00  0.00    +0.047 A 
ATOM     13  C   UNL     1      -2.002   0.948   2.679  0.00  0.00    +0.138 A 
BRANCH  13  14
ATOM     14  O   UNL     1      -3.224   1.358   3.112  0.00  0.00    -0.505 OA
ATOM     15  H   UNL     1      -3.341   1.304   4.070  0.00  0.00    +0.292 HD
ENDBRANCH  13  14
ENDBRANCH   3   8
BRANCH   1  16
ATOM     16  C   UNL     1      -5.799  -2.513   3.650  0.00  0.00    +0.030 C 
BRANCH  16  18
ATOM     17  C   UNL     1      -5.729  -1.806   6.046  0.00  0.00    +0.007 C 
ATOM     18  C   UNL     1      -5.658  -3.002   5.093  0.00  0.00    -0.015 C 
ATOM     19  C   UNL     1      -6.791  -3.978   5.414  0.00  0.00    +0.007 C 
ENDBRANCH  16  18
ENDBRANCH   1  16
BRANCH   6  20
ATOM     20  C   UNL     1      -5.658  -2.894   0.514  0.00  0.00    +0.117 C 
BRANCH  20  21
ATOM     21  C   UNL     1      -6.620  -1.752   0.183  0.00  0.00    -0.008 C 
ATOM     22  C   UNL     1      -7.644  -2.230  -0.849  0.00  0.00    +0.026 C 
ATOM     23  C   UNL     1      -6.910  -2.700  -2.109  0.00  0.00    +0.109 C 
ATOM     24  N   UNL     1      -6.038  -1.616  -2.581  0.00  0.00    -0.181 NA
ATOM     25  C   UNL     1      -5.078  -1.021  -1.640  0.00  0.00    +0.109 C 
ATOM     26  C   UNL     1      -5.833  -0.570  -0.386  0.00  0.00    +0.026 C 
BRANCH  21  27
ATOM     27  C   UNL     1      -7.348  -1.314   1.456  0.00  0.00    -0.003 C 
ATOM     28  C   UNL     1      -8.336  -2.403   1.879  0.00  0.00    +0.004 C 
ATOM     29  C   UNL     1      -9.064  -1.965   3.152  0.00  0.00    +0.000 C 
ATOM     30  C   UNL     1      -9.823  -0.664   2.883  0.00  0.00    +0.000 C 
ATOM     31  C   UNL     1      -8.835   0.425   2.461  0.00  0.00    +0.000 C 
ATOM     32  C   UNL     1      -8.107  -0.013   1.188  0.00  0.00    +0.004 C 
ENDBRANCH  21  27
BRANCH  24  33
ATOM     33  S   UNL     1      -6.134  -1.074  -4.143  0.00  0.00    +0.034 S 
ATOM     34  O   UNL     1      -7.497  -1.253  -4.505  0.00  0.00    -0.158 OA
ATOM     35  O   UNL     1      -5.557   0.224  -4.113  0.00  0.00    -0.158 OA
BRANCH  33  36
ATOM     36  C   UNL     1      -5.081  -2.204  -5.094  0.00  0.00    +0.142 C 
ATOM     37  C   UNL     1      -5.048  -1.760  -6.558  0.00  0.00    +0.033 C 
ATOM     38  C   UNL     1      -3.662  -2.182  -4.522  0.00  0.00    +0.033 C 
ENDBRANCH  33  36
ENDBRANCH  24  33
ENDBRANCH  20  21
ENDBRANCH   6  20
TORSDOF 9
