REMARK  Name = ZINC36646874
REMARK  6 active torsions:
REMARK  status: ('A' for Active; 'I' for Inactive)
REMARK    1  A    between atoms: C_3  and  N_31
REMARK    2  A    between atoms: C_5  and  S_7
REMARK    3  A    between atoms: S_7  and  N_10
REMARK    4  A    between atoms: N_10  and  C_11
REMARK    5  A    between atoms: N_17  and  S_21
REMARK    6  A    between atoms: S_21  and  C_24
REMARK                            x       y       z     vdW  Elec       q    Type
REMARK                         _______ _______ _______ _____ _____    ______ ____
ROOT
ATOM      1  C   UNL     1       1.276  -4.303   1.859  0.00  0.00    +0.076 A 
ATOM      2  C   UNL     1       1.284  -5.243   0.836  0.00  0.00    +0.027 A 
ATOM      3  C   UNL     1       1.304  -6.590   1.134  0.00  0.00    +0.007 A 
ATOM      4  C   UNL     1       1.318  -7.016   2.453  0.00  0.00    -0.025 A 
ATOM      5  C   UNL     1       1.313  -6.080   3.477  0.00  0.00    +0.056 A 
ATOM      6  C   UNL     1       1.296  -4.723   3.180  0.00  0.00    +0.051 A 
ATOM      7  N   UNL     1       1.336  -6.483   4.817  0.00  0.00    -0.203 N 
ATOM      8  C   UNL     1       1.061  -7.890   5.141  0.00  0.00    +0.132 C 
ATOM      9  C   UNL     1       1.849  -8.761   4.153  0.00  0.00    +0.025 C 
ATOM     10  C   UNL     1       1.334  -8.495   2.739  0.00  0.00    +0.038 C 
ENDROOT
BRANCH   7  11
ATOM     11  S   UNL     1       1.667  -5.393   6.018  0.00  0.00    +0.075 S 
ATOM     12  O   UNL     1       2.049  -6.149   7.159  0.00  0.00    -0.150 OA
ATOM     13  O   UNL     1       2.508  -4.401   5.445  0.00  0.00    -0.150 OA
BRANCH  11  14
ATOM     14  C   UNL     1       0.152  -4.593   6.428  0.00  0.00    +0.109 A 
ATOM     15  C   UNL     1      -0.225  -3.442   5.761  0.00  0.00    +0.031 A 
ATOM     16  C   UNL     1      -1.413  -2.814   6.081  0.00  0.00    +0.040 A 
ATOM     17  C   UNL     1      -2.228  -3.338   7.071  0.00  0.00    +0.124 A 
ATOM     18  C   UNL     1      -1.850  -4.490   7.738  0.00  0.00    +0.040 A 
ATOM     19  C   UNL     1      -0.663  -5.120   7.413  0.00  0.00    +0.031 A 
ATOM     20  F   UNL     1      -3.389  -2.725   7.385  0.00  0.00    -0.205 F 
ENDBRANCH  11  14
ENDBRANCH   7  11
BRANCH   1  21
ATOM     21  N   UNL     1       1.254  -2.939   1.557  0.00  0.00    -0.098 NA
BRANCH  21  22
ATOM     22  S   UNL     1       1.230  -2.441  -0.022  0.00  0.00    +0.092 S 
ATOM     23  O   UNL     1      -0.015  -2.861  -0.561  0.00  0.00    -0.148 OA
ATOM     24  O   UNL     1       2.475  -2.826  -0.588  0.00  0.00    -0.148 OA
BRANCH  22  29
ATOM     25  C   UNL     1      -0.020   1.378   0.011  0.00  0.00    +0.004 A 
ATOM     26  C   UNL     1       1.168   2.086   0.003  0.00  0.00    +0.033 A 
ATOM     27  C   UNL     1       2.374   1.411  -0.013  0.00  0.00    +0.128 A 
ATOM     28  C   UNL     1       2.393   0.029  -0.020  0.00  0.00    +0.061 A 
ATOM     29  C   UNL     1       1.206  -0.679  -0.011  0.00  0.00    +0.113 A 
ATOM     30  C   UNL     1      -0.001  -0.004   0.003  0.00  0.00    +0.029 A 
BRANCH  27  31
ATOM     31  N   UNL     1       3.646   2.169  -0.022  0.00  0.00    +0.056 N 
ATOM     32  O   UNL     1       3.629   3.378  -0.016  0.00  0.00    -0.126 OA
ATOM     33  O   UNL     1       4.701   1.579  -0.035  0.00  0.00    -0.126 OA
ENDBRANCH  27  31
ENDBRANCH  22  29
ENDBRANCH  21  22
ENDBRANCH   1  21
TORSDOF 6
