REMARK  Name = ZINC63709761
REMARK  10 active torsions:
REMARK  status: ('A' for Active; 'I' for Inactive)
REMARK    1  A    between atoms: C_4  and  C_7
REMARK    2  A    between atoms: C_7  and  C_8
REMARK    3  A    between atoms: C_8  and  N_9
REMARK    4  A    between atoms: C_10  and  C_12
REMARK    5  A    between atoms: C_12  and  C_13
REMARK    6  A    between atoms: C_13  and  C_14
REMARK    7  A    between atoms: C_14  and  N_15
REMARK    8  A    between atoms: C_16  and  S_28
REMARK    9  A    between atoms: S_28  and  C_29
REMARK   10  A    between atoms: C_29  and  C_30
REMARK                            x       y       z     vdW  Elec       q    Type
REMARK                         _______ _______ _______ _____ _____    ______ ____
ROOT
ATOM      1  N   UNL     1       9.601  -3.997   5.318  0.00  0.00    -0.276 N 
ATOM      2  C   UNL     1      10.431  -3.006   5.989  0.00  0.00    +0.205 C 
ATOM      3  N   UNL     1      11.250  -3.603   7.024  0.00  0.00    -0.282 NA
ATOM      4  C   UNL     1      10.569  -4.460   7.980  0.00  0.00    +0.102 C 
ATOM      5  C   UNL     1      11.593  -5.160   8.831  0.00  0.00    -0.000 C 
ATOM      6  C   UNL     1      11.849  -6.438   8.622  0.00  0.00    +0.038 C 
ATOM      7  S   UNL     1      10.766  -6.941   7.295  0.00  0.00    -0.119 S 
ATOM      8  C   UNL     1       9.655  -5.498   7.313  0.00  0.00    +0.157 C 
ATOM      9  C   UNL     1       9.229  -5.124   5.934  0.00  0.00    +0.232 C 
ATOM     10  O   UNL     1       8.518  -5.898   5.328  0.00  0.00    -0.274 OA
ATOM     11  H   UNL     1      12.052  -4.071   6.627  0.00  0.00    +0.125 HD
ENDROOT
BRANCH   1  12
ATOM     12  C   UNL     1       9.161  -3.752   3.943  0.00  0.00    +0.110 C 
BRANCH  12  13
ATOM     13  C   UNL     1       7.825  -3.005   3.960  0.00  0.00    +0.028 C 
BRANCH  13  14
ATOM     14  C   UNL     1       7.365  -2.749   2.524  0.00  0.00    +0.097 C 
BRANCH  14  16
ATOM     15  N   UNL     1       5.450  -1.678   1.382  0.00  0.00    -0.315 N 
ATOM     16  C   UNL     1       6.050  -2.013   2.541  0.00  0.00    +0.213 C 
ATOM     17  O   UNL     1       5.532  -1.722   3.599  0.00  0.00    -0.276 OA
ATOM     18  H   UNL     1       5.864  -1.911   0.536  0.00  0.00    +0.149 HD
BRANCH  15  19
ATOM     19  C   UNL     1       4.171  -0.963   1.399  0.00  0.00    +0.109 C 
BRANCH  19  20
ATOM     20  C   UNL     1       3.711  -0.707  -0.038  0.00  0.00    +0.054 C 
BRANCH  20  24
ATOM     21  C   UNL     1      -0.017   1.378   0.010  0.00  0.00    +0.000 A 
ATOM     22  C   UNL     1       1.171   2.086   0.002  0.00  0.00    +0.000 A 
ATOM     23  C   UNL     1       2.377   1.411  -0.013  0.00  0.00    +0.004 A 
ATOM     24  C   UNL     1       2.396   0.029  -0.020  0.00  0.00    -0.046 A 
ATOM     25  C   UNL     1       1.208  -0.679  -0.012  0.00  0.00    +0.004 A 
ATOM     26  C   UNL     1       0.002  -0.004   0.002  0.00  0.00    +0.000 A 
ENDBRANCH  20  24
ENDBRANCH  19  20
ENDBRANCH  15  19
ENDBRANCH  14  16
ENDBRANCH  13  14
ENDBRANCH  12  13
ENDBRANCH   1  12
BRANCH   2  27
ATOM     27  S   UNL     1      11.511  -2.213   4.766  0.00  0.00    -0.119 S 
BRANCH  27  28
ATOM     28  C   UNL     1      12.487  -3.584   4.089  0.00  0.00    +0.119 C 
BRANCH  28  29
ATOM     29  C   UNL     1      13.453  -3.048   3.031  0.00  0.00    +0.184 C 
ATOM     30  N   UNL     1      14.311  -2.008   3.612  0.00  0.00    -0.363 N 
ATOM     31  C   UNL     1      14.092  -0.907   2.953  0.00  0.00    +0.060 A 
ATOM     32  C   UNL     1      14.642   0.451   3.066  0.00  0.00    +0.027 A 
ATOM     33  C   UNL     1      14.215   1.413   2.223  0.00  0.00    +0.002 A 
ATOM     34  C   UNL     1      13.253   1.175   1.225  0.00  0.00    +0.002 A 
ATOM     35  C   UNL     1      12.686  -0.033   1.036  0.00  0.00    +0.027 A 
ATOM     36  C   UNL     1      13.075  -1.159   1.896  0.00  0.00    +0.060 A 
ATOM     37  N   UNL     1      12.704  -2.406   1.943  0.00  0.00    -0.363 N 
ATOM     38  H   UNL     1      14.928  -2.120   4.353  0.00  0.00    +0.162 HD
ATOM     39  H   UNL     1      12.053  -2.833   1.365  0.00  0.00    +0.162 HD
ENDBRANCH  28  29
ENDBRANCH  27  28
ENDBRANCH   2  27
TORSDOF 10
