REMARK  Name = ZINC35091491
REMARK  12 active torsions:
REMARK  status: ('A' for Active; 'I' for Inactive)
REMARK    1  A    between atoms: C_1  and  C_2
REMARK    2  A    between atoms: C_2  and  C_3
REMARK    3  A    between atoms: C_6  and  N_9
REMARK    4  A    between atoms: C_19  and  C_20
REMARK    5  A    between atoms: C_20  and  C_22
REMARK    6  A    between atoms: C_20  and  N_23
REMARK    7  A    between atoms: N_23  and  C_24
REMARK    8  A    between atoms: C_24  and  C_25
REMARK    9  A    between atoms: C_25  and  N_26
REMARK   10  A    between atoms: N_26  and  C_27
REMARK   11  A    between atoms: N_26  and  C_28
REMARK   12  A    between atoms: N_31  and  C_32
REMARK                            x       y       z     vdW  Elec       q    Type
REMARK                         _______ _______ _______ _____ _____    ______ ____
ROOT
ATOM      1  C   UNL     1       0.522  -1.950   5.968  0.00  0.00    +0.141 C 
ATOM      2  C   UNL     1      -0.360  -2.672   4.947  0.00  0.00    +0.036 C 
ENDROOT
BRANCH   1  13
ATOM      3  N   UNL     1       2.934  -1.609   6.336  0.00  0.00    -0.263 N 
ATOM      4  C   UNL     1       4.236  -1.955   6.205  0.00  0.00    +0.266 A 
ATOM      5  O   UNL     1       5.121  -1.279   6.696  0.00  0.00    -0.267 OA
ATOM      6  C   UNL     1       4.539  -3.178   5.447  0.00  0.00    +0.065 A 
ATOM      7  C   UNL     1       5.846  -3.620   5.256  0.00  0.00    +0.015 A 
ATOM      8  C   UNL     1       6.074  -4.774   4.537  0.00  0.00    +0.001 A 
ATOM      9  C   UNL     1       5.013  -5.495   4.005  0.00  0.00    +0.002 A 
ATOM     10  C   UNL     1       3.715  -5.075   4.183  0.00  0.00    +0.028 A 
ATOM     11  C   UNL     1       3.458  -3.909   4.908  0.00  0.00    +0.078 A 
ATOM     12  N   UNL     1       2.194  -3.459   5.107  0.00  0.00    -0.231 NA
ATOM     13  C   UNL     1       1.955  -2.378   5.786  0.00  0.00    +0.138 A 
BRANCH   3  17
ATOM     14  C   UNL     1       1.911   1.830   8.456  0.00  0.00    -0.047 A 
ATOM     15  C   UNL     1       1.752   1.793   7.082  0.00  0.00    +0.005 A 
ATOM     16  C   UNL     1       2.091   0.655   6.377  0.00  0.00    +0.026 A 
ATOM     17  C   UNL     1       2.590  -0.454   7.048  0.00  0.00    +0.051 A 
ATOM     18  C   UNL     1       2.748  -0.413   8.427  0.00  0.00    +0.026 A 
ATOM     19  C   UNL     1       2.413   0.730   9.126  0.00  0.00    +0.005 A 
BRANCH  14  21
ATOM     20  C   UNL     1       2.755   4.000   9.307  0.00  0.00    +0.009 C 
ATOM     21  C   UNL     1       1.541   3.073   9.222  0.00  0.00    +0.032 C 
ENDBRANCH  14  21
ENDBRANCH   3  17
ENDBRANCH   1  13
BRANCH   1  22
ATOM     22  N   UNL     1       0.079  -2.291   7.322  0.00  0.00    -0.278 N 
ATOM     23  C   UNL     1      -0.469  -1.344   8.110  0.00  0.00    +0.303 C 
ATOM     24  O   UNL     1      -0.596  -0.208   7.697  0.00  0.00    -0.253 OA
ATOM     25  N   UNL     1      -0.876  -1.657   9.356  0.00  0.00    -0.294 N 
ATOM     26  H   UNL     1      -0.775  -2.564   9.686  0.00  0.00    +0.151 HD
BRANCH  25  27
ATOM     27  C   UNL     1      -1.472  -0.628  10.212  0.00  0.00    +0.037 C 
ATOM     28  C   UNL     1      -0.465   0.503  10.426  0.00  0.00    +0.029 C 
ATOM     29  C   UNL     1      -1.087   1.577  11.320  0.00  0.00    -0.008 C 
ATOM     30  C   UNL     1      -1.459   0.964  12.671  0.00  0.00    +0.007 C 
ATOM     31  C   UNL     1      -2.466  -0.168  12.458  0.00  0.00    -0.008 C 
ATOM     32  C   UNL     1      -1.844  -1.242  11.563  0.00  0.00    +0.029 C 
ATOM     33  C   UNL     1      -3.724   0.389  11.787  0.00  0.00    +0.007 C 
ATOM     34  C   UNL     1      -3.352   1.003  10.435  0.00  0.00    -0.008 C 
ATOM     35  C   UNL     1      -2.344   2.134  10.649  0.00  0.00    +0.007 C 
ATOM     36  C   UNL     1      -2.729  -0.072   9.541  0.00  0.00    +0.029 C 
ENDBRANCH  25  27
BRANCH  22  37
ATOM     37  C   UNL     1       0.232  -3.660   7.821  0.00  0.00    +0.091 C 
BRANCH  37  38
ATOM     38  C   UNL     1       1.531  -3.769   8.620  0.00  0.00    -0.060 C 
BRANCH  38  39
ATOM     39  N   UNL     1       1.720  -5.158   9.060  0.00  0.00    +0.377 N 
ATOM     40  C   UNL     1       1.911  -6.022   7.887  0.00  0.00    -0.097 C 
ATOM     41  C   UNL     1       2.903  -5.241   9.927  0.00  0.00    -0.097 C 
ATOM     42  H   UNL     1       0.906  -5.463   9.572  0.00  0.00    -0.083 HD
ENDBRANCH  38  39
ENDBRANCH  37  38
ENDBRANCH  22  37
ENDBRANCH   1  22
TORSDOF 8
