REMARK  Name = ZINC60138797
REMARK  11 active torsions:
REMARK  status: ('A' for Active; 'I' for Inactive)
REMARK    1  A    between atoms: C_1  and  C_2
REMARK    2  A    between atoms: C_5  and  O_8
REMARK    3  A    between atoms: O_8  and  C_9
REMARK    4  A    between atoms: C_9  and  C_10
REMARK    5  A    between atoms: C_10  and  C_12
REMARK    6  A    between atoms: C_10  and  N_13
REMARK    7  A    between atoms: C_14  and  C_16
REMARK    8  A    between atoms: C_16  and  N_17
REMARK    9  A    between atoms: C_22  and  C_29
REMARK   10  A    between atoms: C_25  and  C_27
REMARK   11  A    between atoms: C_25  and  C_28
REMARK                            x       y       z     vdW  Elec       q    Type
REMARK                         _______ _______ _______ _____ _____    ______ ____
ROOT
ATOM      1  C   UNL     1      -2.274  -8.657   0.383  0.00  0.00    +0.213 C 
ENDROOT
BRANCH   1   2
ATOM      2  N   UNL     1      -2.707 -10.041   0.595  0.00  0.00    -0.215 N 
ATOM      3  C   UNL     1      -2.356 -11.075  -0.197  0.00  0.00    +0.247 C 
ATOM      4  O   UNL     1      -1.649 -11.038  -1.182  0.00  0.00    -0.273 OA
ATOM      5  C   UNL     1      -3.028 -12.289   0.402  0.00  0.00    +0.113 C 
ATOM      6  C   UNL     1      -1.986 -13.313   0.837  0.00  0.00    +0.038 C 
ATOM      7  C   UNL     1      -2.685 -14.520   1.468  0.00  0.00    -0.011 C 
ATOM      8  C   UNL     1      -3.643 -15.142   0.450  0.00  0.00    +0.009 C 
ATOM      9  C   UNL     1      -4.696 -14.110   0.041  0.00  0.00    -0.032 C 
ATOM     10  C   UNL     1      -4.005 -12.902  -0.595  0.00  0.00    +0.041 C 
ATOM     11  C   UNL     1      -5.660 -14.737  -0.968  0.00  0.00    +0.011 C 
ATOM     12  C   UNL     1      -5.475 -13.659   1.279  0.00  0.00    +0.011 C 
ATOM     13  C   UNL     1      -1.639 -15.556   1.884  0.00  0.00    +0.007 C 
ATOM     14  N   UNL     1      -3.747 -11.759   1.568  0.00  0.00    -0.285 N 
ATOM     15  C   UNL     1      -3.495 -10.437   1.602  0.00  0.00    +0.310 C 
ATOM     16  O   UNL     1      -3.937  -9.686   2.450  0.00  0.00    -0.252 OA
ATOM     17  H   UNL     1      -4.292 -12.263   2.192  0.00  0.00    +0.151 HD
ENDBRANCH   1   2
BRANCH   1  19
ATOM     18  N   UNL     1      -0.389  -7.207   1.064  0.00  0.00    -0.308 N 
ATOM     19  C   UNL     1      -0.979  -8.418   1.116  0.00  0.00    +0.231 C 
ATOM     20  O   UNL     1      -0.468  -9.315   1.753  0.00  0.00    -0.274 OA
ATOM     21  H   UNL     1      -0.798  -6.490   0.555  0.00  0.00    +0.149 HD
BRANCH  18  22
ATOM     22  C   UNL     1       0.869  -6.975   1.777  0.00  0.00    +0.107 C 
ATOM     23  C   UNL     1       2.042  -7.421   0.901  0.00  0.00    +0.031 C 
BRANCH  22  24
ATOM     24  C   UNL     1       1.008  -5.484   2.094  0.00  0.00    +0.251 C 
BRANCH  24  25
ATOM     25  O   UNL     1       1.122  -4.747   0.875  0.00  0.00    -0.490 OA
BRANCH  25  30
ATOM     26  C   UNL     1       1.664   0.843   1.310  0.00  0.00    +0.044 C 
ATOM     27  C   UNL     1       1.519  -0.653   1.194  0.00  0.00    -0.050 A 
ATOM     28  C   UNL     1       1.501  -1.250  -0.053  0.00  0.00    +0.007 A 
ATOM     29  C   UNL     1       1.368  -2.620  -0.163  0.00  0.00    +0.046 A 
ATOM     30  C   UNL     1       1.253  -3.398   0.980  0.00  0.00    +0.121 A 
ATOM     31  C   UNL     1       1.272  -2.797   2.231  0.00  0.00    +0.046 A 
ATOM     32  C   UNL     1       1.411  -1.427   2.335  0.00  0.00    +0.007 A 
ENDBRANCH  25  30
ENDBRANCH  24  25
ENDBRANCH  22  24
ENDBRANCH  18  22
ENDBRANCH   1  19
TORSDOF 6
