REMARK  Name = ZINC39501710
REMARK  12 active torsions:
REMARK  status: ('A' for Active; 'I' for Inactive)
REMARK    1  A    between atoms: C_1  and  C_2
REMARK    2  A    between atoms: C_5  and  S_9
REMARK    3  A    between atoms: C_7  and  C_8
REMARK    4  A    between atoms: S_9  and  N_12
REMARK    5  A    between atoms: N_12  and  C_13
REMARK    6  A    between atoms: C_13  and  C_14
REMARK    7  A    between atoms: C_14  and  O_16
REMARK    8  A    between atoms: O_16  and  C_17
REMARK    9  A    between atoms: C_17  and  C_18
REMARK   10  A    between atoms: N_20  and  C_21
REMARK   11  A    between atoms: C_22  and  C_29
REMARK   12  A    between atoms: C_24  and  C_28
REMARK                            x       y       z     vdW  Elec       q    Type
REMARK                         _______ _______ _______ _____ _____    ______ ____
ROOT
ATOM      1  C   UNL     1       3.775  -8.721   2.012  0.00  0.00    +0.323 C 
ATOM      2  O   UNL     1       3.780  -8.325   0.870  0.00  0.00    -0.249 OA
ENDROOT
BRANCH   1   3
ATOM      3  C   UNL     1       2.628  -9.559   2.514  0.00  0.00    +0.226 C 
BRANCH   3   4
ATOM      4  N   UNL     1       1.656  -9.753   1.435  0.00  0.00    -0.179 NA
ATOM      5  H   UNL     1       1.694  -9.196   0.642  0.00  0.00    +0.149 HD
BRANCH   4   6
ATOM      6  S   UNL     1       0.492 -10.923   1.569  0.00  0.00    +0.059 S 
ATOM      7  O   UNL     1       1.158 -12.116   1.961  0.00  0.00    -0.153 OA
ATOM      8  O   UNL     1      -0.301 -10.845   0.393  0.00  0.00    -0.153 OA
BRANCH   6  13
ATOM      9  C   UNL     1      -3.090  -9.361   6.167  0.00  0.00    +0.044 C 
ATOM     10  C   UNL     1      -2.195  -9.751   5.019  0.00  0.00    -0.047 A 
ATOM     11  C   UNL     1      -2.486  -9.318   3.738  0.00  0.00    +0.005 A 
ATOM     12  C   UNL     1      -1.665  -9.676   2.685  0.00  0.00    +0.029 A 
ATOM     13  C   UNL     1      -0.553 -10.466   2.912  0.00  0.00    +0.106 A 
ATOM     14  C   UNL     1      -0.263 -10.898   4.192  0.00  0.00    +0.032 A 
ATOM     15  C   UNL     1      -1.081 -10.537   5.246  0.00  0.00    -0.046 A 
ATOM     16  C   UNL     1      -0.761 -11.003   6.643  0.00  0.00    +0.044 C 
ENDBRANCH   6  13
ENDBRANCH   4   6
ENDBRANCH   3   4
ENDBRANCH   1   3
BRANCH   1  17
ATOM     17  O   UNL     1       4.791  -8.413   2.833  0.00  0.00    -0.454 OA
BRANCH  17  18
ATOM     18  C   UNL     1       5.845  -7.614   2.291  0.00  0.00    +0.328 C 
BRANCH  18  19
ATOM     19  C   UNL     1       6.888  -7.373   3.350  0.00  0.00    +0.255 C 
ATOM     20  O   UNL     1       6.744  -7.838   4.461  0.00  0.00    -0.272 OA
ATOM     21  N   UNL     1       7.982  -6.639   3.064  0.00  0.00    -0.281 N 
ATOM     22  H   UNL     1       8.134  -6.328   2.158  0.00  0.00    +0.155 HD
BRANCH  21  23
ATOM     23  C   UNL     1       8.899  -6.326   4.074  0.00  0.00    +0.055 A 
ATOM     24  C   UNL     1      10.009  -7.133   4.281  0.00  0.00    -0.028 A 
ATOM     25  C   UNL     1      10.913  -6.822   5.278  0.00  0.00    +0.008 A 
ATOM     26  C   UNL     1      10.712  -5.707   6.072  0.00  0.00    -0.049 A 
ATOM     27  C   UNL     1       9.608  -4.900   5.869  0.00  0.00    +0.025 A 
ATOM     28  C   UNL     1       8.703  -5.203   4.869  0.00  0.00    +0.063 A 
ATOM     29 CL   UNL     1       7.320  -4.186   4.610  0.00  0.00    -0.082 Cl
ATOM     30  C   UNL     1      11.700  -5.370   7.159  0.00  0.00    +0.044 C 
ATOM     31  C   UNL     1      10.229  -8.349   3.418  0.00  0.00    +0.046 C 
ENDBRANCH  21  23
ENDBRANCH  18  19
ENDBRANCH  17  18
ENDBRANCH   1  17
TORSDOF 8
