REMARK  Name = ZINC46540574
REMARK  9 active torsions:
REMARK  status: ('A' for Active; 'I' for Inactive)
REMARK    1  A    between atoms: C_1  and  C_2
REMARK    2  A    between atoms: C_5  and  C_8
REMARK    3  A    between atoms: C_11  and  C_13
REMARK    4  A    between atoms: C_13  and  C_14
REMARK    5  A    between atoms: C_14  and  C_15
REMARK    6  A    between atoms: N_17  and  C_18
REMARK    7  A    between atoms: C_21  and  N_25
REMARK    8  A    between atoms: C_22  and  C_24
REMARK    9  A    between atoms: C_26  and  C_28
REMARK                            x       y       z     vdW  Elec       q    Type
REMARK                         _______ _______ _______ _____ _____    ______ ____
ROOT
ATOM      1  C   UNL     1       1.562  -9.207   2.578  0.00  0.00    +0.218 C 
ATOM      2  O   UNL     1       0.520  -9.729   2.911  0.00  0.00    -0.275 OA
ATOM      3  N   UNL     1       2.738  -9.754   2.945  0.00  0.00    -0.285 N 
ATOM      4  H   UNL     1       3.571  -9.376   2.622  0.00  0.00    +0.155 HD
ENDROOT
BRANCH   3   5
ATOM      5  C   UNL     1       2.757 -10.867   3.795  0.00  0.00    +0.034 A 
ATOM      6  C   UNL     1       3.771 -11.007   4.734  0.00  0.00    +0.025 A 
ATOM      7  C   UNL     1       3.789 -12.104   5.571  0.00  0.00    +0.025 A 
ATOM      8  C   UNL     1       2.795 -13.069   5.474  0.00  0.00    +0.036 A 
ATOM      9  C   UNL     1       1.781 -12.929   4.536  0.00  0.00    -0.027 A 
ATOM     10  C   UNL     1       1.760 -11.829   3.702  0.00  0.00    +0.028 A 
ATOM     11  C   UNL     1       0.702 -13.976   4.430  0.00  0.00    +0.046 C 
BRANCH   8  12
ATOM     12  N   UNL     1       2.814 -14.183   6.323  0.00  0.00    -0.285 N 
ATOM     13  C   UNL     1       3.978 -14.601   6.860  0.00  0.00    +0.214 C 
ATOM     14  O   UNL     1       5.021 -14.077   6.530  0.00  0.00    -0.276 OA
ATOM     15  C   UNL     1       3.983 -15.719   7.870  0.00  0.00    +0.109 C 
ATOM     16  H   UNL     1       1.991 -14.653   6.525  0.00  0.00    +0.155 HD
ENDBRANCH   8  12
ENDBRANCH   3   5
BRANCH   1  17
ATOM     17  C   UNL     1       1.543  -7.946   1.752  0.00  0.00    +0.105 C 
BRANCH  17  18
ATOM     18  C   UNL     1       0.095  -7.540   1.474  0.00  0.00    +0.107 C 
BRANCH  18  22
ATOM     19  C   UNL     1       0.045  -4.211   0.045  0.00  0.00    +0.248 A 
ATOM     20  N   UNL     1       0.055  -4.979  -1.020  0.00  0.00    -0.107 NA
ATOM     21  N   UNL     1       0.073  -6.212  -0.653  0.00  0.00    -0.112 NA
ATOM     22  C   UNL     1       0.076  -6.280   0.649  0.00  0.00    +0.218 A 
ATOM     23  O   UNL     1       0.064  -5.021   1.122  0.00  0.00    -0.420 OA
BRANCH  19  28
ATOM     24  C   UNL     1      -0.034   1.543   0.103  0.00  0.00    +0.044 C 
ATOM     25  C   UNL     1      -0.013   0.036   0.088  0.00  0.00    -0.050 A 
ATOM     26  C   UNL     1      -0.011  -0.641  -1.119  0.00  0.00    +0.004 A 
ATOM     27  C   UNL     1       0.008  -2.020  -1.140  0.00  0.00    +0.013 A 
ATOM     28  C   UNL     1       0.025  -2.733   0.060  0.00  0.00    +0.038 A 
ATOM     29  C   UNL     1       0.023  -2.044   1.274  0.00  0.00    +0.013 A 
ATOM     30  C   UNL     1       0.010  -0.665   1.281  0.00  0.00    +0.004 A 
ENDBRANCH  19  28
ENDBRANCH  18  22
ENDBRANCH  17  18
ENDBRANCH   1  17
TORSDOF 6
