REMARK  Name = ZINC09435805
REMARK  8 active torsions:
REMARK  status: ('A' for Active; 'I' for Inactive)
REMARK    1  A    between atoms: C_1  and  C_2
REMARK    2  A    between atoms: C_11  and  O_14
REMARK    3  A    between atoms: C_12  and  C_13
REMARK    4  A    between atoms: O_14  and  C_15
REMARK    5  A    between atoms: C_15  and  C_16
REMARK    6  A    between atoms: N_18  and  C_19
REMARK    7  A    between atoms: C_19  and  C_20
REMARK    8  A    between atoms: C_20  and  C_21
REMARK                            x       y       z     vdW  Elec       q    Type
REMARK                         _______ _______ _______ _____ _____    ______ ____
ROOT
ATOM      1  C   UNL     1      -0.742   1.585  -1.213  0.00  0.00    +0.251 C 
ATOM      2  O   UNL     1      -1.736   2.268  -1.088  0.00  0.00    -0.272 OA
ATOM      3  N   UNL     1      -0.288   1.272  -2.443  0.00  0.00    -0.312 N 
ATOM      4  H   UNL     1       0.507   0.726  -2.543  0.00  0.00    +0.149 HD
ENDROOT
BRANCH   1   5
ATOM      5  C   UNL     1      -0.013   1.086   0.008  0.00  0.00    +0.324 C 
BRANCH   5   6
ATOM      6  O   UNL     1      -0.682   1.547   1.184  0.00  0.00    -0.482 OA
BRANCH   6  17
ATOM      7  C   UNL     1       2.754  -0.810   6.177  0.00  0.00    +0.045 C 
ATOM      8  C   UNL     1       1.514   0.043   6.097  0.00  0.00    -0.033 A 
ATOM      9  C   UNL     1       0.889   0.472   7.224  0.00  0.00    +0.096 A 
ATOM     10  C   UNL     1      -0.270   1.268   7.123  0.00  0.00    +0.337 A 
ATOM     11  O   UNL     1      -0.821   1.647   8.141  0.00  0.00    -0.245 OA
ATOM     12  O   UNL     1      -0.782   1.620   5.933  0.00  0.00    -0.422 OA
ATOM     13  C   UNL     1      -0.210   1.227   4.775  0.00  0.00    +0.146 A 
ATOM     14  C   UNL     1       0.950   0.430   4.802  0.00  0.00    +0.021 A 
ATOM     15  C   UNL     1       1.546   0.019   3.605  0.00  0.00    +0.015 A 
ATOM     16  C   UNL     1       0.999   0.394   2.412  0.00  0.00    +0.047 A 
ATOM     17  C   UNL     1      -0.149   1.183   2.378  0.00  0.00    +0.128 A 
ATOM     18  C   UNL     1      -0.749   1.603   3.554  0.00  0.00    +0.034 A 
ATOM     19  C   UNL     1      -1.987   2.461   3.507  0.00  0.00    +0.051 C 
ENDBRANCH   6  17
ENDBRANCH   5   6
ENDBRANCH   1   5
BRANCH   3  20
ATOM     20  C   UNL     1      -0.997   1.758  -3.630  0.00  0.00    +0.109 C 
BRANCH  20  21
ATOM     21  C   UNL     1      -0.281   1.264  -4.889  0.00  0.00    +0.056 C 
BRANCH  21  22
ATOM     22  C   UNL     1      -1.010   1.763  -6.110  0.00  0.00    -0.021 A 
ATOM     23  C   UNL     1      -1.942   1.099  -6.810  0.00  0.00    +0.087 A 
ATOM     24  N   UNL     1      -2.379   1.869  -7.853  0.00  0.00    -0.360 N 
ATOM     25  H   UNL     1      -3.052   1.603  -8.499  0.00  0.00    +0.165 HD
ATOM     26  C   UNL     1      -1.722   3.080  -7.849  0.00  0.00    +0.047 A 
ATOM     27  C   UNL     1      -0.840   3.068  -6.753  0.00  0.00    +0.004 A 
ATOM     28  C   UNL     1      -0.028   4.176  -6.500  0.00  0.00    +0.030 A 
ATOM     29  C   UNL     1      -0.104   5.279  -7.322  0.00  0.00    +0.042 A 
ATOM     30  C   UNL     1      -0.980   5.291  -8.400  0.00  0.00    +0.022 A 
ATOM     31  C   UNL     1      -1.784   4.204  -8.665  0.00  0.00    +0.027 A 
ATOM     32 CL   UNL     1       0.898   6.660  -7.008  0.00  0.00    -0.084 Cl
ENDBRANCH  21  22
ENDBRANCH  20  21
ENDBRANCH   3  20
TORSDOF 6
