REMARK  Name = ZINC08893146
REMARK  7 active torsions:
REMARK  status: ('A' for Active; 'I' for Inactive)
REMARK    1  A    between atoms: C_1  and  C_2
REMARK    2  A    between atoms: C_5  and  S_8
REMARK    3  A    between atoms: S_8  and  N_11
REMARK    4  A    between atoms: C_15  and  C_17
REMARK    5  A    between atoms: N_19  and  C_20
REMARK    6  A    between atoms: C_21  and  C_32
REMARK    7  A    between atoms: C_29  and  C_31
REMARK                            x       y       z     vdW  Elec       q    Type
REMARK                         _______ _______ _______ _____ _____    ______ ____
ROOT
ATOM      1  C   UNL     1      -0.365  -0.607   1.231  0.00  0.00    +0.236 C 
ATOM      2  O   UNL     1      -1.518  -0.885   1.485  0.00  0.00    -0.274 OA
ATOM      3  N   UNL     1       0.633  -1.139   1.963  0.00  0.00    -0.278 N 
ATOM      4  H   UNL     1       1.555  -0.917   1.760  0.00  0.00    +0.155 HD
ENDROOT
BRANCH   3   5
ATOM      5  C   UNL     1       0.343  -2.005   3.007  0.00  0.00    +0.084 A 
ATOM      6  C   UNL     1       1.224  -2.651   3.862  0.00  0.00    +0.068 A 
ATOM      7  C   UNL     1       0.657  -3.513   4.887  0.00  0.00    -0.020 A 
ATOM      8  C   UNL     1      -0.691  -3.594   4.885  0.00  0.00    +0.013 A 
ATOM      9  S   UNL     1      -1.209  -2.547   3.555  0.00  0.00    -0.076 S 
ATOM     10  C   UNL     1      -1.544  -4.398   5.819  0.00  0.00    +0.150 C 
ATOM     11  N   UNL     1      -0.639  -5.270   6.594  0.00  0.00    -0.297 N 
ATOM     12  C   UNL     1       0.616  -4.680   7.085  0.00  0.00    +0.113 C 
ATOM     13  C   UNL     1       1.496  -4.286   5.897  0.00  0.00    +0.056 C 
ATOM     14  C   UNL     1      -0.951  -6.557   6.842  0.00  0.00    +0.213 C 
ATOM     15  O   UNL     1      -0.153  -7.277   7.406  0.00  0.00    -0.276 OA
ATOM     16  C   UNL     1      -2.290  -7.103   6.419  0.00  0.00    +0.109 C 
BRANCH   6  17
ATOM     17  C   UNL     1       2.673  -2.469   3.738  0.00  0.00    +0.244 C 
ATOM     18  O   UNL     1       3.229  -1.577   4.352  0.00  0.00    -0.270 OA
ATOM     19  N   UNL     1       3.390  -3.290   2.945  0.00  0.00    -0.325 N 
ATOM     20  H   UNL     1       2.947  -4.000   2.456  0.00  0.00    +0.145 HD
ATOM     21  H   UNL     1       4.349  -3.169   2.863  0.00  0.00    +0.145 HD
ENDBRANCH   6  17
ENDBRANCH   3   5
BRANCH   1  26
ATOM     22  N   UNL     1      -1.201   1.217  -0.163  0.00  0.00    -0.165 NA
ATOM     23  C   UNL     1      -1.681   0.979  -1.537  0.00  0.00    +0.110 C 
ATOM     24  C   UNL     1      -0.455   0.408  -2.292  0.00  0.00    +0.019 C 
ATOM     25  C   UNL     1       0.205  -0.471  -1.196  0.00  0.00    +0.031 C 
ATOM     26  C   UNL     1      -0.049   0.333   0.097  0.00  0.00    +0.166 C 
BRANCH  22  27
ATOM     27  S   UNL     1      -1.849   2.297   0.912  0.00  0.00    +0.062 S 
ATOM     28  O   UNL     1      -3.228   2.414   0.589  0.00  0.00    -0.153 OA
ATOM     29  O   UNL     1      -1.399   1.906   2.202  0.00  0.00    -0.153 OA
BRANCH  27  34
ATOM     30  C   UNL     1       0.649   7.669  -0.232  0.00  0.00    +0.044 C 
ATOM     31  C   UNL     1       0.025   6.327   0.054  0.00  0.00    -0.050 A 
ATOM     32  C   UNL     1      -1.192   5.996  -0.513  0.00  0.00    +0.005 A 
ATOM     33  C   UNL     1      -1.764   4.765  -0.251  0.00  0.00    +0.029 A 
ATOM     34  C   UNL     1      -1.119   3.866   0.578  0.00  0.00    +0.106 A 
ATOM     35  C   UNL     1       0.095   4.199   1.148  0.00  0.00    +0.029 A 
ATOM     36  C   UNL     1       0.670   5.427   0.882  0.00  0.00    +0.005 A 
ENDBRANCH  27  34
ENDBRANCH  22  27
ENDBRANCH   1  26
TORSDOF 5
