REMARK  Name = ZINC12376007
REMARK  9 active torsions:
REMARK  status: ('A' for Active; 'I' for Inactive)
REMARK    1  A    between atoms: C_4  and  C_7
REMARK    2  A    between atoms: C_7  and  C_8
REMARK    3  A    between atoms: C_7  and  C_14
REMARK    4  A    between atoms: N_16  and  C_17
REMARK    5  A    between atoms: C_17  and  C_18
REMARK    6  A    between atoms: N_20  and  N_21
REMARK    7  A    between atoms: C_22  and  C_23
REMARK    8  A    between atoms: C_25  and  O_32
REMARK    9  A    between atoms: C_28  and  N_29
REMARK                            x       y       z     vdW  Elec       q    Type
REMARK                         _______ _______ _______ _____ _____    ______ ____
ROOT
ATOM      1  C   UNL     1       4.589  -5.838  -1.716  0.00  0.00    +0.201 C 
ENDROOT
BRANCH   1   4
ATOM      2  C   UNL     1       3.224  -4.976   0.109  0.00  0.00    +0.225 C 
ATOM      3  O   UNL     1       2.240  -5.372  -0.479  0.00  0.00    -0.275 OA
ATOM      4  N   UNL     1       4.448  -5.161  -0.425  0.00  0.00    -0.306 N 
ATOM      5  H   UNL     1       5.235  -4.845   0.045  0.00  0.00    +0.149 HD
BRANCH   2   6
ATOM      6  C   UNL     1       3.079  -4.279   1.437  0.00  0.00    +0.135 C 
BRANCH   6  10
ATOM      7  C   UNL     1      -1.057  -4.060   2.483  0.00  0.00    +0.000 A 
ATOM      8  C   UNL     1      -0.288  -2.912   2.461  0.00  0.00    +0.000 A 
ATOM      9  C   UNL     1       1.051  -2.982   2.122  0.00  0.00    +0.005 A 
ATOM     10  C   UNL     1       1.620  -4.202   1.807  0.00  0.00    -0.031 A 
ATOM     11  C   UNL     1       0.851  -5.351   1.830  0.00  0.00    +0.005 A 
ATOM     12  C   UNL     1      -0.487  -5.279   2.167  0.00  0.00    +0.000 A 
ENDBRANCH   6  10
BRANCH   6  13
ATOM     13  C   UNL     1       3.825  -5.052   2.494  0.00  0.00    -0.031 A 
ATOM     14  C   UNL     1       3.590  -6.404   2.657  0.00  0.00    +0.005 A 
ATOM     15  C   UNL     1       4.274  -7.113   3.627  0.00  0.00    +0.000 A 
ATOM     16  C   UNL     1       5.194  -6.469   4.433  0.00  0.00    +0.000 A 
ATOM     17  C   UNL     1       5.430  -5.117   4.269  0.00  0.00    +0.000 A 
ATOM     18  C   UNL     1       4.749  -4.409   3.297  0.00  0.00    +0.005 A 
ENDBRANCH   6  13
ENDBRANCH   2   6
ENDBRANCH   1   4
BRANCH   1  19
ATOM     19  C   UNL     1       6.048  -5.916  -2.086  0.00  0.00    +0.249 C 
ATOM     20  O   UNL     1       6.887  -5.450  -1.344  0.00  0.00    -0.272 OA
ATOM     21  N   UNL     1       6.420  -6.502  -3.241  0.00  0.00    -0.206 N 
ATOM     22  H   UNL     1       5.749  -6.874  -3.835  0.00  0.00    +0.177 HD
BRANCH  21  23
ATOM     23  N   UNL     1       7.777  -6.574  -3.585  0.00  0.00    -0.188 NA
ATOM     24  C   UNL     1       8.128  -7.038  -4.745  0.00  0.00    +0.140 C 
BRANCH  24  25
ATOM     25  C   UNL     1       7.106  -7.302  -5.774  0.00  0.00    +0.028 A 
ATOM     26  C   UNL     1       5.923  -6.560  -5.795  0.00  0.00    +0.057 A 
ATOM     27  C   UNL     1       4.969  -6.814  -6.764  0.00  0.00    +0.118 A 
ATOM     28  C   UNL     1       5.188  -7.804  -7.713  0.00  0.00    +0.047 A 
ATOM     29  C   UNL     1       6.357  -8.541  -7.694  0.00  0.00    +0.037 A 
ATOM     30  C   UNL     1       7.319  -8.293  -6.736  0.00  0.00    +0.135 A 
BRANCH  30  31
ATOM     31  N   UNL     1       8.572  -9.080  -6.723  0.00  0.00    +0.057 N 
ATOM     32  O   UNL     1       8.807  -9.857  -7.619  0.00  0.00    -0.126 OA
ATOM     33  O   UNL     1       9.361  -8.945  -5.817  0.00  0.00    -0.126 OA
ENDBRANCH  30  31
BRANCH  27  34
ATOM     34  O   UNL     1       3.816  -6.094  -6.787  0.00  0.00    -0.507 OA
ATOM     35  H   UNL     1       3.864  -5.292  -7.326  0.00  0.00    +0.292 HD
ENDBRANCH  27  34
ENDBRANCH  24  25
ENDBRANCH  21  23
ENDBRANCH   1  19
TORSDOF 9
