REMARK  Name = ZINC08845270
REMARK  7 active torsions:
REMARK  status: ('A' for Active; 'I' for Inactive)
REMARK    1  A    between atoms: C_1  and  C_2
REMARK    2  A    between atoms: N_7  and  S_9
REMARK    3  A    between atoms: S_9  and  C_12
REMARK    4  A    between atoms: C_15  and  N_18
REMARK    5  A    between atoms: C_19  and  C_21
REMARK    6  A    between atoms: C_23  and  C_27
REMARK    7  A    between atoms: C_32  and  O_33
REMARK                            x       y       z     vdW  Elec       q    Type
REMARK                         _______ _______ _______ _____ _____    ______ ____
ROOT
ATOM      1  N   UNL     1       4.931  -3.675   6.081  0.00  0.00    -0.280 N 
ATOM      2  C   UNL     1       4.869  -3.189   7.337  0.00  0.00    +0.266 C 
ATOM      3  O   UNL     1       3.841  -2.680   7.742  0.00  0.00    -0.268 OA
ATOM      4  H   UNL     1       5.723  -4.148   5.782  0.00  0.00    +0.155 HD
ENDROOT
BRANCH   1   8
ATOM      5  C   UNL     1       1.719  -3.144   3.483  0.00  0.00    +0.106 A 
ATOM      6  C   UNL     1       2.489  -4.290   3.403  0.00  0.00    +0.030 A 
ATOM      7  C   UNL     1       3.554  -4.469   4.263  0.00  0.00    +0.025 A 
ATOM      8  C   UNL     1       3.853  -3.496   5.208  0.00  0.00    +0.034 A 
ATOM      9  C   UNL     1       3.078  -2.346   5.286  0.00  0.00    +0.025 A 
ATOM     10  C   UNL     1       2.017  -2.171   4.420  0.00  0.00    +0.030 A 
BRANCH   5  11
ATOM     11  S   UNL     1       0.360  -2.920   2.384  0.00  0.00    +0.061 S 
ATOM     12  O   UNL     1      -0.531  -2.013   3.019  0.00  0.00    -0.153 OA
ATOM     13  O   UNL     1      -0.044  -4.217   1.967  0.00  0.00    -0.153 OA
BRANCH  11  19
ATOM     14  C   UNL     1       0.360   1.270  -0.480  0.00  0.00    +0.009 C 
ATOM     15  C   UNL     1       0.237  -0.246  -0.317  0.00  0.00    +0.002 C 
ATOM     16  C   UNL     1       0.878  -0.943  -1.519  0.00  0.00    +0.006 C 
ATOM     17  C   UNL     1       0.726  -2.459  -1.373  0.00  0.00    +0.017 C 
ATOM     18  C   UNL     1       1.450  -2.920  -0.104  0.00  0.00    +0.109 C 
ATOM     19  N   UNL     1       0.941  -2.149   1.038  0.00  0.00    -0.176 NA
ATOM     20  C   UNL     1       0.955  -0.682   0.964  0.00  0.00    +0.112 C 
ENDBRANCH  11  19
ENDBRANCH   5  11
ENDBRANCH   1   8
BRANCH   2  21
ATOM     21  C   UNL     1       6.045  -3.273   8.217  0.00  0.00    +0.121 A 
ATOM     22  C   UNL     1       6.136  -2.828   9.522  0.00  0.00    +0.062 A 
ATOM     23  C   UNL     1       7.448  -3.133   9.929  0.00  0.00    +0.097 A 
ATOM     24  N   UNL     1       8.053  -3.712   8.914  0.00  0.00    -0.173 NA
ATOM     25  N   UNL     1       7.262  -3.813   7.907  0.00  0.00    -0.272 N 
ATOM     26  H   UNL     1       7.495  -4.210   7.053  0.00  0.00    +0.189 HD
BRANCH  23  27
ATOM     27  C   UNL     1       8.041  -2.853  11.260  0.00  0.00    +0.044 A 
ATOM     28  C   UNL     1       7.279  -2.235  12.249  0.00  0.00    +0.014 A 
ATOM     29  C   UNL     1       7.835  -1.977  13.485  0.00  0.00    +0.001 A 
ATOM     30  C   UNL     1       9.148  -2.329  13.746  0.00  0.00    +0.004 A 
ATOM     31  C   UNL     1       9.912  -2.942  12.772  0.00  0.00    +0.046 A 
ATOM     32  C   UNL     1       9.365  -3.212  11.528  0.00  0.00    +0.126 A 
BRANCH  32  33
ATOM     33  O   UNL     1      10.113  -3.819  10.571  0.00  0.00    -0.506 OA
ATOM     34  H   UNL     1      10.603  -3.206  10.006  0.00  0.00    +0.292 HD
ENDBRANCH  32  33
ENDBRANCH  23  27
ENDBRANCH   2  21
TORSDOF 6
