REMARK  Name = ZINC49045851
REMARK  19 active torsions:
REMARK  status: ('A' for Active; 'I' for Inactive)
REMARK    1  A    between atoms: C_1  and  C_2
REMARK    2  A    between atoms: C_2  and  C_3
REMARK    3  A    between atoms: C_3  and  C_4
REMARK    4  A    between atoms: C_4  and  C_5
REMARK    5  A    between atoms: C_5  and  C_6
REMARK    6  A    between atoms: C_5  and  C_7
REMARK    7  A    between atoms: C_5  and  N_37
REMARK    8  A    between atoms: C_10  and  C_12
REMARK    9  A    between atoms: C_14  and  N_25
REMARK   10  A    between atoms: N_19  and  C_20
REMARK   11  A    between atoms: N_19  and  S_21
REMARK   12  A    between atoms: S_21  and  C_24
REMARK   13  A    between atoms: N_25  and  C_26
REMARK   14  A    between atoms: N_25  and  C_30
REMARK   15  A    between atoms: C_26  and  C_27
REMARK   16  A    between atoms: C_27  and  O_28
REMARK   17  A    between atoms: O_28  and  C_29
REMARK   18  A    between atoms: C_30  and  C_31
REMARK   19  A    between atoms: C_34  and  C_36
REMARK                            x       y       z     vdW  Elec       q    Type
REMARK                         _______ _______ _______ _____ _____    ______ ____
ROOT
ATOM      1  C   UNL     1       1.020  -7.371   3.806  0.00  0.00    +0.063 A 
ATOM      2  C   UNL     1       1.163  -8.613   3.178  0.00  0.00    +0.058 A 
ATOM      3  C   UNL     1       0.613  -9.738   3.775  0.00  0.00    +0.124 A 
ATOM      4  N   UNL     1      -0.042  -9.647   4.923  0.00  0.00    -0.214 NA
ATOM      5  C   UNL     1      -0.200  -8.489   5.549  0.00  0.00    +0.161 A 
ATOM      6  C   UNL     1       0.327  -7.318   5.020  0.00  0.00    +0.095 A 
ATOM      7 CL   UNL     1       0.122  -5.807   5.851  0.00  0.00    -0.079 Cl
ATOM      8  N   UNL     1      -0.896  -8.448   6.752  0.00  0.00    -0.192 N 
ATOM      9  C   UNL     1      -0.169  -8.521   8.022  0.00  0.00    +0.159 C 
ENDROOT
BRANCH   1  13
ATOM     10  C   UNL     1       2.170  -4.103   2.846  0.00  0.00    +0.206 A 
ATOM     11  N   UNL     1       2.600  -4.850   1.867  0.00  0.00    -0.114 NA
ATOM     12  N   UNL     1       2.257  -6.072   2.076  0.00  0.00    -0.107 NA
ATOM     13  C   UNL     1       1.591  -6.147   3.204  0.00  0.00    +0.250 A 
ATOM     14  O   UNL     1       1.528  -4.901   3.715  0.00  0.00    -0.422 OA
BRANCH  10  15
ATOM     15  C   UNL     1       2.364  -2.614   2.980  0.00  0.00    +0.006 C 
ATOM     16  C   UNL     1       3.860  -2.296   3.013  0.00  0.00    -0.001 C 
BRANCH  15  17
ATOM     17  N   UNL     1       1.737  -2.150   4.225  0.00  0.00    +0.387 N 
ATOM     18  H   UNL     1       0.750  -2.360   4.204  0.00  0.00    -0.089 HD
ATOM     19  H   UNL     1       2.164  -2.617   5.011  0.00  0.00    -0.089 HD
ATOM     20  H   UNL     1       1.867  -1.153   4.315  0.00  0.00    -0.089 HD
ENDBRANCH  15  17
BRANCH  15  21
ATOM     21  C   UNL     1       1.717  -1.906   1.788  0.00  0.00    -0.004 C 
BRANCH  21  22
ATOM     22  C   UNL     1       1.914  -0.395   1.925  0.00  0.00    -0.001 C 
BRANCH  22  24
ATOM     23  C   UNL     1       1.464   1.825   0.870  0.00  0.00    +0.004 C 
ATOM     24  C   UNL     1       1.267   0.314   0.733  0.00  0.00    -0.003 C 
ENDBRANCH  22  24
ENDBRANCH  21  22
ENDBRANCH  15  21
ENDBRANCH  10  15
ENDBRANCH   1  13
BRANCH   8  25
ATOM     25  S   UNL     1      -2.546  -8.316   6.750  0.00  0.00    +0.044 S 
ATOM     26  O   UNL     1      -2.863  -7.701   7.991  0.00  0.00    -0.155 OA
ATOM     27  O   UNL     1      -2.857  -7.672   5.522  0.00  0.00    -0.155 OA
ATOM     28  C   UNL     1      -3.151 -10.026   6.728  0.00  0.00    +0.218 C 
ENDBRANCH   8  25
BRANCH   3  29
ATOM     29  N   UNL     1       0.750 -10.978   3.159  0.00  0.00    -0.313 N 
BRANCH  29  30
ATOM     30  C   UNL     1       1.563 -11.109   1.948  0.00  0.00    +0.134 C 
BRANCH  30  31
ATOM     31  C   UNL     1       3.008 -11.428   2.336  0.00  0.00    +0.178 C 
BRANCH  31  32
ATOM     32  O   UNL     1       3.060 -12.710   2.966  0.00  0.00    -0.381 OA
ATOM     33  C   UNL     1       4.372 -13.106   3.371  0.00  0.00    +0.194 C 
ENDBRANCH  31  32
ENDBRANCH  30  31
ENDBRANCH  29  30
BRANCH  29  34
ATOM     34  C   UNL     1       0.080 -12.153   3.722  0.00  0.00    +0.110 C 
BRANCH  34  35
ATOM     35  C   UNL     1      -1.315 -12.288   3.108  0.00  0.00    +0.009 C 
ATOM     36  C   UNL     1      -1.597 -13.532   2.263  0.00  0.00    +0.009 C 
ATOM     37  C   UNL     1      -2.223 -13.393   3.653  0.00  0.00    -0.009 C 
ATOM     38  C   UNL     1      -3.723 -13.103   3.727  0.00  0.00    +0.008 C 
ENDBRANCH  34  35
ENDBRANCH  29  34
ENDBRANCH   3  29
TORSDOF 13
