REMARK  Name = ZINC64449140
REMARK  9 active torsions:
REMARK  status: ('A' for Active; 'I' for Inactive)
REMARK    1  A    between atoms: C_1  and  C_2
REMARK    2  A    between atoms: C_3  and  S_13
REMARK    3  A    between atoms: C_5  and  C_7
REMARK    4  A    between atoms: C_9  and  C_12
REMARK    5  A    between atoms: S_13  and  N_16
REMARK    6  A    between atoms: C_20  and  C_23
REMARK    7  A    between atoms: N_25  and  C_26
REMARK    8  A    between atoms: C_26  and  C_27
REMARK    9  A    between atoms: C_27  and  C_28
REMARK                            x       y       z     vdW  Elec       q    Type
REMARK                         _______ _______ _______ _____ _____    ______ ____
ROOT
ATOM      1  N   UNL     1      -2.927   0.512   1.452  0.00  0.00    -0.176 NA
ATOM      2  C   UNL     1      -3.411  -0.214   2.634  0.00  0.00    +0.109 C 
ATOM      3  C   UNL     1      -4.644   0.508   3.186  0.00  0.00    +0.018 C 
ATOM      4  C   UNL     1      -4.296   1.975   3.449  0.00  0.00    +0.015 C 
ATOM      5  C   UNL     1      -3.890   2.648   2.135  0.00  0.00    +0.091 C 
ATOM      6  C   UNL     1      -2.643   1.949   1.573  0.00  0.00    +0.122 C 
ENDROOT
BRANCH   5   7
ATOM      7  C   UNL     1      -3.580   4.101   2.389  0.00  0.00    +0.217 C 
ATOM      8  O   UNL     1      -2.476   4.537   2.141  0.00  0.00    -0.275 OA
ATOM      9  N   UNL     1      -4.529   4.915   2.892  0.00  0.00    -0.315 N 
ATOM     10  H   UNL     1      -5.412   4.565   3.090  0.00  0.00    +0.149 HD
BRANCH   9  11
ATOM     11  C   UNL     1      -4.228   6.327   3.139  0.00  0.00    +0.108 C 
BRANCH  11  12
ATOM     12  C   UNL     1      -5.468   7.022   3.705  0.00  0.00    +0.065 C 
BRANCH  12  13
ATOM     13  C   UNL     1      -5.152   8.496   3.963  0.00  0.00    +0.175 C 
ATOM     14  N   UNL     1      -4.100   8.617   4.980  0.00  0.00    -0.363 N 
ATOM     15  C   UNL     1      -4.601   9.278   5.983  0.00  0.00    +0.060 A 
ATOM     16  C   UNL     1      -4.045   9.706   7.274  0.00  0.00    +0.027 A 
ATOM     17  C   UNL     1      -4.819  10.396   8.136  0.00  0.00    +0.002 A 
ATOM     18  C   UNL     1      -6.155  10.730   7.854  0.00  0.00    +0.002 A 
ATOM     19  C   UNL     1      -6.763  10.386   6.700  0.00  0.00    +0.027 A 
ATOM     20  C   UNL     1      -6.015   9.633   5.684  0.00  0.00    +0.060 A 
ATOM     21  N   UNL     1      -6.334   9.177   4.508  0.00  0.00    -0.363 N 
ATOM     22  H   UNL     1      -3.198   8.267   4.916  0.00  0.00    +0.162 HD
ATOM     23  H   UNL     1      -7.195   9.269   4.071  0.00  0.00    +0.162 HD
ENDBRANCH  12  13
ENDBRANCH  11  12
ENDBRANCH   9  11
ENDBRANCH   5   7
BRANCH   1  24
ATOM     24  S   UNL     1      -2.700  -0.274   0.013  0.00  0.00    +0.062 S 
ATOM     25  O   UNL     1      -2.783   0.712  -1.007  0.00  0.00    -0.153 OA
ATOM     26  O   UNL     1      -3.544  -1.417   0.037  0.00  0.00    -0.153 OA
BRANCH  24  29
ATOM     27  C   UNL     1      -0.018   1.503   0.010  0.00  0.00    +0.053 C 
ATOM     28  C   UNL     1       0.002  -0.004   0.002  0.00  0.00    +0.014 A 
ATOM     29  C   UNL     1      -1.043  -0.873   0.002  0.00  0.00    +0.116 A 
ATOM     30  C   UNL     1      -0.790  -2.225  -0.007  0.00  0.00    +0.048 A 
ATOM     31  C   UNL     1       0.511  -2.653  -0.015  0.00  0.00    +0.062 A 
ATOM     32  S   UNL     1       1.405  -1.107  -0.018  0.00  0.00    -0.088 S 
BRANCH  31  33
ATOM     33  C   UNL     1       1.038  -4.033  -0.024  0.00  0.00    +0.209 A 
ATOM     34  N   UNL     1       2.340  -4.378  -0.026  0.00  0.00    -0.191 NA
ATOM     35  C   UNL     1       2.457  -5.675  -0.036  0.00  0.00    +0.225 A 
ATOM     36  O   UNL     1       1.231  -6.214  -0.040  0.00  0.00    -0.338 OA
ATOM     37  N   UNL     1       0.315  -5.129  -0.027  0.00  0.00    -0.056 NA
ATOM     38  C   UNL     1       3.755  -6.440  -0.041  0.00  0.00    +0.112 C 
ENDBRANCH  31  33
ENDBRANCH  24  29
ENDBRANCH   1  24
TORSDOF 7
