REMARK  Name = ZINC45933572
REMARK  6 active torsions:
REMARK  status: ('A' for Active; 'I' for Inactive)
REMARK    1  A    between atoms: C_7  and  C_11
REMARK    2  A    between atoms: C_11  and  C_12
REMARK    3  A    between atoms: N_14  and  N_15
REMARK    4  A    between atoms: C_16  and  C_18
REMARK    5  A    between atoms: C_21  and  S_23
REMARK    6  A    between atoms: S_23  and  N_26
REMARK                            x       y       z     vdW  Elec       q    Type
REMARK                         _______ _______ _______ _____ _____    ______ ____
ROOT
ATOM      1  N   UNL     1      -0.995  -4.895  -2.989  0.00  0.00    -0.228 N 
ATOM      2  C   UNL     1      -1.838  -5.918  -3.231  0.00  0.00    +0.295 C 
ATOM      3  O   UNL     1      -2.257  -6.592  -2.309  0.00  0.00    -0.265 OA
ATOM      4  H   UNL     1      -0.661  -4.357  -3.724  0.00  0.00    +0.173 HD
ENDROOT
BRANCH   2   5
ATOM      5  C   UNL     1      -2.251  -6.218  -4.606  0.00  0.00    +0.193 A 
ATOM      6  C   UNL     1      -3.099  -7.217  -4.989  0.00  0.00    +0.057 A 
ATOM      7  C   UNL     1      -3.211  -7.139  -6.386  0.00  0.00    +0.072 A 
ATOM      8  C   UNL     1      -2.435  -6.109  -6.790  0.00  0.00    +0.259 A 
ATOM      9  O   UNL     1      -1.863  -5.553  -5.714  0.00  0.00    -0.432 OA
BRANCH   8  10
ATOM     10  S   UNL     1      -2.217  -5.580  -8.456  0.00  0.00    +0.094 S 
ATOM     11  O   UNL     1      -0.970  -4.901  -8.507  0.00  0.00    -0.150 OA
ATOM     12  O   UNL     1      -2.508  -6.701  -9.280  0.00  0.00    -0.150 OA
BRANCH  10  13
ATOM     13  N   UNL     1      -3.385  -4.448  -8.767  0.00  0.00    -0.174 NA
ATOM     14  C   UNL     1      -4.730  -4.726  -9.293  0.00  0.00    +0.109 C 
ATOM     15  C   UNL     1      -5.452  -3.371  -9.444  0.00  0.00    +0.018 C 
ATOM     16  C   UNL     1      -4.279  -2.359  -9.530  0.00  0.00    +0.018 C 
ATOM     17  C   UNL     1      -3.251  -2.995  -8.557  0.00  0.00    +0.109 C 
ENDBRANCH  10  13
ENDBRANCH   8  10
ENDBRANCH   2   5
BRANCH   1  20
ATOM     18  C   UNL     1       0.242  -3.584  -1.434  0.00  0.00    +0.233 C 
ATOM     19  O   UNL     1       0.660  -2.913  -2.353  0.00  0.00    -0.274 OA
ATOM     20  N   UNL     1      -0.601  -4.607  -1.676  0.00  0.00    -0.234 N 
ATOM     21  H   UNL     1      -0.935  -5.145  -0.941  0.00  0.00    +0.173 HD
BRANCH  18  22
ATOM     22  C   UNL     1       0.666  -3.275  -0.021  0.00  0.00    +0.134 C 
BRANCH  22  29
ATOM     23  C   UNL     1      -0.017   1.362   0.009  0.00  0.00    +0.001 A 
ATOM     24  C   UNL     1       1.170   2.083   0.002  0.00  0.00    +0.002 A 
ATOM     25  C   UNL     1       2.386   1.436  -0.013  0.00  0.00    +0.026 A 
ATOM     26  C   UNL     1       2.428   0.046  -0.021  0.00  0.00    +0.047 A 
ATOM     27  C   UNL     1       1.223  -0.681  -0.013  0.00  0.00    +0.003 A 
ATOM     28  C   UNL     1       0.002  -0.004   0.002  0.00  0.00    +0.010 A 
ATOM     29  C   UNL     1       1.604  -2.095  -0.025  0.00  0.00    -0.014 A 
ATOM     30  C   UNL     1       2.945  -2.141  -0.038  0.00  0.00    +0.087 A 
ATOM     31  N   UNL     1       3.455  -0.871  -0.036  0.00  0.00    -0.360 N 
ATOM     32  H   UNL     1       4.399  -0.650  -0.044  0.00  0.00    +0.165 HD
ENDBRANCH  22  29
ENDBRANCH  18  22
ENDBRANCH   1  20
TORSDOF 6
