REMARK  Name = ZINC25377236
REMARK  11 active torsions:
REMARK  status: ('A' for Active; 'I' for Inactive)
REMARK    1  A    between atoms: C_1  and  C_2
REMARK    2  A    between atoms: C_2  and  C_4
REMARK    3  A    between atoms: C_7  and  S_10
REMARK    4  A    between atoms: S_10  and  N_13
REMARK    5  A    between atoms: N_13  and  C_14
REMARK    6  A    between atoms: C_14  and  C_15
REMARK    7  A    between atoms: C_18  and  C_21
REMARK    8  A    between atoms: N_23  and  C_24
REMARK    9  A    between atoms: C_24  and  C_25
REMARK   10  A    between atoms: C_25  and  C_27
REMARK   11  A    between atoms: C_25  and  N_32
REMARK                            x       y       z     vdW  Elec       q    Type
REMARK                         _______ _______ _______ _____ _____    ______ ____
ROOT
ATOM      1  C   UNL     1       1.487   4.875   3.937  0.00  0.00    -0.032 A 
ATOM      2  C   UNL     1       2.195   6.063   3.898  0.00  0.00    +0.006 A 
ATOM      3  C   UNL     1       2.241   6.879   5.010  0.00  0.00    +0.013 A 
ATOM      4  C   UNL     1       1.581   6.498   6.179  0.00  0.00    +0.037 A 
ATOM      5  C   UNL     1       0.873   5.295   6.213  0.00  0.00    +0.013 A 
ATOM      6  C   UNL     1       0.830   4.492   5.093  0.00  0.00    +0.006 A 
ENDROOT
BRANCH   4   7
ATOM      7  C   UNL     1       1.630   7.364   7.376  0.00  0.00    +0.244 C 
ATOM      8  O   UNL     1       1.054   7.030   8.393  0.00  0.00    -0.270 OA
ATOM      9  N   UNL     1       2.315   8.525   7.340  0.00  0.00    -0.312 N 
ATOM     10  H   UNL     1       2.836   8.827   6.420  0.00  0.00    +0.149 HD
BRANCH   9  11
ATOM     11  C   UNL     1       2.364   9.383   8.526  0.00  0.00    +0.097 C 
BRANCH  11  12
ATOM     12  C   UNL     1       3.199  10.628   8.220  0.00  0.00    +0.016 C 
BRANCH  12  13
ATOM     13  N   UNL     1       2.658  11.301   7.032  0.00  0.00    +0.387 N 
ATOM     14  C   UNL     1       1.198  11.540   7.174  0.00  0.00    -0.078 C 
ATOM     15  C   UNL     1       0.923  12.669   6.149  0.00  0.00    -0.020 C 
ATOM     16  C   UNL     1       2.185  13.555   6.262  0.00  0.00    -0.020 C 
ATOM     17  C   UNL     1       3.270  12.636   6.854  0.00  0.00    -0.078 C 
ATOM     18  H   UNL     1       2.883  10.638   6.184  0.00  0.00    -0.081 HD
ENDBRANCH  12  13
BRANCH  12  19
ATOM     19  C   UNL     1       3.148  11.569   9.397  0.00  0.00    +0.093 A 
ATOM     20  C   UNL     1       4.149  11.794  10.267  0.00  0.00    +0.043 A 
ATOM     21  C   UNL     1       3.673  12.742  11.201  0.00  0.00    +0.041 A 
ATOM     22  C   UNL     1       2.407  13.033  10.852  0.00  0.00    +0.195 A 
ATOM     23  O   UNL     1       2.094  12.319   9.758  0.00  0.00    -0.469 OA
ENDBRANCH  12  19
ENDBRANCH  11  12
ENDBRANCH   9  11
ENDBRANCH   4   7
BRANCH   1  24
ATOM     24  C   UNL     1       1.437   3.992   2.717  0.00  0.00    +0.141 C 
BRANCH  24  25
ATOM     25  N   UNL     1       0.283   4.362   1.893  0.00  0.00    -0.186 NA
ATOM     26  H   UNL     1      -0.588   4.851   2.354  0.00  0.00    +0.148 HD
BRANCH  25  27
ATOM     27  S   UNL     1       0.178   3.830   0.329  0.00  0.00    +0.059 S 
ATOM     28  O   UNL     1       1.431   4.111  -0.281  0.00  0.00    -0.153 OA
ATOM     29  O   UNL     1      -1.048   4.328  -0.188  0.00  0.00    -0.153 OA
BRANCH  27  33
ATOM     30  C   UNL     1      -0.212  -0.683   0.470  0.00  0.00    +0.017 A 
ATOM     31  C   UNL     1      -1.355   0.123   0.494  0.00  0.00    +0.013 A 
ATOM     32  C   UNL     1      -1.228   1.495   0.450  0.00  0.00    +0.029 A 
ATOM     33  C   UNL     1       0.026   2.076   0.384  0.00  0.00    +0.105 A 
ATOM     34  C   UNL     1       1.162   1.286   0.361  0.00  0.00    +0.029 A 
ATOM     35  C   UNL     1       1.052  -0.088   0.403  0.00  0.00    +0.013 A 
BRANCH  30  37
ATOM     36  C   UNL     1       0.895  -3.012   0.491  0.00  0.00    +0.091 C 
ATOM     37  C   UNL     1      -0.339  -2.148   0.517  0.00  0.00    +0.160 C 
ATOM     38  O   UNL     1      -1.437  -2.660   0.575  0.00  0.00    -0.292 OA
ENDBRANCH  30  37
ENDBRANCH  27  33
ENDBRANCH  25  27
ENDBRANCH  24  25
ENDBRANCH   1  24
TORSDOF 10
