REMARK  Name = ZINC40621179
REMARK  7 active torsions:
REMARK  status: ('A' for Active; 'I' for Inactive)
REMARK    1  A    between atoms: C_1  and  C_2
REMARK    2  A    between atoms: C_5  and  N_9
REMARK    3  A    between atoms: C_6  and  C_8
REMARK    4  A    between atoms: C_11  and  N_27
REMARK    5  A    between atoms: C_12  and  N_16
REMARK    6  A    between atoms: N_16  and  N_17
REMARK    7  A    between atoms: C_18  and  C_20
REMARK                            x       y       z     vdW  Elec       q    Type
REMARK                         _______ _______ _______ _____ _____    ______ ____
ROOT
ATOM      1  N   UNL     1       0.059  -4.168  -0.021  0.00  0.00    -0.297 N 
ATOM      2  C   UNL     1      -0.042  -4.857  -1.221  0.00  0.00    +0.159 A 
ATOM      3  C   UNL     1      -0.134  -6.245  -1.233  0.00  0.00    +0.207 A 
ATOM      4  C   UNL     1      -0.235  -6.889  -2.462  0.00  0.00    +0.171 A 
ATOM      5  N   UNL     1      -0.239  -6.158  -3.576  0.00  0.00    -0.217 NA
ATOM      6  C   UNL     1      -0.149  -4.845  -3.523  0.00  0.00    +0.225 A 
ATOM      7  N   UNL     1      -0.058  -4.198  -2.378  0.00  0.00    -0.218 NA
ATOM      8  H   UNL     1      -0.027  -4.644   0.820  0.00  0.00    +0.154 HD
ENDROOT
BRANCH   1  13
ATOM      9  C   UNL     1       0.981   1.428  -0.032  0.00  0.00    +0.044 C 
ATOM     10  C   UNL     1       0.736  -0.059  -0.029  0.00  0.00    -0.050 A 
ATOM     11  C   UNL     1       1.181  -0.834  -1.084  0.00  0.00    +0.005 A 
ATOM     12  C   UNL     1       0.959  -2.196  -1.085  0.00  0.00    +0.024 A 
ATOM     13  C   UNL     1       0.287  -2.789  -0.023  0.00  0.00    +0.035 A 
ATOM     14  C   UNL     1      -0.160  -2.008   1.035  0.00  0.00    -0.029 A 
ATOM     15  C   UNL     1       0.071  -0.646   1.032  0.00  0.00    +0.008 A 
ATOM     16  C   UNL     1      -0.889  -2.647   2.188  0.00  0.00    +0.045 C 
ENDBRANCH   1  13
BRANCH   3  17
ATOM     17  N   UNL     1      -0.126  -7.018   0.030  0.00  0.00    +0.063 N 
ATOM     18  O   UNL     1      -1.166  -7.264   0.595  0.00  0.00    -0.126 OA
ATOM     19  O   UNL     1       0.921  -7.402   0.496  0.00  0.00    -0.126 OA
ENDBRANCH   3  17
BRANCH   4  20
ATOM     20  N   UNL     1      -0.329  -8.271  -2.528  0.00  0.00    -0.246 N 
ATOM     21  H   UNL     1      -0.325  -8.796  -1.712  0.00  0.00    +0.172 HD
BRANCH  20  22
ATOM     22  N   UNL     1      -0.429  -8.908  -3.771  0.00  0.00    -0.231 N 
ATOM     23  C   UNL     1      -0.520 -10.251  -3.835  0.00  0.00    +0.260 C 
ATOM     24  O   UNL     1      -0.516 -10.909  -2.813  0.00  0.00    -0.269 OA
ATOM     25  H   UNL     1      -0.433  -8.382  -4.587  0.00  0.00    +0.173 HD
BRANCH  23  26
ATOM     26  C   UNL     1      -0.627 -10.923  -5.147  0.00  0.00    +0.040 A 
ATOM     27  C   UNL     1      -0.627 -10.170  -6.323  0.00  0.00    +0.013 A 
ATOM     28  C   UNL     1      -0.725 -10.803  -7.544  0.00  0.00    +0.002 A 
ATOM     29  C   UNL     1      -0.825 -12.182  -7.607  0.00  0.00    +0.020 A 
ATOM     30  C   UNL     1      -0.826 -12.935  -6.445  0.00  0.00    +0.042 A 
ATOM     31  C   UNL     1      -0.721 -12.314  -5.216  0.00  0.00    +0.033 A 
ATOM     32 CL   UNL     1      -0.951 -14.665  -6.534  0.00  0.00    -0.084 Cl
ENDBRANCH  23  26
ENDBRANCH  20  22
ENDBRANCH   4  20
TORSDOF 5
