REMARK  Name = ZINC02325702
REMARK  6 active torsions:
REMARK  status: ('A' for Active; 'I' for Inactive)
REMARK    1  A    between atoms: C_4  and  O_7
REMARK    2  A    between atoms: O_7  and  C_8
REMARK    3  A    between atoms: C_11  and  N_14
REMARK    4  A    between atoms: C_15  and  C_17
REMARK    5  A    between atoms: N_25  and  C_26
REMARK    6  A    between atoms: C_26  and  C_27
REMARK                            x       y       z     vdW  Elec       q    Type
REMARK                         _______ _______ _______ _____ _____    ______ ____
ROOT
ATOM      1  N   UNL     1       3.212  -6.091  -0.367  0.00  0.00    -0.284 N 
ATOM      2  C   UNL     1       4.311  -6.865  -0.268  0.00  0.00    +0.238 C 
ATOM      3  O   UNL     1       5.408  -6.353  -0.189  0.00  0.00    -0.273 OA
ATOM      4  H   UNL     1       2.345  -6.498  -0.517  0.00  0.00    +0.155 HD
ENDROOT
BRANCH   2   5
ATOM      5  C   UNL     1       4.177  -8.366  -0.253  0.00  0.00    +0.168 C 
ATOM      6  C   UNL     1       4.012  -8.884  -1.685  0.00  0.00    +0.128 C 
ATOM      7  C   UNL     1       5.325  -8.828  -2.413  0.00  0.00    +0.221 C 
ATOM      8  O   UNL     1       5.318  -8.801  -3.625  0.00  0.00    -0.275 OA
ATOM      9  N   UNL     1       6.505  -8.804  -1.776  0.00  0.00    -0.258 N 
ATOM     10  C   UNL     1       6.571  -8.768  -0.393  0.00  0.00    +0.183 C 
ATOM     11  N   UNL     1       5.397  -8.969   0.314  0.00  0.00    -0.305 N 
ATOM     12  N   UNL     1       7.698  -8.553   0.221  0.00  0.00    -0.253 NA
ATOM     13  H   UNL     1       7.325  -8.813  -2.292  0.00  0.00    +0.157 HD
ATOM     14  H   UNL     1       5.378  -9.480   1.139  0.00  0.00    +0.149 HD
BRANCH  12  15
ATOM     15  C   UNL     1       8.902  -8.227  -0.548  0.00  0.00    +0.176 C 
BRANCH  15  16
ATOM     16  C   UNL     1       9.413  -6.846  -0.134  0.00  0.00    +0.140 C 
ATOM     17  C   UNL     1      10.609  -6.442  -1.023  0.00  0.00    +0.035 C 
ATOM     18  C   UNL     1      11.555  -5.747  -0.007  0.00  0.00    +0.031 C 
ATOM     19  C   UNL     1      11.278  -6.579   1.270  0.00  0.00    +0.160 C 
ATOM     20  O   UNL     1       9.874  -6.885   1.222  0.00  0.00    -0.375 OA
ENDBRANCH  15  16
ENDBRANCH  12  15
ENDBRANCH   2   5
BRANCH   1  24
ATOM     21  C   UNL     1       3.543  -1.948  -0.035  0.00  0.00    +0.129 A 
ATOM     22  C   UNL     1       4.479  -2.770   0.576  0.00  0.00    +0.048 A 
ATOM     23  C   UNL     1       4.370  -4.142   0.467  0.00  0.00    +0.027 A 
ATOM     24  C   UNL     1       3.323  -4.699  -0.255  0.00  0.00    +0.034 A 
ATOM     25  C   UNL     1       2.386  -3.876  -0.866  0.00  0.00    +0.027 A 
ATOM     26  C   UNL     1       2.493  -2.505  -0.751  0.00  0.00    +0.048 A 
BRANCH  21  27
ATOM     27  O   UNL     1       3.651  -0.597   0.074  0.00  0.00    -0.456 OA
BRANCH  27  31
ATOM     28  C   UNL     1       6.526   1.305  -2.192  0.00  0.00    +0.000 A 
ATOM     29  C   UNL     1       5.642   2.049  -1.432  0.00  0.00    +0.004 A 
ATOM     30  C   UNL     1       4.678   1.415  -0.673  0.00  0.00    +0.046 A 
ATOM     31  C   UNL     1       4.598   0.029  -0.673  0.00  0.00    +0.128 A 
ATOM     32  C   UNL     1       5.486  -0.715  -1.436  0.00  0.00    +0.046 A 
ATOM     33  C   UNL     1       6.448  -0.076  -2.193  0.00  0.00    +0.004 A 
ENDBRANCH  27  31
ENDBRANCH  21  27
ENDBRANCH   1  24
TORSDOF 6
