REMARK  Name = ZINC63514470
REMARK  8 active torsions:
REMARK  status: ('A' for Active; 'I' for Inactive)
REMARK    1  A    between atoms: C_1  and  C_2
REMARK    2  A    between atoms: C_2  and  O_3
REMARK    3  A    between atoms: O_3  and  C_4
REMARK    4  A    between atoms: C_7  and  N_10
REMARK    5  A    between atoms: C_11  and  S_25
REMARK    6  A    between atoms: N_12  and  C_13
REMARK    7  A    between atoms: C_16  and  C_19
REMARK    8  A    between atoms: S_25  and  C_26
REMARK                            x       y       z     vdW  Elec       q    Type
REMARK                         _______ _______ _______ _____ _____    ______ ____
ROOT
ATOM      1  N   UNL     1       2.575  -6.003  -2.277  0.00  0.00    -0.226 NA
ATOM      2  C   UNL     1       1.807  -6.496  -3.222  0.00  0.00    +0.156 C 
ATOM      3  N   UNL     1       1.431  -7.817  -3.183  0.00  0.00    -0.298 N 
ATOM      4  H   UNL     1       1.812  -8.410  -2.516  0.00  0.00    +0.150 HD
ENDROOT
BRANCH   1   8
ATOM      5  C   UNL     1       3.493  -1.964  -2.250  0.00  0.00    +0.121 A 
ATOM      6  C   UNL     1       2.989  -2.567  -1.106  0.00  0.00    +0.048 A 
ATOM      7  C   UNL     1       2.682  -3.911  -1.111  0.00  0.00    +0.031 A 
ATOM      8  C   UNL     1       2.878  -4.666  -2.268  0.00  0.00    +0.067 A 
ATOM      9  C   UNL     1       3.385  -4.056  -3.417  0.00  0.00    +0.031 A 
ATOM     10  C   UNL     1       3.685  -2.709  -3.405  0.00  0.00    +0.048 A 
BRANCH   5  11
ATOM     11  O   UNL     1       3.794  -0.638  -2.242  0.00  0.00    -0.492 OA
BRANCH  11  13
ATOM     12  C   UNL     1       3.966   1.537  -1.202  0.00  0.00    +0.048 C 
ATOM     13  C   UNL     1       3.573   0.070  -1.020  0.00  0.00    +0.225 C 
ENDBRANCH  11  13
ENDBRANCH   5  11
ENDBRANCH   1   8
BRANCH   3  14
ATOM     14  C   UNL     1       0.456  -8.331  -4.147  0.00  0.00    +0.239 C 
ATOM     15  C   UNL     1      -0.404  -9.412  -3.517  0.00  0.00    +0.050 C 
ATOM     16  C   UNL     1      -0.141 -10.506  -4.258  0.00  0.00    +0.093 C 
ATOM     17  N   UNL     1       0.756 -10.212  -5.236  0.00  0.00    -0.152 NA
ATOM     18  N   UNL     1       1.135  -9.035  -5.248  0.00  0.00    -0.160 NA
BRANCH  16  19
ATOM     19  C   UNL     1      -0.744 -11.843  -4.037  0.00  0.00    +0.002 A 
ATOM     20  C   UNL     1      -1.660 -12.035  -3.004  0.00  0.00    +0.010 A 
ATOM     21  C   UNL     1      -2.218 -13.281  -2.803  0.00  0.00    +0.001 A 
ATOM     22  C   UNL     1      -1.871 -14.338  -3.625  0.00  0.00    +0.000 A 
ATOM     23  C   UNL     1      -0.962 -14.153  -4.652  0.00  0.00    +0.001 A 
ATOM     24  C   UNL     1      -0.402 -12.911  -4.865  0.00  0.00    +0.010 A 
ENDBRANCH  16  19
ENDBRANCH   3  14
BRANCH   2  25
ATOM     25  S   UNL     1       1.259  -5.463  -4.540  0.00  0.00    -0.094 S 
ATOM     26  C   UNL     1       1.192  -6.576  -5.971  0.00  0.00    +0.093 C 
ENDBRANCH   2  25
TORSDOF 6
