REMARK  Name = ZINC36025864
REMARK  10 active torsions:
REMARK  status: ('A' for Active; 'I' for Inactive)
REMARK    1  A    between atoms: C_1  and  C_2
REMARK    2  A    between atoms: C_2  and  C_3
REMARK    3  A    between atoms: C_2  and  N_4
REMARK    4  A    between atoms: N_10  and  C_13
REMARK    5  A    between atoms: C_17  and  N_19
REMARK    6  A    between atoms: C_20  and  C_22
REMARK    7  A    between atoms: C_22  and  N_23
REMARK    8  A    between atoms: N_23  and  C_24
REMARK    9  A    between atoms: C_24  and  C_25
REMARK   10  A    between atoms: C_32  and  C_34
REMARK                            x       y       z     vdW  Elec       q    Type
REMARK                         _______ _______ _______ _____ _____    ______ ____
ROOT
ATOM      1  C   UNL     1      -6.679  -3.311  -1.178  0.00  0.00    +0.032 A 
ATOM      2  C   UNL     1      -7.724  -2.497  -0.759  0.00  0.00    +0.024 A 
ATOM      3  C   UNL     1      -9.003  -3.010  -0.657  0.00  0.00    +0.023 A 
ATOM      4  C   UNL     1      -9.247  -4.334  -0.972  0.00  0.00    +0.062 A 
ATOM      5  C   UNL     1      -8.205  -5.153  -1.392  0.00  0.00    +0.054 A 
ATOM      6  C   UNL     1      -6.921  -4.639  -1.500  0.00  0.00    +0.048 A 
ATOM      7 CL   UNL     1     -10.855  -4.974  -0.842  0.00  0.00    -0.082 Cl
ENDROOT
BRANCH   1  14
ATOM      8  N   UNL     1      -1.326  -0.584   0.053  0.00  0.00    -0.297 N 
ATOM      9  C   UNL     1      -1.609  -1.794  -0.469  0.00  0.00    +0.302 C 
ATOM     10  O   UNL     1      -0.740  -2.433  -1.030  0.00  0.00    -0.253 OA
ATOM     11  N   UNL     1      -2.857  -2.295  -0.370  0.00  0.00    -0.283 N 
ATOM     12  C   UNL     1      -3.946  -1.485   0.193  0.00  0.00    +0.128 C 
ATOM     13  C   UNL     1      -5.090  -1.426  -0.827  0.00  0.00    +0.124 C 
ATOM     14  N   UNL     1      -5.386  -2.792  -1.281  0.00  0.00    -0.327 N 
ATOM     15  C   UNL     1      -4.296  -3.602  -1.844  0.00  0.00    +0.124 C 
ATOM     16  C   UNL     1      -3.153  -3.659  -0.830  0.00  0.00    +0.128 C 
ATOM     17  H   UNL     1      -2.034  -0.043   0.436  0.00  0.00    +0.150 HD
BRANCH   8  19
ATOM     18  C   UNL     1       0.043   1.442   0.086  0.00  0.00    +0.027 C 
ATOM     19  C   UNL     1       0.052  -0.087   0.043  0.00  0.00    +0.068 C 
ATOM     20  C   UNL     1       0.798  -0.627   1.265  0.00  0.00    +0.027 C 
ENDBRANCH   8  19
ENDBRANCH   1  14
BRANCH   5  21
ATOM     21  N   UNL     1      -8.453  -6.493  -1.710  0.00  0.00    -0.283 N 
ATOM     22  C   UNL     1      -7.766  -7.088  -2.706  0.00  0.00    +0.235 C 
ATOM     23  O   UNL     1      -6.878  -6.487  -3.273  0.00  0.00    -0.274 OA
ATOM     24  H   UNL     1      -9.119  -6.995  -1.214  0.00  0.00    +0.155 HD
BRANCH  22  25
ATOM     25  C   UNL     1      -8.101  -8.499  -3.115  0.00  0.00    +0.204 C 
BRANCH  25  26
ATOM     26  N   UNL     1      -7.219  -8.912  -4.210  0.00  0.00    -0.288 N 
ATOM     27  C   UNL     1      -7.585  -8.695  -5.488  0.00  0.00    +0.219 C 
ATOM     28  O   UNL     1      -6.854  -9.037  -6.394  0.00  0.00    -0.275 OA
BRANCH  27  29
ATOM     29  C   UNL     1      -8.900  -8.025  -5.793  0.00  0.00    +0.075 C 
ATOM     30  C   UNL     1      -9.989  -8.875  -6.450  0.00  0.00    +0.013 C 
ATOM     31  C   UNL     1      -9.258  -7.806  -7.264  0.00  0.00    +0.013 C 
ENDBRANCH  27  29
BRANCH  26  32
ATOM     32  C   UNL     1      -5.940  -9.563  -3.914  0.00  0.00    +0.143 C 
BRANCH  32  33
ATOM     33  C   UNL     1      -6.139 -11.055  -3.846  0.00  0.00    -0.030 A 
ATOM     34  C   UNL     1      -6.465 -11.655  -2.644  0.00  0.00    +0.008 A 
ATOM     35  C   UNL     1      -6.649 -13.023  -2.581  0.00  0.00    +0.038 A 
ATOM     36  C   UNL     1      -6.506 -13.793  -3.723  0.00  0.00    +0.123 A 
ATOM     37  C   UNL     1      -6.180 -13.192  -4.926  0.00  0.00    +0.038 A 
ATOM     38  C   UNL     1      -6.002 -11.822  -4.988  0.00  0.00    +0.008 A 
ATOM     39  F   UNL     1      -6.684 -15.131  -3.662  0.00  0.00    -0.205 F 
ENDBRANCH  32  33
ENDBRANCH  26  32
ENDBRANCH  25  26
ENDBRANCH  22  25
ENDBRANCH   5  21
TORSDOF 8
