REMARK  Name = ZINC28667474
REMARK  9 active torsions:
REMARK  status: ('A' for Active; 'I' for Inactive)
REMARK    1  A    between atoms: C_1  and  C_2
REMARK    2  A    between atoms: C_2  and  C_4
REMARK    3  A    between atoms: C_2  and  N_13
REMARK    4  A    between atoms: C_14  and  C_16
REMARK    5  A    between atoms: C_17  and  C_18
REMARK    6  A    between atoms: C_21  and  S_24
REMARK    7  A    between atoms: S_24  and  N_27
REMARK    8  A    between atoms: N_27  and  C_28
REMARK    9  A    between atoms: C_28  and  C_29
REMARK                            x       y       z     vdW  Elec       q    Type
REMARK                         _______ _______ _______ _____ _____    ______ ____
ROOT
ATOM      1  C   UNL     1       0.099   5.921  -2.303  0.00  0.00    +0.068 C 
ATOM      2  C   UNL     1       0.471   7.090  -2.860  0.00  0.00    +0.013 C 
ENDROOT
BRANCH   2   3
ATOM      3  C   UNL     1      -0.460   7.816  -3.739  0.00  0.00    -0.025 A 
ATOM      4  C   UNL     1      -1.730   7.293  -4.003  0.00  0.00    +0.010 A 
ATOM      5  C   UNL     1      -2.598   7.982  -4.824  0.00  0.00    +0.029 A 
ATOM      6  C   UNL     1      -2.212   9.182  -5.394  0.00  0.00    +0.105 A 
ATOM      7  C   UNL     1      -0.955   9.704  -5.142  0.00  0.00    +0.029 A 
ATOM      8  C   UNL     1      -0.077   9.030  -4.319  0.00  0.00    +0.010 A 
BRANCH   6   9
ATOM      9  S   UNL     1      -3.326  10.051  -6.447  0.00  0.00    +0.059 S 
ATOM     10  O   UNL     1      -4.635   9.630  -6.089  0.00  0.00    -0.153 OA
ATOM     11  O   UNL     1      -2.931  11.416  -6.419  0.00  0.00    -0.153 OA
BRANCH   9  12
ATOM     12  N   UNL     1      -3.062   9.513  -7.991  0.00  0.00    -0.183 NA
ATOM     13  H   UNL     1      -2.519  10.157  -8.699  0.00  0.00    +0.148 HD
BRANCH  12  14
ATOM     14  C   UNL     1      -3.350   8.120  -8.340  0.00  0.00    +0.180 C 
BRANCH  14  15
ATOM     15  C   UNL     1      -3.383   7.975  -9.840  0.00  0.00    +0.120 A 
ATOM     16  C   UNL     1      -2.332   7.679 -10.625  0.00  0.00    +0.046 A 
ATOM     17  C   UNL     1      -2.811   7.644 -11.955  0.00  0.00    +0.041 A 
ATOM     18  C   UNL     1      -4.127   7.920 -11.903  0.00  0.00    +0.195 A 
ATOM     19  O   UNL     1      -4.469   8.114 -10.619  0.00  0.00    -0.466 OA
ENDBRANCH  14  15
ENDBRANCH  12  14
ENDBRANCH   9  12
ENDBRANCH   6   9
ENDBRANCH   2   3
BRANCH   1  21
ATOM     20  N   UNL     1       0.652   4.030  -0.871  0.00  0.00    -0.302 N 
ATOM     21  C   UNL     1       1.025   5.199  -1.428  0.00  0.00    +0.237 C 
ATOM     22  O   UNL     1       2.131   5.654  -1.204  0.00  0.00    -0.271 OA
ATOM     23  H   UNL     1      -0.347   3.618  -1.073  0.00  0.00    +0.150 HD
BRANCH  20  25
ATOM     24  C   UNL     1       1.466   3.854   1.429  0.00  0.00    +0.036 C 
ATOM     25  C   UNL     1       1.579   3.307   0.004  0.00  0.00    +0.136 C 
BRANCH  25  26
ATOM     26  C   UNL     1       1.233   1.840   0.000  0.00  0.00    +0.126 A 
ATOM     27  C   UNL     1       2.127   0.842  -0.014  0.00  0.00    +0.055 A 
ATOM     28  C   UNL     1       1.349  -0.403  -0.013  0.00  0.00    +0.020 A 
ATOM     29  C   UNL     1       1.678  -1.758  -0.024  0.00  0.00    +0.011 A 
ATOM     30  C   UNL     1       0.683  -2.697  -0.018  0.00  0.00    +0.001 A 
ATOM     31  C   UNL     1      -0.649  -2.309  -0.003  0.00  0.00    +0.004 A 
ATOM     32  C   UNL     1      -0.993  -0.974   0.007  0.00  0.00    +0.047 A 
ATOM     33  C   UNL     1       0.002  -0.004   0.002  0.00  0.00    +0.135 A 
ATOM     34  O   UNL     1      -0.016   1.344   0.009  0.00  0.00    -0.458 OA
ENDBRANCH  25  26
ENDBRANCH  20  25
ENDBRANCH   1  21
TORSDOF 8
