REMARK  Name = ZINC67246421
REMARK  3 active torsions:
REMARK  status: ('A' for Active; 'I' for Inactive)
REMARK    1  A    between atoms: C_1  and  C_2
REMARK    2  A    between atoms: C_5  and  N_12
REMARK    3  A    between atoms: C_13  and  C_15
REMARK                            x       y       z     vdW  Elec       q    Type
REMARK                         _______ _______ _______ _____ _____    ______ ____
ROOT
ATOM      1  N   UNL     1       0.057  -4.196  -0.095  0.00  0.00    -0.285 N 
ATOM      2  C   UNL     1      -0.042  -4.834  -1.278  0.00  0.00    +0.220 C 
ATOM      3  O   UNL     1      -0.055  -4.198  -2.310  0.00  0.00    -0.275 OA
ATOM      4  H   UNL     1       0.134  -4.707   0.727  0.00  0.00    +0.155 HD
ENDROOT
BRANCH   2   5
ATOM      5  C   UNL     1      -0.136  -6.338  -1.317  0.00  0.00    +0.075 C 
ATOM      6  C   UNL     1       1.112  -6.944  -0.673  0.00  0.00    +0.015 C 
ATOM      7  C   UNL     1       1.010  -8.471  -0.703  0.00  0.00    +0.036 C 
ATOM      8  C   UNL     1       0.880  -8.947  -2.146  0.00  0.00    +0.112 C 
ATOM      9  C   UNL     1      -0.346  -8.331  -2.810  0.00  0.00    +0.036 C 
ATOM     10  C   UNL     1      -0.238  -6.804  -2.771  0.00  0.00    +0.015 C 
ATOM     11  C   UNL     1       2.129  -8.609  -2.927  0.00  0.00    +0.244 C 
ATOM     12  O   UNL     1       2.582  -7.506  -3.146  0.00  0.00    -0.273 OA
ATOM     13  N   UNL     1       2.633  -9.794  -3.331  0.00  0.00    -0.238 N 
ATOM     14  C   UNL     1       1.878 -10.818  -2.914  0.00  0.00    +0.307 C 
ATOM     15  O   UNL     1       2.129 -11.983  -3.153  0.00  0.00    -0.252 OA
ATOM     16  N   UNL     1       0.811 -10.413  -2.200  0.00  0.00    -0.285 N 
ATOM     17  H   UNL     1       3.441  -9.892  -3.858  0.00  0.00    +0.159 HD
ATOM     18  H   UNL     1       0.131 -10.977  -1.799  0.00  0.00    +0.151 HD
ENDBRANCH   2   5
BRANCH   1  23
ATOM     19  C   UNL     1       0.062   1.503   0.015  0.00  0.00    +0.046 C 
ATOM     20  C   UNL     1       0.052  -0.004   0.003  0.00  0.00    -0.024 A 
ATOM     21  C   UNL     1       0.631  -0.680  -1.027  0.00  0.00    +0.007 A 
ATOM     22  C   UNL     1       0.636  -2.071  -1.063  0.00  0.00    +0.024 A 
ATOM     23  C   UNL     1       0.050  -2.802  -0.051  0.00  0.00    +0.043 A 
ATOM     24  C   UNL     1      -0.558  -2.126   1.027  0.00  0.00    +0.022 A 
ATOM     25  C   UNL     1      -0.551  -0.710   1.058  0.00  0.00    +0.076 A 
ATOM     26  N   UNL     1      -1.122  -0.065   2.081  0.00  0.00    -0.255 NA
ATOM     27  C   UNL     1      -1.687  -0.717   3.068  0.00  0.00    +0.111 A 
ATOM     28  C   UNL     1      -1.721  -2.109   3.102  0.00  0.00    +0.020 A 
ATOM     29  C   UNL     1      -1.168  -2.829   2.080  0.00  0.00    +0.013 A 
ENDBRANCH   1  23
TORSDOF 2
