REMARK  Name = ZINC64181853
REMARK  12 active torsions:
REMARK  status: ('A' for Active; 'I' for Inactive)
REMARK    1  A    between atoms: C_1  and  C_2
REMARK    2  A    between atoms: C_2  and  O_3
REMARK    3  A    between atoms: O_3  and  C_4
REMARK    4  A    between atoms: C_4  and  C_6
REMARK    5  A    between atoms: C_8  and  N_17
REMARK    6  A    between atoms: C_18  and  C_20
REMARK    7  A    between atoms: C_20  and  S_21
REMARK    8  A    between atoms: S_21  and  C_22
REMARK    9  A    between atoms: C_26  and  C_28
REMARK   10  A    between atoms: C_28  and  C_29
REMARK   11  A    between atoms: C_28  and  C_30
REMARK   12  A    between atoms: C_28  and  C_31
REMARK                            x       y       z     vdW  Elec       q    Type
REMARK                         _______ _______ _______ _____ _____    ______ ____
ROOT
ATOM      1  N   UNL     1      -2.609  -1.859   2.427  0.00  0.00    -0.301 N 
ATOM      2  C   UNL     1      -2.728  -0.800   3.252  0.00  0.00    +0.224 C 
ATOM      3  O   UNL     1      -3.637  -0.012   3.101  0.00  0.00    -0.275 OA
ATOM      4  H   UNL     1      -1.881  -2.489   2.547  0.00  0.00    +0.150 HD
ENDROOT
BRANCH   1   6
ATOM      5  C   UNL     1      -2.881  -2.427   0.017  0.00  0.00    +0.155 C 
ATOM      6  C   UNL     1      -3.579  -2.058   1.347  0.00  0.00    +0.153 C 
ATOM      7  S   UNL     1      -4.553  -3.603   1.589  0.00  0.00    -0.106 S 
ATOM      8  C   UNL     1      -3.579  -4.685   0.569  0.00  0.00    -0.013 C 
ATOM      9  C   UNL     1      -2.776  -3.921  -0.159  0.00  0.00    -0.044 C 
ATOM     10  C   UNL     1      -1.784  -4.538  -1.143  0.00  0.00    +0.032 C 
ATOM     11  C   UNL     1      -1.579  -6.010  -0.791  0.00  0.00    +0.005 C 
ATOM     12  C   UNL     1      -2.941  -6.706  -0.692  0.00  0.00    +0.005 C 
ATOM     13  C   UNL     1      -3.662  -6.186   0.551  0.00  0.00    +0.042 C 
BRANCH   5  14
ATOM     14  C   UNL     1      -1.496  -1.832   0.006  0.00  0.00    +0.317 C 
ATOM     15  O   UNL     1      -0.578  -2.429   0.517  0.00  0.00    -0.250 OA
BRANCH  14  16
ATOM     16  O   UNL     1      -1.283  -0.638  -0.569  0.00  0.00    -0.464 OA
BRANCH  16  18
ATOM     17  C   UNL     1       0.101   1.226  -1.241  0.00  0.00    +0.048 C 
ATOM     18  C   UNL     1       0.054  -0.135  -0.542  0.00  0.00    +0.229 C 
ENDBRANCH  16  18
ENDBRANCH  14  16
ENDBRANCH   5  14
ENDBRANCH   1   6
BRANCH   2  19
ATOM     19  C   UNL     1      -1.729  -0.595   4.362  0.00  0.00    +0.173 C 
BRANCH  19  20
ATOM     20  S   UNL     1      -2.156   0.905   5.290  0.00  0.00    -0.077 S 
BRANCH  20  21
ATOM     21  C   UNL     1      -0.913   1.005   6.535  0.00  0.00    +0.185 A 
ATOM     22  N   UNL     1      -0.812   1.961   7.483  0.00  0.00    -0.254 N 
ATOM     23  H   UNL     1      -1.404   2.719   7.610  0.00  0.00    +0.191 HD
ATOM     24  N   UNL     1       0.320   1.639   8.249  0.00  0.00    -0.156 NA
ATOM     25  C   UNL     1       0.826   0.547   7.743  0.00  0.00    +0.157 A 
ATOM     26  N   UNL     1       0.079   0.157   6.709  0.00  0.00    -0.205 NA
BRANCH  25  27
ATOM     27  C   UNL     1       2.054  -0.164   8.250  0.00  0.00    +0.024 C 
ATOM     28  C   UNL     1       2.621   0.593   9.453  0.00  0.00    +0.019 C 
ATOM     29  C   UNL     1       1.683  -1.587   8.671  0.00  0.00    +0.019 C 
ATOM     30  C   UNL     1       3.107  -0.218   7.141  0.00  0.00    +0.019 C 
ENDBRANCH  25  27
ENDBRANCH  20  21
ENDBRANCH  19  20
ENDBRANCH   2  19
TORSDOF 8
