REMARK  Name = ZINC34899614
REMARK  7 active torsions:
REMARK  status: ('A' for Active; 'I' for Inactive)
REMARK    1  A    between atoms: C_4  and  C_7
REMARK    2  A    between atoms: C_7  and  C_8
REMARK    3  A    between atoms: C_7  and  C_14
REMARK    4  A    between atoms: C_19  and  C_22
REMARK    5  A    between atoms: N_24  and  C_25
REMARK    6  A    between atoms: C_31  and  N_33
REMARK    7  A    between atoms: C_34  and  C_36
REMARK                            x       y       z     vdW  Elec       q    Type
REMARK                         _______ _______ _______ _____ _____    ______ ____
ROOT
ATOM      1  C   UNL     1       3.859  -1.710  -1.156  0.00  0.00    +0.227 C 
ATOM      2  O   UNL     1       3.953  -2.892  -0.905  0.00  0.00    -0.275 OA
ATOM      3  N   UNL     1       3.876  -1.290  -2.437  0.00  0.00    -0.301 N 
ATOM      4  C   UNL     1       3.651   0.125  -2.764  0.00  0.00    +0.108 C 
ATOM      5  C   UNL     1       2.519   0.219  -3.792  0.00  0.00    +0.032 C 
ATOM      6  C   UNL     1       2.857  -0.659  -4.999  0.00  0.00    +0.078 C 
ATOM      7  C   UNL     1       2.982  -2.117  -4.552  0.00  0.00    +0.032 C 
ATOM      8  C   UNL     1       4.125  -2.237  -3.532  0.00  0.00    +0.108 C 
ENDROOT
BRANCH   6   9
ATOM      9  C   UNL     1       1.762  -0.542  -6.027  0.00  0.00    +0.216 C 
ATOM     10  O   UNL     1       0.805   0.174  -5.816  0.00  0.00    -0.276 OA
ATOM     11  N   UNL     1       1.845  -1.232  -7.182  0.00  0.00    -0.310 N 
ATOM     12  H   UNL     1       2.609  -1.804  -7.351  0.00  0.00    +0.149 HD
BRANCH  11  13
ATOM     13  C   UNL     1       0.779  -1.118  -8.181  0.00  0.00    +0.093 C 
ATOM     14  C   UNL     1       1.037   0.105  -9.064  0.00  0.00    +0.024 C 
ATOM     15  C   UNL     1      -0.075   0.224 -10.108  0.00  0.00    +0.002 C 
ATOM     16  C   UNL     1      -0.097  -1.036 -10.976  0.00  0.00    +0.002 C 
ATOM     17  C   UNL     1      -0.355  -2.259 -10.093  0.00  0.00    +0.024 C 
ATOM     18  C   UNL     1       0.757  -2.378  -9.049  0.00  0.00    +0.093 C 
BRANCH  18  19
ATOM     19  N   UNL     1       2.048  -2.528  -9.726  0.00  0.00    -0.307 N 
ATOM     20  C   UNL     1       2.465  -3.747 -10.120  0.00  0.00    +0.244 C 
ATOM     21  O   UNL     1       1.770  -4.723  -9.914  0.00  0.00    -0.270 OA
ATOM     22  H   UNL     1       2.603  -1.749  -9.890  0.00  0.00    +0.149 HD
BRANCH  20  23
ATOM     23  C   UNL     1       3.768  -3.898 -10.803  0.00  0.00    +0.037 A 
ATOM     24  C   UNL     1       4.571  -2.781 -11.035  0.00  0.00    +0.013 A 
ATOM     25  C   UNL     1       5.785  -2.929 -11.672  0.00  0.00    +0.001 A 
ATOM     26  C   UNL     1       6.208  -4.181 -12.081  0.00  0.00    +0.000 A 
ATOM     27  C   UNL     1       5.416  -5.293 -11.854  0.00  0.00    +0.001 A 
ATOM     28  C   UNL     1       4.202  -5.160 -11.213  0.00  0.00    +0.013 A 
ENDBRANCH  20  23
ENDBRANCH  18  19
ENDBRANCH  11  13
ENDBRANCH   6   9
BRANCH   1  29
ATOM     29  C   UNL     1       3.724  -0.709  -0.037  0.00  0.00    +0.135 C 
BRANCH  29  33
ATOM     30  C   UNL     1      -0.414   0.064   0.689  0.00  0.00    +0.000 A 
ATOM     31  C   UNL     1       0.042  -1.238   0.608  0.00  0.00    +0.000 A 
ATOM     32  C   UNL     1       1.381  -1.489   0.373  0.00  0.00    +0.005 A 
ATOM     33  C   UNL     1       2.264  -0.436   0.218  0.00  0.00    -0.031 A 
ATOM     34  C   UNL     1       1.808   0.866   0.298  0.00  0.00    +0.005 A 
ATOM     35  C   UNL     1       0.469   1.116   0.535  0.00  0.00    +0.000 A 
ENDBRANCH  29  33
BRANCH  29  36
ATOM     36  C   UNL     1       4.357  -1.265   1.212  0.00  0.00    -0.031 A 
ATOM     37  C   UNL     1       3.924  -2.471   1.729  0.00  0.00    +0.005 A 
ATOM     38  C   UNL     1       4.505  -2.981   2.875  0.00  0.00    +0.000 A 
ATOM     39  C   UNL     1       5.520  -2.283   3.504  0.00  0.00    +0.000 A 
ATOM     40  C   UNL     1       5.953  -1.077   2.987  0.00  0.00    +0.000 A 
ATOM     41  C   UNL     1       5.375  -0.570   1.838  0.00  0.00    +0.005 A 
ENDBRANCH  29  36
ENDBRANCH   1  29
TORSDOF 7
