REMARK  Name = ZINC20504791
REMARK  14 active torsions:
REMARK  status: ('A' for Active; 'I' for Inactive)
REMARK    1  A    between atoms: C_1  and  C_2
REMARK    2  A    between atoms: C_5  and  O_38
REMARK    3  A    between atoms: C_7  and  C_35
REMARK    4  A    between atoms: C_7  and  C_36
REMARK    5  A    between atoms: N_16  and  C_17
REMARK    6  A    between atoms: C_17  and  C_18
REMARK    7  A    between atoms: C_24  and  C_26
REMARK    8  A    between atoms: C_26  and  C_27
REMARK    9  A    between atoms: N_29  and  C_30
REMARK   10  A    between atoms: C_30  and  C_31
REMARK   11  A    between atoms: C_31  and  N_32
REMARK   12  A    between atoms: N_32  and  C_33
REMARK   13  A    between atoms: N_32  and  C_34
REMARK   14  A    between atoms: C_36  and  O_37
REMARK                            x       y       z     vdW  Elec       q    Type
REMARK                         _______ _______ _______ _____ _____    ______ ____
ROOT
ATOM      1  C   UNL     1       2.338   3.576   2.412  0.00  0.00    +0.012 C 
ATOM      2  C   UNL     1       3.209   3.223   1.205  0.00  0.00    -0.020 C 
ATOM      3  C   UNL     1       3.475   1.714   1.188  0.00  0.00    +0.010 C 
ATOM      4  C   UNL     1       2.165   0.945   1.027  0.00  0.00    +0.032 C 
ATOM      5  C   UNL     1       1.517   1.346  -0.302  0.00  0.00    +0.123 C 
ATOM      6  C   UNL     1       1.208   2.841  -0.265  0.00  0.00    +0.021 C 
ATOM      7  C   UNL     1       2.498   3.647  -0.082  0.00  0.00    +0.011 C 
ATOM      8  C   UNL     1       2.095   5.130   0.035  0.00  0.00    +0.049 C 
ATOM      9  C   UNL     1       3.253   5.907   0.554  0.00  0.00    +0.013 A 
ATOM     10  C   UNL     1       4.381   5.426   1.137  0.00  0.00    +0.032 A 
ATOM     11  N   UNL     1       5.274   6.337   1.520  0.00  0.00    -0.340 N 
ATOM     12  C   UNL     1       5.078   7.628   1.346  0.00  0.00    +0.137 A 
ATOM     13  S   UNL     1       3.519   7.659   0.579  0.00  0.00    -0.059 S 
ATOM     14  N   UNL     1       5.904   8.688   1.687  0.00  0.00    -0.321 N 
ATOM     15  C   UNL     1       4.567   3.927   1.316  0.00  0.00    +0.051 C 
ATOM     16  C   UNL     1       0.541   3.252  -1.579  0.00  0.00    +0.016 C 
ATOM     17  H   UNL     1       6.871   8.498   2.173  0.00  0.00    +0.148 HD
ATOM     18  H   UNL     1       6.212   6.020   2.000  0.00  0.00    +0.167 HD
ENDROOT
BRANCH   5  19
ATOM     19  O   UNL     1       0.306   0.610  -0.485  0.00  0.00    -0.391 OA
ATOM     20  H   UNL     1      -0.300   0.766  -1.390  0.00  0.00    +0.210 HD
ENDBRANCH   5  19
BRANCH  14  21
ATOM     21  C   UNL     1       5.487  10.063   1.398  0.00  0.00    +0.138 C 
BRANCH  21  22
ATOM     22  C   UNL     1       6.554  11.020   1.864  0.00  0.00    -0.030 A 
ATOM     23  C   UNL     1       6.513  11.528   3.149  0.00  0.00    +0.005 A 
ATOM     24  C   UNL     1       7.495  12.402   3.578  0.00  0.00    +0.000 A 
ATOM     25  C   UNL     1       8.511  12.775   2.718  0.00  0.00    +0.000 A 
ATOM     26  C   UNL     1       8.549  12.271   1.432  0.00  0.00    +0.000 A 
ATOM     27  C   UNL     1       7.570  11.393   1.005  0.00  0.00    +0.005 A 
ENDBRANCH  21  22
ENDBRANCH  14  21
BRANCH  15  28
ATOM     28  C   UNL     1       5.173   3.651   2.694  0.00  0.00    +0.106 C 
BRANCH  28  29
ATOM     29  C   UNL     1       6.586   4.174   2.735  0.00  0.00    +0.214 C 
ATOM     30  O   UNL     1       7.062   4.714   1.759  0.00  0.00    -0.276 OA
ATOM     31  N   UNL     1       7.321   4.041   3.857  0.00  0.00    -0.317 N 
ATOM     32  H   UNL     1       6.890   3.551   4.742  0.00  0.00    +0.149 HD
BRANCH  31  33
ATOM     33  C   UNL     1       8.695   4.549   3.897  0.00  0.00    +0.085 C 
BRANCH  33  34
ATOM     34  C   UNL     1       9.300   4.273   5.275  0.00  0.00    -0.061 C 
BRANCH  34  35
ATOM     35  N   UNL     1      10.678   4.782   5.315  0.00  0.00    +0.377 N 
ATOM     36  C   UNL     1      10.700   6.247   5.210  0.00  0.00    -0.097 C 
ATOM     37  C   UNL     1      11.371   4.330   6.529  0.00  0.00    -0.097 C 
ATOM     38  H   UNL     1      11.215   4.373   4.447  0.00  0.00    -0.083 HD
ENDBRANCH  34  35
ENDBRANCH  33  34
ENDBRANCH  31  33
ENDBRANCH  28  29
ENDBRANCH  15  28
BRANCH   6  39
ATOM     39  C   UNL     1       0.259   3.134   0.898  0.00  0.00    +0.165 C 
BRANCH  39  40
ATOM     40  O   UNL     1      -1.010   2.529   0.641  0.00  0.00    -0.394 OA
ATOM     41  H   UNL     1      -1.827   2.632   1.371  0.00  0.00    +0.209 HD
ENDBRANCH  39  40
ENDBRANCH   6  39
TORSDOF 10
