REMARK  Name = ZINC13108184
REMARK  11 active torsions:
REMARK  status: ('A' for Active; 'I' for Inactive)
REMARK    1  A    between atoms: C_1  and  C_2
REMARK    2  A    between atoms: C_2  and  O_3
REMARK    3  A    between atoms: O_3  and  C_4
REMARK    4  A    between atoms: C_7  and  N_10
REMARK    5  A    between atoms: C_11  and  C_31
REMARK    6  A    between atoms: C_13  and  C_16
REMARK    7  A    between atoms: C_14  and  C_15
REMARK    8  A    between atoms: N_17  and  N_18
REMARK    9  A    between atoms: C_19  and  C_21
REMARK   10  A    between atoms: C_21  and  C_22
REMARK   11  A    between atoms: N_24  and  C_25
REMARK                            x       y       z     vdW  Elec       q    Type
REMARK                         _______ _______ _______ _____ _____    ______ ____
ROOT
ATOM      1  C   UNL     1       2.857  -5.301   0.043  0.00  0.00    +0.140 C 
ATOM      2  N   UNL     1       2.637  -6.567   0.227  0.00  0.00    -0.188 NA
ENDROOT
BRANCH   1   6
ATOM      3  N   UNL     1       5.989  -3.443   0.139  0.00  0.00    -0.317 N 
ATOM      4  C   UNL     1       6.487  -4.690  -0.110  0.00  0.00    +0.022 A 
ATOM      5  C   UNL     1       5.463  -5.560  -0.186  0.00  0.00    +0.032 A 
ATOM      6  C   UNL     1       4.238  -4.786   0.033  0.00  0.00    +0.016 A 
ATOM      7  C   UNL     1       4.632  -3.492   0.222  0.00  0.00    +0.030 A 
ATOM      8  C   UNL     1       3.720  -2.320   0.479  0.00  0.00    +0.064 C 
ATOM      9  C   UNL     1       7.945  -5.034  -0.272  0.00  0.00    +0.064 C 
BRANCH   3  13
ATOM     10  C   UNL     1       8.287   0.011   0.567  0.00  0.00    +0.121 A 
ATOM     11  C   UNL     1       8.252  -0.652  -0.652  0.00  0.00    +0.047 A 
ATOM     12  C   UNL     1       7.491  -1.795  -0.794  0.00  0.00    +0.030 A 
ATOM     13  C   UNL     1       6.762  -2.281   0.283  0.00  0.00    +0.047 A 
ATOM     14  C   UNL     1       6.793  -1.615   1.500  0.00  0.00    +0.030 A 
ATOM     15  C   UNL     1       7.558  -0.474   1.642  0.00  0.00    +0.047 A 
BRANCH  10  16
ATOM     16  O   UNL     1       9.036   1.137   0.706  0.00  0.00    -0.492 OA
BRANCH  16  18
ATOM     17  C   UNL     1       9.920   3.010   1.952  0.00  0.00    +0.048 C 
ATOM     18  C   UNL     1       9.026   1.769   1.988  0.00  0.00    +0.225 C 
ENDBRANCH  16  18
ENDBRANCH  10  16
ENDBRANCH   3  13
ENDBRANCH   1   6
BRANCH   2  19
ATOM     19  N   UNL     1       3.686  -7.411   0.616  0.00  0.00    -0.207 N 
ATOM     20  C   UNL     1       3.487  -8.741   0.694  0.00  0.00    +0.241 C 
ATOM     21  O   UNL     1       2.399  -9.209   0.429  0.00  0.00    -0.274 OA
ATOM     22  H   UNL     1       4.556  -7.037   0.828  0.00  0.00    +0.177 HD
BRANCH  20  23
ATOM     23  C   UNL     1       4.615  -9.649   1.112  0.00  0.00    +0.193 C 
BRANCH  23  24
ATOM     24  C   UNL     1       4.134 -11.077   1.120  0.00  0.00    +0.222 C 
ATOM     25  O   UNL     1       2.988 -11.333   0.816  0.00  0.00    -0.275 OA
ATOM     26  N   UNL     1       4.978 -12.070   1.464  0.00  0.00    -0.312 N 
ATOM     27  H   UNL     1       5.894 -11.866   1.707  0.00  0.00    +0.149 HD
BRANCH  26  28
ATOM     28  C   UNL     1       4.509 -13.458   1.478  0.00  0.00    +0.073 C 
ATOM     29  C   UNL     1       3.841 -13.758   2.821  0.00  0.00    +0.022 C 
ATOM     30  C   UNL     1       3.351 -15.207   2.835  0.00  0.00    +0.002 C 
ATOM     31  C   UNL     1       4.540 -16.149   2.635  0.00  0.00    +0.000 C 
ATOM     32  C   UNL     1       5.208 -15.850   1.292  0.00  0.00    +0.002 C 
ATOM     33  C   UNL     1       5.697 -14.400   1.278  0.00  0.00    +0.022 C 
ENDBRANCH  26  28
ENDBRANCH  23  24
ENDBRANCH  20  23
ENDBRANCH   2  19
TORSDOF 8
