REMARK  Name = ZINC42560017
REMARK  6 active torsions:
REMARK  status: ('A' for Active; 'I' for Inactive)
REMARK    1  A    between atoms: C_1  and  C_2
REMARK    2  A    between atoms: C_2  and  C_4
REMARK    3  A    between atoms: C_2  and  N_8
REMARK    4  A    between atoms: N_6  and  C_7
REMARK    5  A    between atoms: C_9  and  C_11
REMARK    6  A    between atoms: C_13  and  N_19
REMARK                            x       y       z     vdW  Elec       q    Type
REMARK                         _______ _______ _______ _____ _____    ______ ____
ROOT
ATOM      1  N   UNL     1       0.711  -0.489   1.189  0.00  0.00    -0.300 N 
ATOM      2  C   UNL     1       2.054  -0.600   1.174  0.00  0.00    +0.247 C 
ATOM      3  O   UNL     1       2.677  -0.297   0.175  0.00  0.00    -0.270 OA
ATOM      4  H   UNL     1       0.213  -0.731   1.986  0.00  0.00    +0.150 HD
ENDROOT
BRANCH   2   5
ATOM      5  C   UNL     1       2.768  -1.089   2.369  0.00  0.00    +0.074 A 
ATOM      6  C   UNL     1       2.053  -1.443   3.517  0.00  0.00    +0.041 A 
ATOM      7  C   UNL     1       2.728  -1.901   4.634  0.00  0.00    +0.061 A 
ATOM      8  C   UNL     1       4.117  -2.008   4.614  0.00  0.00    +0.147 A 
ATOM      9  C   UNL     1       4.827  -1.657   3.480  0.00  0.00    +0.079 A 
ATOM     10  C   UNL     1       4.161  -1.204   2.356  0.00  0.00    +0.138 A 
ATOM     11  F   UNL     1       4.857  -0.868   1.248  0.00  0.00    -0.205 F 
ATOM     12  F   UNL     1       4.773  -2.455   5.708  0.00  0.00    -0.203 F 
BRANCH   7  13
ATOM     13  N   UNL     1       2.015  -2.257   5.785  0.00  0.00    -0.356 N 
ATOM     14  H   UNL     1       1.048  -2.183   5.798  0.00  0.00    +0.142 HD
ATOM     15  H   UNL     1       2.488  -2.579   6.568  0.00  0.00    +0.142 HD
ENDBRANCH   7  13
ENDBRANCH   2   5
BRANCH   1  17
ATOM     16  C   UNL     1      -0.019   1.526   0.010  0.00  0.00    +0.038 C 
ATOM     17  C   UNL     1       0.002  -0.004   0.002  0.00  0.00    +0.156 C 
BRANCH  17  18
ATOM     18  C   UNL     1      -1.412  -0.526   0.013  0.00  0.00    +0.233 C 
ATOM     19  O   UNL     1      -1.790  -1.233   0.922  0.00  0.00    -0.274 OA
ATOM     20  N   UNL     1      -2.256  -0.206  -0.988  0.00  0.00    -0.317 N 
ATOM     21  C   UNL     1      -3.630  -0.713  -0.978  0.00  0.00    +0.128 C 
ATOM     22  H   UNL     1      -1.953   0.360  -1.716  0.00  0.00    +0.148 HD
ENDBRANCH  17  18
ENDBRANCH   1  17
TORSDOF 4
