REMARK  Name = ZINC21216836
REMARK  8 active torsions:
REMARK  status: ('A' for Active; 'I' for Inactive)
REMARK    1  A    between atoms: C_1  and  C_2
REMARK    2  A    between atoms: C_2  and  C_3
REMARK    3  A    between atoms: C_2  and  C_4
REMARK    4  A    between atoms: C_4  and  C_6
REMARK    5  A    between atoms: C_4  and  N_16
REMARK    6  A    between atoms: N_8  and  C_9
REMARK    7  A    between atoms: C_17  and  C_19
REMARK    8  A    between atoms: C_22  and  N_26
REMARK                            x       y       z     vdW  Elec       q    Type
REMARK                         _______ _______ _______ _____ _____    ______ ____
ROOT
ATOM      1  C   UNL     1       0.724  -0.497  -1.260  0.00  0.00    +0.162 C 
ENDROOT
BRANCH   1   2
ATOM      2  C   UNL     1       0.737  -2.004  -1.264  0.00  0.00    +0.238 C 
ATOM      3  O   UNL     1       0.204  -2.613  -2.168  0.00  0.00    -0.273 OA
ATOM      4  N   UNL     1       1.341  -2.676  -0.264  0.00  0.00    -0.284 N 
ATOM      5  H   UNL     1       1.825  -2.191   0.423  0.00  0.00    +0.155 HD
BRANCH   4   6
ATOM      6  C   UNL     1       1.270  -4.072  -0.216  0.00  0.00    +0.036 A 
ATOM      7  C   UNL     1       1.189  -4.723   1.009  0.00  0.00    +0.023 A 
ATOM      8  C   UNL     1       1.119  -6.101   1.054  0.00  0.00    +0.005 A 
ATOM      9  C   UNL     1       1.129  -6.835  -0.117  0.00  0.00    +0.038 A 
ATOM     10  C   UNL     1       1.210  -6.191  -1.340  0.00  0.00    +0.125 A 
ATOM     11  C   UNL     1       1.275  -4.809  -1.392  0.00  0.00    +0.061 A 
ATOM     12  F   UNL     1       1.220  -6.910  -2.484  0.00  0.00    -0.205 F 
ENDBRANCH   4   6
ENDBRANCH   1   2
BRANCH   1  13
ATOM     13  N   UNL     1       0.012  -0.012  -2.445  0.00  0.00    -0.300 N 
ATOM     14  C   UNL     1       0.280   1.214  -2.937  0.00  0.00    +0.246 C 
ATOM     15  O   UNL     1       1.113   1.917  -2.398  0.00  0.00    -0.270 OA
ATOM     16  H   UNL     1      -0.652  -0.573  -2.875  0.00  0.00    +0.150 HD
BRANCH  14  17
ATOM     17  C   UNL     1      -0.438   1.704  -4.132  0.00  0.00    +0.055 A 
ATOM     18  C   UNL     1      -1.399   0.901  -4.751  0.00  0.00    +0.017 A 
ATOM     19  C   UNL     1      -2.066   1.364  -5.865  0.00  0.00    +0.033 A 
ATOM     20  C   UNL     1      -1.784   2.621  -6.372  0.00  0.00    +0.128 A 
ATOM     21  C   UNL     1      -0.834   3.422  -5.766  0.00  0.00    +0.053 A 
ATOM     22  C   UNL     1      -0.162   2.973  -4.645  0.00  0.00    +0.055 A 
ATOM     23 CL   UNL     1       1.026   3.982  -3.880  0.00  0.00    -0.083 Cl
BRANCH  20  24
ATOM     24  N   UNL     1      -2.504   3.111  -7.569  0.00  0.00    +0.056 N 
ATOM     25  O   UNL     1      -3.336   2.413  -8.102  0.00  0.00    -0.126 OA
ATOM     26  O   UNL     1      -2.261   4.208  -8.015  0.00  0.00    -0.126 OA
ENDBRANCH  20  24
ENDBRANCH  14  17
ENDBRANCH   1  13
BRANCH   1  28
ATOM     27  C   UNL     1       0.003   1.533   0.005  0.00  0.00    +0.009 C 
ATOM     28  C   UNL     1       0.016   0.003   0.001  0.00  0.00    +0.012 C 
ATOM     29  C   UNL     1      -1.422  -0.519   0.020  0.00  0.00    +0.009 C 
ENDBRANCH   1  28
TORSDOF 6
