REMARK  Name = ZINC09053145
REMARK  9 active torsions:
REMARK  status: ('A' for Active; 'I' for Inactive)
REMARK    1  A    between atoms: C_1  and  C_2
REMARK    2  A    between atoms: C_5  and  N_11
REMARK    3  A    between atoms: C_6  and  N_8
REMARK    4  A    between atoms: C_12  and  C_14
REMARK    5  A    between atoms: C_14  and  S_15
REMARK    6  A    between atoms: S_15  and  C_16
REMARK    7  A    between atoms: C_19  and  C_24
REMARK    8  A    between atoms: N_20  and  C_21
REMARK    9  A    between atoms: C_21  and  C_22
REMARK                            x       y       z     vdW  Elec       q    Type
REMARK                         _______ _______ _______ _____ _____    ______ ____
ROOT
ATOM      1  S   UNL     1       0.894   3.761   1.771  0.00  0.00    -0.077 S 
ENDROOT
BRANCH   1   2
ATOM      2  C   UNL     1      -0.452   2.664   2.070  0.00  0.00    +0.193 A 
ATOM      3  N   UNL     1      -1.360   2.783   3.013  0.00  0.00    -0.122 NA
ATOM      4  N   UNL     1      -2.192   1.806   2.949  0.00  0.00    -0.128 NA
ATOM      5  C   UNL     1      -1.871   1.006   1.959  0.00  0.00    +0.165 A 
ATOM      6  N   UNL     1      -0.748   1.533   1.363  0.00  0.00    -0.298 N 
BRANCH   5   7
ATOM      7  C   UNL     1      -2.580  -0.228   1.560  0.00  0.00    +0.019 A 
ATOM      8  C   UNL     1      -2.390  -0.765   0.286  0.00  0.00    +0.013 A 
ATOM      9  C   UNL     1      -3.051  -1.919  -0.079  0.00  0.00    +0.021 A 
ATOM     10  C   UNL     1      -3.910  -2.539   0.812  0.00  0.00    +0.041 A 
ATOM     11  C   UNL     1      -4.108  -2.008   2.076  0.00  0.00    +0.021 A 
ATOM     12  C   UNL     1      -3.448  -0.857   2.454  0.00  0.00    +0.013 A 
ATOM     13 CL   UNL     1      -4.744  -3.988   0.344  0.00  0.00    -0.084 Cl
ENDBRANCH   5   7
BRANCH   6  14
ATOM     14  C   UNL     1      -0.019   0.991   0.214  0.00  0.00    +0.152 C 
BRANCH  14  15
ATOM     15  C   UNL     1      -0.537   1.621  -1.053  0.00  0.00    -0.013 C 
ATOM     16  C   UNL     1       0.291   2.222  -1.872  0.00  0.00    +0.005 C 
ENDBRANCH  14  15
ENDBRANCH   6  14
ENDBRANCH   1   2
BRANCH   1  17
ATOM     17  C   UNL     1       0.611   4.972   3.086  0.00  0.00    +0.173 C 
BRANCH  17  19
ATOM     18  N   UNL     1       1.665   7.052   3.912  0.00  0.00    -0.283 N 
ATOM     19  C   UNL     1       1.674   6.038   3.024  0.00  0.00    +0.228 C 
ATOM     20  O   UNL     1       2.538   5.985   2.174  0.00  0.00    -0.275 OA
ATOM     21  H   UNL     1       1.008   7.064   4.627  0.00  0.00    +0.155 HD
BRANCH  18  26
ATOM     22  C   UNL     1       5.462  11.244   3.475  0.00  0.00    +0.044 C 
ATOM     23  C   UNL     1       4.453  10.130   3.591  0.00  0.00    -0.048 A 
ATOM     24  C   UNL     1       4.835   8.824   3.344  0.00  0.00    +0.005 A 
ATOM     25  C   UNL     1       3.914   7.801   3.450  0.00  0.00    +0.026 A 
ATOM     26  C   UNL     1       2.601   8.085   3.805  0.00  0.00    +0.064 A 
ATOM     27  C   UNL     1       2.219   9.398   4.047  0.00  0.00    +0.148 A 
ATOM     28  C   UNL     1       3.148  10.416   3.945  0.00  0.00    +0.038 A 
BRANCH  27  29
ATOM     29  N   UNL     1       0.820   9.706   4.419  0.00  0.00    +0.058 N 
ATOM     30  O   UNL     1       0.469  10.864   4.563  0.00  0.00    -0.126 OA
ATOM     31  O   UNL     1       0.020   8.802   4.582  0.00  0.00    -0.126 OA
ENDBRANCH  27  29
ENDBRANCH  18  26
ENDBRANCH  17  19
ENDBRANCH   1  17
TORSDOF 8
