REMARK  Name = ZINC27145859
REMARK  11 active torsions:
REMARK  status: ('A' for Active; 'I' for Inactive)
REMARK    1  A    between atoms: C_1  and  C_2
REMARK    2  A    between atoms: C_2  and  C_3
REMARK    3  A    between atoms: C_3  and  C_5
REMARK    4  A    between atoms: C_3  and  C_6
REMARK    5  A    between atoms: C_9  and  S_12
REMARK    6  A    between atoms: S_12  and  N_15
REMARK    7  A    between atoms: N_18  and  C_21
REMARK    8  A    between atoms: C_21  and  C_23
REMARK    9  A    between atoms: C_21  and  C_24
REMARK   10  A    between atoms: N_29  and  C_30
REMARK   11  A    between atoms: C_30  and  C_31
REMARK                            x       y       z     vdW  Elec       q    Type
REMARK                         _______ _______ _______ _____ _____    ______ ____
ROOT
ATOM      1  N   UNL     1      -1.253   2.852  -0.278  0.00  0.00    -0.180 NA
ATOM      2  C   UNL     1      -1.814   1.703  -1.003  0.00  0.00    +0.091 C 
ATOM      3  C   UNL     1      -3.176   2.117  -1.583  0.00  0.00    -0.060 C 
ATOM      4  N   UNL     1      -3.010   3.336  -2.385  0.00  0.00    +0.389 N 
ATOM      5  C   UNL     1      -2.562   4.463  -1.556  0.00  0.00    -0.060 C 
ATOM      6  C   UNL     1      -1.180   4.146  -0.973  0.00  0.00    +0.091 C 
ATOM      7  H   UNL     1      -2.228   3.140  -3.134  0.00  0.00    -0.081 HD
ENDROOT
BRANCH   1   8
ATOM      8  S   UNL     1      -0.710   2.692   1.278  0.00  0.00    +0.061 S 
ATOM      9  O   UNL     1      -0.391   1.319   1.458  0.00  0.00    -0.153 OA
ATOM     10  O   UNL     1       0.240   3.728   1.486  0.00  0.00    -0.153 OA
BRANCH   8  14
ATOM     11  C   UNL     1      -4.206   3.577   4.014  0.00  0.00    -0.044 A 
ATOM     12  C   UNL     1      -3.975   2.284   3.583  0.00  0.00    +0.006 A 
ATOM     13  C   UNL     1      -2.908   2.014   2.748  0.00  0.00    +0.029 A 
ATOM     14  C   UNL     1      -2.071   3.037   2.343  0.00  0.00    +0.105 A 
ATOM     15  C   UNL     1      -2.298   4.329   2.779  0.00  0.00    +0.029 A 
ATOM     16  C   UNL     1      -3.368   4.600   3.610  0.00  0.00    +0.006 A 
BRANCH  11  17
ATOM     17  C   UNL     1      -5.370   3.872   4.925  0.00  0.00    +0.016 C 
ATOM     18  C   UNL     1      -6.309   4.871   4.245  0.00  0.00    +0.012 C 
BRANCH  17  20
ATOM     19  C   UNL     1      -6.021   4.650   7.208  0.00  0.00    +0.004 C 
ATOM     20  C   UNL     1      -4.854   4.467   6.236  0.00  0.00    +0.004 C 
ENDBRANCH  17  20
ENDBRANCH  11  17
ENDBRANCH   8  14
ENDBRANCH   1   8
BRANCH   4  21
ATOM     21  C   UNL     1      -4.250   3.669  -3.100  0.00  0.00    +0.017 C 
ATOM     22  C   UNL     1      -4.723   2.451  -3.895  0.00  0.00    -0.004 C 
BRANCH  21  23
ATOM     23  C   UNL     1      -3.993   4.816  -4.044  0.00  0.00    +0.207 C 
ATOM     24  O   UNL     1      -2.881   4.993  -4.495  0.00  0.00    -0.277 OA
ATOM     25  N   UNL     1      -4.999   5.644  -4.387  0.00  0.00    -0.242 N 
ATOM     26  C   UNL     1      -4.769   6.670  -5.231  0.00  0.00    +0.306 C 
ATOM     27  O   UNL     1      -3.655   6.847  -5.683  0.00  0.00    -0.252 OA
ATOM     28  N   UNL     1      -5.776   7.498  -5.574  0.00  0.00    -0.299 N 
ATOM     29  H   UNL     1      -6.008   5.484  -3.978  0.00  0.00    +0.159 HD
ATOM     30  H   UNL     1      -6.784   7.338  -5.165  0.00  0.00    +0.150 HD
BRANCH  28  31
ATOM     31  C   UNL     1      -5.526   8.613  -6.492  0.00  0.00    +0.102 C 
ATOM     32  C   UNL     1      -6.824   9.391  -6.713  0.00  0.00    +0.024 C 
ENDBRANCH  28  31
ENDBRANCH  21  23
ENDBRANCH   4  21
TORSDOF 7
