REMARK  Name = ZINC20598191
REMARK  8 active torsions:
REMARK  status: ('A' for Active; 'I' for Inactive)
REMARK    1  A    between atoms: C_1  and  C_2
REMARK    2  A    between atoms: C_4  and  C_31
REMARK    3  A    between atoms: C_5  and  N_9
REMARK    4  A    between atoms: C_6  and  C_8
REMARK    5  A    between atoms: N_12  and  C_15
REMARK    6  A    between atoms: N_19  and  N_20
REMARK    7  A    between atoms: N_20  and  C_21
REMARK    8  A    between atoms: C_21  and  N_23
REMARK                            x       y       z     vdW  Elec       q    Type
REMARK                         _______ _______ _______ _____ _____    ______ ____
ROOT
ATOM      1  C   UNL     1      -0.915  -2.349  -1.260  0.00  0.00    +0.148 C 
ATOM      2  C   UNL     1      -0.932  -0.982  -0.565  0.00  0.00    +0.087 C 
ATOM      3  C   UNL     1       0.440  -0.355  -0.728  0.00  0.00    +0.094 C 
ATOM      4  N   UNL     1       0.587   0.873  -1.058  0.00  0.00    -0.185 NA
ATOM      5  C   UNL     1       1.634  -1.269  -0.482  0.00  0.00    +0.298 C 
ATOM      6  O   UNL     1       1.444  -1.849   0.826  0.00  0.00    -0.343 OA
ATOM      7  C   UNL     1       0.569  -2.980   0.654  0.00  0.00    +0.197 C 
ATOM      8  C   UNL     1       0.365  -3.098  -0.871  0.00  0.00    +0.172 C 
ATOM      9  O   UNL     1       1.496  -2.369  -1.406  0.00  0.00    -0.338 OA
ENDROOT
BRANCH   1  13
ATOM     10  N   UNL     1      -3.930  -4.254  -0.847  0.00  0.00    -0.188 N 
ATOM     11  C   UNL     1      -3.060  -3.599  -1.646  0.00  0.00    +0.201 A 
ATOM     12  S   UNL     1      -3.171  -3.408  -3.344  0.00  0.00    -0.009 S 
ATOM     13  N   UNL     1      -2.084  -3.126  -0.841  0.00  0.00    -0.215 N 
ATOM     14  N   UNL     1      -2.397  -3.509   0.469  0.00  0.00    -0.044 NA
ATOM     15  N   UNL     1      -3.452  -4.154   0.466  0.00  0.00    -0.040 NA
BRANCH  10  20
ATOM     16  C   UNL     1      -8.664  -6.909  -2.503  0.00  0.00    +0.044 C 
ATOM     17  C   UNL     1      -7.407  -6.204  -2.063  0.00  0.00    -0.050 A 
ATOM     18  C   UNL     1      -6.412  -6.909  -1.410  0.00  0.00    +0.008 A 
ATOM     19  C   UNL     1      -5.259  -6.266  -1.006  0.00  0.00    -0.024 A 
ATOM     20  C   UNL     1      -5.098  -4.910  -1.256  0.00  0.00    +0.076 A 
ATOM     21  C   UNL     1      -6.101  -4.203  -1.906  0.00  0.00    -0.024 A 
ATOM     22  C   UNL     1      -7.250  -4.853  -2.313  0.00  0.00    +0.008 A 
ATOM     23  C   UNL     1      -5.934  -2.729  -2.174  0.00  0.00    +0.046 C 
ATOM     24  C   UNL     1      -4.176  -7.036  -0.296  0.00  0.00    +0.046 C 
ENDBRANCH  10  20
ENDBRANCH   1  13
BRANCH   4  25
ATOM     25  N   UNL     1       1.867   1.443  -1.087  0.00  0.00    -0.218 N 
ATOM     26  H   UNL     1       2.752   0.816  -0.907  0.00  0.00    +0.176 HD
BRANCH  25  27
ATOM     27  C   UNL     1       2.013   2.760  -1.335  0.00  0.00    +0.147 C 
ATOM     28  S   UNL     1       3.576   3.456  -1.371  0.00  0.00    -0.017 S 
BRANCH  27  29
ATOM     29  N   UNL     1       0.927   3.528  -1.556  0.00  0.00    -0.339 N 
ATOM     30  H   UNL     1       1.047   4.603  -1.758  0.00  0.00    +0.144 HD
ATOM     31  H   UNL     1      -0.077   3.081  -1.533  0.00  0.00    +0.144 HD
ENDBRANCH  27  29
ENDBRANCH  25  27
ENDBRANCH   4  25
TORSDOF 5
