REMARK  Name = ZINC58849697
REMARK  10 active torsions:
REMARK  status: ('A' for Active; 'I' for Inactive)
REMARK    1  A    between atoms: C_1  and  C_2
REMARK    2  A    between atoms: C_2  and  C_3
REMARK    3  A    between atoms: C_2  and  C_4
REMARK    4  A    between atoms: C_2  and  C_5
REMARK    5  A    between atoms: C_8  and  C_11
REMARK    6  A    between atoms: C_22  and  S_27
REMARK    7  A    between atoms: S_27  and  N_30
REMARK    8  A    between atoms: N_30  and  C_31
REMARK    9  A    between atoms: C_36  and  O_37
REMARK   10  A    between atoms: O_37  and  C_38
REMARK                            x       y       z     vdW  Elec       q    Type
REMARK                         _______ _______ _______ _____ _____    ______ ____
ROOT
ATOM      1  C   UNL     1       2.964  -1.492  -4.448  0.00  0.00    +0.105 C 
ATOM      2  C   UNL     1       3.742  -2.723  -4.089  0.00  0.00    +0.029 C 
ATOM      3  C   UNL     1       4.536  -2.552  -2.777  0.00  0.00    +0.033 C 
ATOM      4  C   UNL     1       5.712  -3.492  -2.942  0.00  0.00    -0.030 C 
ATOM      5  C   UNL     1       5.876  -3.819  -4.197  0.00  0.00    -0.023 C 
ATOM      6  C   UNL     1       4.852  -3.121  -5.057  0.00  0.00    +0.049 C 
ATOM      7  C   UNL     1       5.519  -1.941  -5.708  0.00  0.00    -0.018 A 
ATOM      8  C   UNL     1       6.725  -2.146  -6.363  0.00  0.00    +0.034 A 
ATOM      9  C   UNL     1       7.381  -1.092  -6.966  0.00  0.00    +0.109 A 
ATOM     10  C   UNL     1       6.840   0.180  -6.921  0.00  0.00    +0.030 A 
ATOM     11  C   UNL     1       5.639   0.392  -6.276  0.00  0.00    +0.025 A 
ATOM     12  C   UNL     1       4.973  -0.671  -5.672  0.00  0.00    +0.031 A 
ATOM     13  N   UNL     1       3.749  -0.447  -5.072  0.00  0.00    -0.336 N 
ATOM     14  H   UNL     1       3.414   0.463  -5.047  0.00  0.00    +0.147 HD
ENDROOT
BRANCH   1  18
ATOM     15  C   UNL     1       1.206   0.081  -0.886  0.00  0.00    -0.042 A 
ATOM     16  C   UNL     1       0.460  -0.720  -1.730  0.00  0.00    +0.004 A 
ATOM     17  C   UNL     1       1.029  -1.229  -2.883  0.00  0.00    +0.006 A 
ATOM     18  C   UNL     1       2.344  -0.937  -3.192  0.00  0.00    -0.027 A 
ATOM     19  C   UNL     1       3.090  -0.135  -2.348  0.00  0.00    +0.006 A 
ATOM     20  C   UNL     1       2.520   0.377  -1.198  0.00  0.00    +0.004 A 
BRANCH  15  22
ATOM     21  C   UNL     1       0.619   2.164   0.323  0.00  0.00    +0.015 C 
ATOM     22  C   UNL     1       0.586   0.635   0.370  0.00  0.00    -0.013 C 
ATOM     23  C   UNL     1       1.374   0.146   1.587  0.00  0.00    +0.015 C 
ATOM     24  C   UNL     1      -0.864   0.159   0.477  0.00  0.00    +0.015 C 
ENDBRANCH  15  22
ENDBRANCH   1  18
BRANCH   9  25
ATOM     25  S   UNL     1       8.912  -1.368  -7.794  0.00  0.00    +0.072 S 
ATOM     26  O   UNL     1       9.597  -0.123  -7.807  0.00  0.00    -0.150 OA
ATOM     27  O   UNL     1       9.476  -2.542  -7.226  0.00  0.00    -0.150 OA
BRANCH  25  28
ATOM     28  N   UNL     1       8.557  -1.729  -9.371  0.00  0.00    -0.213 N 
ATOM     29  H   UNL     1       8.821  -2.585  -9.744  0.00  0.00    +0.174 HD
BRANCH  28  30
ATOM     30  C   UNL     1       7.876  -0.800 -10.166  0.00  0.00    +0.091 A 
ATOM     31  C   UNL     1       8.115   0.558 -10.007  0.00  0.00    +0.048 A 
ATOM     32  C   UNL     1       7.441   1.474 -10.795  0.00  0.00    +0.043 A 
ATOM     33  C   UNL     1       6.529   1.040 -11.740  0.00  0.00    +0.024 A 
ATOM     34  C   UNL     1       6.287  -0.312 -11.903  0.00  0.00    +0.049 A 
ATOM     35  C   UNL     1       6.962  -1.236 -11.122  0.00  0.00    +0.142 A 
ATOM     36 CL   UNL     1       7.740   3.172 -10.595  0.00  0.00    -0.083 Cl
BRANCH  35  37
ATOM     37  O   UNL     1       6.728  -2.566 -11.285  0.00  0.00    -0.493 OA
ATOM     38  C   UNL     1       5.778  -2.940 -12.284  0.00  0.00    +0.277 C 
ENDBRANCH  35  37
ENDBRANCH  28  30
ENDBRANCH  25  28
ENDBRANCH   9  25
TORSDOF 6
