REMARK  Name = ZINC09126690
REMARK  8 active torsions:
REMARK  status: ('A' for Active; 'I' for Inactive)
REMARK    1  A    between atoms: C_1  and  C_2
REMARK    2  A    between atoms: C_2  and  N_3
REMARK    3  A    between atoms: C_7  and  S_25
REMARK    4  A    between atoms: C_11  and  C_12
REMARK    5  A    between atoms: C_12  and  N_67
REMARK    6  A    between atoms: N_15  and  C_18
REMARK    7  A    between atoms: C_21  and  O_24
REMARK    8  A    between atoms: S_25  and  N_28
REMARK                            x       y       z     vdW  Elec       q    Type
REMARK                         _______ _______ _______ _____ _____    ______ ____
ROOT
ATOM      1  N   UNL     1       1.781   8.330  -3.453  0.00  0.00    -0.329 N 
ATOM      2  C   UNL     1       0.882   8.757  -4.410  0.00  0.00    +0.069 A 
ATOM      3  C   UNL     1       0.999   9.172  -5.729  0.00  0.00    +0.030 A 
ATOM      4  C   UNL     1      -0.127   9.551  -6.428  0.00  0.00    +0.030 A 
ATOM      5  C   UNL     1      -1.375   9.520  -5.822  0.00  0.00    +0.108 A 
ATOM      6  C   UNL     1      -1.509   9.113  -4.525  0.00  0.00    +0.058 A 
ATOM      7  C   UNL     1      -0.382   8.724  -3.797  0.00  0.00    +0.091 A 
ATOM      8  N   UNL     1      -0.194   8.284  -2.526  0.00  0.00    -0.234 NA
ATOM      9  C   UNL     1       1.070   8.050  -2.327  0.00  0.00    +0.094 A 
ENDROOT
BRANCH   5  10
ATOM     10  S   UNL     1      -2.800  10.009  -6.736  0.00  0.00    +0.061 S 
ATOM     11  O   UNL     1      -3.774  10.411  -5.783  0.00  0.00    -0.153 OA
ATOM     12  O   UNL     1      -2.344  10.870  -7.769  0.00  0.00    -0.153 OA
BRANCH  10  13
ATOM     13  N   UNL     1      -3.395   8.653  -7.477  0.00  0.00    -0.177 NA
ATOM     14  C   UNL     1      -2.943   8.276  -8.823  0.00  0.00    +0.109 C 
ATOM     15  C   UNL     1      -2.445   6.824  -8.783  0.00  0.00    +0.017 C 
ATOM     16  C   UNL     1      -3.549   5.928  -8.218  0.00  0.00    +0.003 C 
ATOM     17  C   UNL     1      -3.880   6.363  -6.788  0.00  0.00    +0.017 C 
ATOM     18  C   UNL     1      -4.391   7.807  -6.804  0.00  0.00    +0.109 C 
ENDBRANCH  10  13
ENDBRANCH   5  10
BRANCH   1  20
ATOM     19  C   UNL     1       3.561   6.794  -4.126  0.00  0.00    +0.027 C 
ATOM     20  C   UNL     1       3.230   8.199  -3.620  0.00  0.00    +0.120 C 
ENDBRANCH   1  20
BRANCH   9  21
ATOM     21  C   UNL     1       1.662   7.549  -1.035  0.00  0.00    -0.003 C 
BRANCH  21  27
ATOM     22  C   UNL     1       2.462   5.557   0.088  0.00  0.00    -0.059 C 
ATOM     23  C   UNL     1       2.523   4.031  -0.001  0.00  0.00    +0.086 C 
ATOM     24  N   UNL     1       1.159   3.486   0.009  0.00  0.00    -0.333 N 
ATOM     25  C   UNL     1       0.378   4.009  -1.121  0.00  0.00    +0.086 C 
ATOM     26  C   UNL     1       0.316   5.535  -1.032  0.00  0.00    -0.059 C 
ATOM     27  N   UNL     1       1.694   6.071  -1.066  0.00  0.00    +0.386 N 
ATOM     28  H   UNL     1       2.150   5.765  -1.933  0.00  0.00    -0.081 HD
BRANCH  24  29
ATOM     29  C   UNL     1       1.177   2.087   0.002  0.00  0.00    +0.030 A 
ATOM     30  C   UNL     1      -0.017   1.377   0.010  0.00  0.00    +0.026 A 
ATOM     31  C   UNL     1       0.002  -0.004   0.002  0.00  0.00    +0.047 A 
ATOM     32  C   UNL     1       1.212  -0.681  -0.014  0.00  0.00    +0.117 A 
ATOM     33  C   UNL     1       2.405   0.027  -0.021  0.00  0.00    +0.047 A 
ATOM     34  C   UNL     1       2.388   1.408  -0.012  0.00  0.00    +0.026 A 
BRANCH  32  35
ATOM     35  O   UNL     1       1.230  -2.041  -0.022  0.00  0.00    -0.507 OA
ATOM     36  H   UNL     1       1.226  -2.430  -0.907  0.00  0.00    +0.292 HD
ENDBRANCH  32  35
ENDBRANCH  24  29
ENDBRANCH  21  27
ENDBRANCH   9  21
TORSDOF 7
