REMARK  Name = ZINC13039630
REMARK  8 active torsions:
REMARK  status: ('A' for Active; 'I' for Inactive)
REMARK    1  A    between atoms: C_1  and  C_2
REMARK    2  A    between atoms: C_5  and  N_18
REMARK    3  A    between atoms: C_7  and  S_8
REMARK    4  A    between atoms: S_8  and  N_11
REMARK    5  A    between atoms: N_18  and  C_19
REMARK    6  A    between atoms: C_19  and  C_21
REMARK    7  A    between atoms: C_19  and  C_22
REMARK    8  A    between atoms: N_24  and  C_25
REMARK                            x       y       z     vdW  Elec       q    Type
REMARK                         _______ _______ _______ _____ _____    ______ ____
ROOT
ATOM      1  C   UNL     1       4.242  -0.025  -0.192  0.00  0.00    +0.046 C 
ATOM      2  C   UNL     1       2.874   0.597  -0.085  0.00  0.00    -0.024 A 
ATOM      3  C   UNL     1       1.748  -0.206  -0.094  0.00  0.00    +0.007 A 
ATOM      4  C   UNL     1       0.493   0.360   0.004  0.00  0.00    +0.023 A 
ATOM      5  C   UNL     1       0.361   1.739   0.112  0.00  0.00    +0.030 A 
ATOM      6  C   UNL     1       1.494   2.543   0.121  0.00  0.00    +0.051 A 
ATOM      7  C   UNL     1       2.747   1.970   0.023  0.00  0.00    +0.110 A 
ENDROOT
BRANCH   7   8
ATOM      8  S   UNL     1       4.184   2.988   0.035  0.00  0.00    +0.061 S 
ATOM      9  O   UNL     1       4.703   2.942   1.357  0.00  0.00    -0.153 OA
ATOM     10  O   UNL     1       4.955   2.616  -1.100  0.00  0.00    -0.153 OA
BRANCH   8  11
ATOM     11  N   UNL     1       3.683   4.545  -0.224  0.00  0.00    -0.177 NA
ATOM     12  C   UNL     1       3.504   4.999  -1.585  0.00  0.00    +0.109 C 
ATOM     13  C   UNL     1       4.827   5.583  -2.123  0.00  0.00    +0.017 C 
ATOM     14  C   UNL     1       5.117   6.871  -1.473  0.00  0.00    +0.001 C 
ATOM     15  C   UNL     1       5.328   6.780   0.035  0.00  0.00    +0.001 C 
ATOM     16  C   UNL     1       3.991   6.838   0.731  0.00  0.00    +0.017 C 
ATOM     17  C   UNL     1       3.444   5.415   0.945  0.00  0.00    +0.109 C 
ENDBRANCH   8  11
ENDBRANCH   7   8
BRANCH   5  18
ATOM     18  N   UNL     1      -0.907   2.317   0.205  0.00  0.00    -0.333 N 
ATOM     19  H   UNL     1      -0.998   3.279   0.280  0.00  0.00    +0.147 HD
BRANCH  18  20
ATOM     20  C   UNL     1      -2.101   1.468   0.189  0.00  0.00    +0.154 C 
ATOM     21  C   UNL     1      -2.387   0.964   1.605  0.00  0.00    +0.038 C 
BRANCH  20  22
ATOM     22  C   UNL     1      -3.279   2.266  -0.307  0.00  0.00    +0.237 C 
ATOM     23  O   UNL     1      -3.135   3.430  -0.617  0.00  0.00    -0.273 OA
ATOM     24  N   UNL     1      -4.492   1.687  -0.406  0.00  0.00    -0.284 N 
ATOM     25  H   UNL     1      -4.593   0.740  -0.225  0.00  0.00    +0.155 HD
BRANCH  24  26
ATOM     26  C   UNL     1      -5.605   2.453  -0.772  0.00  0.00    +0.034 A 
ATOM     27  C   UNL     1      -6.851   2.174  -0.226  0.00  0.00    +0.024 A 
ATOM     28  C   UNL     1      -7.946   2.935  -0.584  0.00  0.00    +0.017 A 
ATOM     29  C   UNL     1      -7.806   3.968  -1.494  0.00  0.00    +0.018 A 
ATOM     30  C   UNL     1      -6.566   4.244  -2.044  0.00  0.00    +0.017 A 
ATOM     31  C   UNL     1      -5.466   3.490  -1.685  0.00  0.00    +0.024 A 
ATOM     32 BR   UNL     1      -9.309   5.003  -1.986  0.00  0.00    -0.050 Br
ENDBRANCH  24  26
ENDBRANCH  20  22
ENDBRANCH  18  20
ENDBRANCH   5  18
TORSDOF 6
