REMARK  Name = ZINC41531339
REMARK  8 active torsions:
REMARK  status: ('A' for Active; 'I' for Inactive)
REMARK    1  A    between atoms: C_1  and  C_2
REMARK    2  A    between atoms: C_2  and  C_3
REMARK    3  A    between atoms: C_2  and  C_4
REMARK    4  A    between atoms: C_4  and  C_6
REMARK    5  A    between atoms: C_4  and  N_10
REMARK    6  A    between atoms: C_6  and  O_8
REMARK    7  A    between atoms: O_8  and  C_9
REMARK    8  A    between atoms: N_24  and  C_25
REMARK                            x       y       z     vdW  Elec       q    Type
REMARK                         _______ _______ _______ _____ _____    ______ ____
ROOT
ATOM      1  N   UNL     1      -2.105  -0.148  -1.230  0.00  0.00    -0.302 N 
ATOM      2  C   UNL     1      -1.967  -0.924  -2.354  0.00  0.00    +0.200 A 
ATOM      3  N   UNL     1      -1.233  -2.016  -2.303  0.00  0.00    -0.208 NA
ATOM      4  C   UNL     1      -1.082  -2.786  -3.375  0.00  0.00    +0.117 A 
ATOM      5  C   UNL     1      -1.690  -2.481  -4.605  0.00  0.00    +0.076 A 
ATOM      6  C   UNL     1      -1.432  -3.422  -5.696  0.00  0.00    -0.023 A 
ATOM      7  C   UNL     1      -0.644  -4.480  -5.418  0.00  0.00    -0.004 A 
ATOM      8  S   UNL     1      -0.204  -4.291  -3.711  0.00  0.00    -0.073 S 
ATOM      9  C   UNL     1      -0.232  -5.576  -6.354  0.00  0.00    +0.043 C 
ATOM     10  C   UNL     1      -1.140  -5.523  -7.591  0.00  0.00    +0.005 C 
ATOM     11  C   UNL     1      -1.215  -4.075  -8.084  0.00  0.00    +0.005 C 
ATOM     12  C   UNL     1      -2.017  -3.231  -7.093  0.00  0.00    +0.037 C 
ATOM     13  C   UNL     1      -2.482  -1.289  -4.630  0.00  0.00    +0.264 A 
ATOM     14  O   UNL     1      -3.047  -0.944  -5.653  0.00  0.00    -0.267 OA
ATOM     15  N   UNL     1      -2.597  -0.557  -3.507  0.00  0.00    -0.284 N 
ATOM     16  C   UNL     1      -3.410   0.661  -3.524  0.00  0.00    +0.155 C 
ATOM     17  H   UNL     1      -2.648   0.655  -1.260  0.00  0.00    +0.150 HD
ENDROOT
BRANCH   1  18
ATOM     18  C   UNL     1      -1.433  -0.534   0.013  0.00  0.00    +0.185 C 
BRANCH  18  20
ATOM     19  C   UNL     1      -0.019   1.526   0.010  0.00  0.00    +0.009 C 
ATOM     20  C   UNL     1       0.002  -0.004   0.002  0.00  0.00    +0.014 C 
ATOM     21  C   UNL     1       0.742  -0.511   1.242  0.00  0.00    +0.009 C 
ENDBRANCH  18  20
BRANCH  18  22
ATOM     22  C   UNL     1      -2.175   0.051   1.187  0.00  0.00    +0.328 C 
ATOM     23  O   UNL     1      -3.164   0.721   1.004  0.00  0.00    -0.249 OA
BRANCH  22  24
ATOM     24  O   UNL     1      -1.738  -0.173   2.436  0.00  0.00    -0.467 OA
ATOM     25  C   UNL     1      -2.490   0.412   3.501  0.00  0.00    +0.280 C 
ENDBRANCH  22  24
ENDBRANCH  18  22
ENDBRANCH   1  18
TORSDOF 4
