REMARK  Name = ZINC65237261
REMARK  6 active torsions:
REMARK  status: ('A' for Active; 'I' for Inactive)
REMARK    1  A    between atoms: C_1  and  C_2
REMARK    2  A    between atoms: C_5  and  N_8
REMARK    3  A    between atoms: C_11  and  N_15
REMARK    4  A    between atoms: C_18  and  C_21
REMARK    5  A    between atoms: N_23  and  C_24
REMARK    6  A    between atoms: C_24  and  C_25
REMARK                            x       y       z     vdW  Elec       q    Type
REMARK                         _______ _______ _______ _____ _____    ______ ____
ROOT
ATOM      1  N   UNL     1      -0.345  -4.300   4.783  0.00  0.00    -0.315 N 
ATOM      2  C   UNL     1      -0.211  -5.063   6.032  0.00  0.00    +0.107 C 
ATOM      3  C   UNL     1       0.854  -4.394   6.907  0.00  0.00    +0.031 C 
ATOM      4  C   UNL     1       0.493  -2.921   7.106  0.00  0.00    +0.078 C 
ATOM      5  C   UNL     1       0.467  -2.212   5.750  0.00  0.00    +0.031 C 
ATOM      6  C   UNL     1      -0.597  -2.855   4.862  0.00  0.00    +0.107 C 
ENDROOT
BRANCH   1  10
ATOM      7  N   UNL     1       0.050  -4.169  -0.022  0.00  0.00    -0.299 N 
ATOM      8  C   UNL     1      -0.035  -4.867   1.174  0.00  0.00    +0.128 A 
ATOM      9  C   UNL     1      -0.149  -4.186   2.383  0.00  0.00    +0.087 A 
ATOM     10  C   UNL     1      -0.230  -4.931   3.554  0.00  0.00    +0.126 A 
ATOM     11  N   UNL     1      -0.196  -6.261   3.478  0.00  0.00    -0.221 NA
ATOM     12  C   UNL     1      -0.087  -6.869   2.314  0.00  0.00    +0.225 A 
ATOM     13  N   UNL     1      -0.013  -6.198   1.183  0.00  0.00    -0.221 NA
ATOM     14  H   UNL     1       0.113  -3.201  -0.015  0.00  0.00    +0.154 HD
BRANCH   7  19
ATOM     15  C   UNL     1       0.026  -6.975  -4.951  0.00  0.00    +0.044 C 
ATOM     16  C   UNL     1       0.032  -6.229  -3.641  0.00  0.00    -0.050 A 
ATOM     17  C   UNL     1      -0.686  -6.718  -2.566  0.00  0.00    +0.005 A 
ATOM     18  C   UNL     1      -0.682  -6.037  -1.364  0.00  0.00    +0.023 A 
ATOM     19  C   UNL     1       0.044  -4.860  -1.236  0.00  0.00    +0.032 A 
ATOM     20  C   UNL     1       0.765  -4.372  -2.319  0.00  0.00    +0.023 A 
ATOM     21  C   UNL     1       0.761  -5.060  -3.516  0.00  0.00    +0.005 A 
ENDBRANCH   7  19
ENDBRANCH   1  10
BRANCH   4  22
ATOM     22  C   UNL     1       1.520  -2.268   7.994  0.00  0.00    +0.216 C 
ATOM     23  O   UNL     1       2.450  -2.917   8.425  0.00  0.00    -0.276 OA
ATOM     24  N   UNL     1       1.406  -0.962   8.309  0.00  0.00    -0.313 N 
ATOM     25  H   UNL     1       0.663  -0.443   7.965  0.00  0.00    +0.149 HD
BRANCH  24  26
ATOM     26  C   UNL     1       2.405  -0.327   9.173  0.00  0.00    +0.135 C 
BRANCH  26  27
ATOM     27  C   UNL     1       2.044   1.146   9.372  0.00  0.00    +0.135 C 
ATOM     28  C   UNL     1       3.154   1.852  10.180  0.00  0.00    +0.035 C 
ATOM     29  C   UNL     1       2.338   2.793  11.108  0.00  0.00    +0.031 C 
ATOM     30  C   UNL     1       1.076   1.932  11.364  0.00  0.00    +0.160 C 
ATOM     31  O   UNL     1       0.828   1.251  10.121  0.00  0.00    -0.375 OA
ENDBRANCH  26  27
ENDBRANCH  24  26
ENDBRANCH   4  22
TORSDOF 5
