REMARK  Name = ZINC38774038
REMARK  6 active torsions:
REMARK  status: ('A' for Active; 'I' for Inactive)
REMARK    1  A    between atoms: C_3  and  C_10
REMARK    2  A    between atoms: C_5  and  N_7
REMARK    3  A    between atoms: C_11  and  C_12
REMARK    4  A    between atoms: N_14  and  C_15
REMARK    5  A    between atoms: C_15  and  C_16
REMARK    6  A    between atoms: C_16  and  N_17
REMARK                            x       y       z     vdW  Elec       q    Type
REMARK                         _______ _______ _______ _____ _____    ______ ____
ROOT
ATOM      1  C   UNL     1       5.850   7.844  -0.015  0.00  0.00    -0.060 C 
ENDROOT
BRANCH   1   2
ATOM      2  N   UNL     1       7.115   8.592  -0.023  0.00  0.00    +0.383 N 
ATOM      3  C   UNL     1       7.850   8.322   1.219  0.00  0.00    -0.059 C 
ATOM      4  C   UNL     1       9.218   9.009   1.162  0.00  0.00    +0.088 C 
ATOM      5  N   UNL     1       9.011  10.438   0.877  0.00  0.00    -0.313 N 
ATOM      6  C   UNL     1       8.149  10.800  -0.258  0.00  0.00    +0.088 C 
ATOM      7  C   UNL     1       6.831  10.028  -0.134  0.00  0.00    -0.059 C 
ATOM      8  C   UNL     1       9.607  11.410   1.654  0.00  0.00    +0.162 A 
ATOM      9  N   UNL     1      10.402  11.264   2.690  0.00  0.00    -0.225 NA
ATOM     10  C   UNL     1      10.919  12.316   3.362  0.00  0.00    +0.080 A 
ATOM     11  C   UNL     1      11.778  12.298   4.484  0.00  0.00    +0.030 A 
ATOM     12  C   UNL     1      12.215  13.467   5.052  0.00  0.00    +0.017 A 
ATOM     13  C   UNL     1      11.832  14.703   4.550  0.00  0.00    +0.019 A 
ATOM     14  C   UNL     1      10.991  14.758   3.453  0.00  0.00    +0.032 A 
ATOM     15  C   UNL     1      10.550  13.592   2.878  0.00  0.00    +0.042 A 
ATOM     16  S   UNL     1       9.503  13.187   1.502  0.00  0.00    -0.052 S 
ATOM     17 BR   UNL     1      12.452  16.296   5.359  0.00  0.00    -0.050 Br
ATOM     18  H   UNL     1       7.672   8.299  -0.811  0.00  0.00    -0.082 HD
ENDBRANCH   1   2
BRANCH   1  19
ATOM     19  C   UNL     1       6.146   6.343  -0.025  0.00  0.00    +0.086 C 
BRANCH  19  22
ATOM     20  C   UNL     1       4.899   4.249  -0.023  0.00  0.00    +0.237 C 
ATOM     21  O   UNL     1       5.959   3.652  -0.037  0.00  0.00    -0.271 OA
ATOM     22  N   UNL     1       4.885   5.597  -0.016  0.00  0.00    -0.314 N 
ATOM     23  H   UNL     1       4.040   6.073  -0.006  0.00  0.00    +0.149 HD
BRANCH  20  25
ATOM     24  C   UNL     1       3.653   2.156  -0.022  0.00  0.00    +0.013 C 
ATOM     25  C   UNL     1       3.639   3.504  -0.015  0.00  0.00    +0.068 C 
BRANCH  24  28
ATOM     26  C   UNL     1      -0.017   1.380   0.010  0.00  0.00    +0.003 A 
ATOM     27  C   UNL     1       1.166   2.089   0.002  0.00  0.00    +0.008 A 
ATOM     28  C   UNL     1       2.386   1.406  -0.013  0.00  0.00    -0.023 A 
ATOM     29  C   UNL     1       2.397   0.008  -0.021  0.00  0.00    +0.040 A 
ATOM     30  C   UNL     1       1.206  -0.687  -0.013  0.00  0.00    +0.127 A 
ATOM     31  C   UNL     1       0.002  -0.004   0.002  0.00  0.00    +0.033 A 
BRANCH  30  32
ATOM     32  N   UNL     1       1.215  -2.167  -0.021  0.00  0.00    +0.056 N 
ATOM     33  O   UNL     1       2.265  -2.765  -0.034  0.00  0.00    -0.126 OA
ATOM     34  O   UNL     1       0.172  -2.778  -0.014  0.00  0.00    -0.126 OA
ENDBRANCH  30  32
ENDBRANCH  24  28
ENDBRANCH  20  25
ENDBRANCH  19  22
ENDBRANCH   1  19
TORSDOF 6
