REMARK  Name = ZINC09282468
REMARK  7 active torsions:
REMARK  status: ('A' for Active; 'I' for Inactive)
REMARK    1  A    between atoms: C_1  and  C_2
REMARK    2  A    between atoms: C_2  and  O_3
REMARK    3  A    between atoms: O_3  and  C_4
REMARK    4  A    between atoms: C_7  and  C_10
REMARK    5  A    between atoms: C_17  and  N_30
REMARK    6  A    between atoms: C_18  and  C_28
REMARK    7  A    between atoms: C_19  and  C_21
REMARK                            x       y       z     vdW  Elec       q    Type
REMARK                         _______ _______ _______ _____ _____    ______ ____
ROOT
ATOM      1  C   UNL     1       1.302  -6.385  -1.886  0.00  0.00    +0.100 A 
ATOM      2  C   UNL     1       1.035  -6.909  -3.155  0.00  0.00    +0.054 A 
ATOM      3  C   UNL     1       1.147  -8.267  -3.083  0.00  0.00    +0.223 A 
ATOM      4  N   UNL     1       1.474  -8.585  -1.813  0.00  0.00    -0.246 N 
ATOM      5  H   UNL     1       1.620  -9.480  -1.469  0.00  0.00    +0.192 HD
ATOM      6  N   UNL     1       1.571  -7.393  -1.079  0.00  0.00    -0.171 NA
ATOM      7  O   UNL     1       0.944  -9.076  -4.152  0.00  0.00    -0.423 OA
ATOM      8  C   UNL     1       0.358  -8.537  -5.241  0.00  0.00    +0.200 C 
ATOM      9  C   UNL     1       0.203  -7.208  -5.431  0.00  0.00    +0.098 C 
ATOM     10  C   UNL     1       0.681  -6.187  -4.429  0.00  0.00    +0.102 C 
ENDROOT
BRANCH  10  11
ATOM     11  C   UNL     1       1.897  -5.478  -4.967  0.00  0.00    -0.034 A 
ATOM     12  C   UNL     1       3.055  -6.190  -5.223  0.00  0.00    +0.005 A 
ATOM     13  C   UNL     1       4.171  -5.540  -5.716  0.00  0.00    +0.015 A 
ATOM     14  C   UNL     1       4.129  -4.178  -5.955  0.00  0.00    +0.018 A 
ATOM     15  C   UNL     1       2.970  -3.467  -5.699  0.00  0.00    +0.015 A 
ATOM     16  C   UNL     1       1.854  -4.118  -5.210  0.00  0.00    +0.005 A 
ATOM     17 BR   UNL     1       5.655  -3.289  -6.629  0.00  0.00    -0.050 Br
ENDBRANCH  10  11
BRANCH   1  21
ATOM     18  C   UNL     1       1.268  -2.266  -0.821  0.00  0.00    +0.121 A 
ATOM     19  C   UNL     1       0.275  -2.776  -1.647  0.00  0.00    +0.046 A 
ATOM     20  C   UNL     1       0.284  -4.111  -1.994  0.00  0.00    +0.013 A 
ATOM     21  C   UNL     1       1.290  -4.948  -1.515  0.00  0.00    +0.003 A 
ATOM     22  C   UNL     1       2.286  -4.433  -0.687  0.00  0.00    +0.013 A 
ATOM     23  C   UNL     1       2.275  -3.096  -0.347  0.00  0.00    +0.046 A 
BRANCH  18  24
ATOM     24  O   UNL     1       1.257  -0.951  -0.481  0.00  0.00    -0.492 OA
BRANCH  24  26
ATOM     25  C   UNL     1       0.347   1.288  -0.516  0.00  0.00    +0.048 C 
ATOM     26  C   UNL     1       0.192  -0.154  -1.004  0.00  0.00    +0.225 C 
ENDBRANCH  24  26
ENDBRANCH  18  24
ENDBRANCH   1  21
BRANCH   8  27
ATOM     27  N   UNL     1      -0.107  -9.388  -6.213  0.00  0.00    -0.328 N 
ATOM     28  H   UNL     1      -0.009 -10.348  -6.105  0.00  0.00    +0.145 HD
ATOM     29  H   UNL     1      -0.533  -9.031  -7.007  0.00  0.00    +0.145 HD
ENDBRANCH   8  27
BRANCH   9  30
ATOM     30  C   UNL     1      -0.439  -6.753  -6.628  0.00  0.00    +0.101 C 
ATOM     31  N   UNL     1      -0.948  -6.392  -7.577  0.00  0.00    -0.191 NA
ENDBRANCH   9  30
TORSDOF 6
