REMARK  Name = ZINC01081994
REMARK  11 active torsions:
REMARK  status: ('A' for Active; 'I' for Inactive)
REMARK    1  A    between atoms: C_1  and  C_2
REMARK    2  A    between atoms: C_3  and  C_32
REMARK    3  A    between atoms: C_4  and  C_23
REMARK    4  A    between atoms: C_10  and  C_15
REMARK    5  A    between atoms: C_18  and  O_21
REMARK    6  A    between atoms: O_21  and  C_22
REMARK    7  A    between atoms: C_26  and  N_29
REMARK    8  A    between atoms: C_32  and  O_34
REMARK    9  A    between atoms: O_34  and  C_35
REMARK   10  A    between atoms: C_35  and  C_36
REMARK   11  A    between atoms: C_35  and  C_37
REMARK                            x       y       z     vdW  Elec       q    Type
REMARK                         _______ _______ _______ _____ _____    ______ ____
ROOT
ATOM      1  C   UNL     1       8.182  -3.000  -6.733  0.00  0.00    +0.061 C 
ATOM      2  C   UNL     1       6.682  -3.142  -6.760  0.00  0.00    +0.016 C 
ATOM      3  C   UNL     1       6.061  -3.446  -7.913  0.00  0.00    +0.065 C 
ATOM      4  C   UNL     1       4.571  -3.603  -7.977  0.00  0.00    +0.092 C 
ATOM      5  C   UNL     1       3.908  -2.973  -6.777  0.00  0.00    +0.024 C 
ATOM      6  C   UNL     1       4.621  -2.686  -5.668  0.00  0.00    +0.016 C 
ATOM      7  N   UNL     1       5.962  -2.958  -5.613  0.00  0.00    -0.321 N 
ATOM      8  C   UNL     1       3.965  -2.055  -4.464  0.00  0.00    +0.059 C 
ATOM      9  C   UNL     1       2.504  -2.503  -4.382  0.00  0.00    +0.032 C 
ATOM     10  C   UNL     1       1.797  -2.097  -5.679  0.00  0.00    +0.088 C 
ATOM     11  C   UNL     1       2.531  -2.700  -6.846  0.00  0.00    +0.162 C 
ATOM     12  O   UNL     1       1.922  -2.955  -7.866  0.00  0.00    -0.292 OA
ATOM     13  H   UNL     1       6.458  -3.030  -4.634  0.00  0.00    +0.152 HD
ENDROOT
BRANCH   9  14
ATOM     14  C   UNL     1       1.835  -1.835  -3.209  0.00  0.00    -0.043 A 
ATOM     15  C   UNL     1       1.275  -2.602  -2.204  0.00  0.00    +0.007 A 
ATOM     16  C   UNL     1       0.661  -1.992  -1.128  0.00  0.00    +0.046 A 
ATOM     17  C   UNL     1       0.606  -0.607  -1.056  0.00  0.00    +0.120 A 
ATOM     18  C   UNL     1       1.163   0.161  -2.068  0.00  0.00    +0.046 A 
ATOM     19  C   UNL     1       1.782  -0.455  -3.139  0.00  0.00    +0.007 A 
BRANCH  17  20
ATOM     20  O   UNL     1       0.002  -0.004   0.002  0.00  0.00    -0.495 OA
ATOM     21  C   UNL     1      -0.017   1.425   0.010  0.00  0.00    +0.277 C 
ENDBRANCH  17  20
ENDBRANCH   9  14
BRANCH   4  22
ATOM     22  C   UNL     1       4.229  -5.070  -8.018  0.00  0.00    -0.035 A 
ATOM     23  C   UNL     1       4.589  -5.893  -6.967  0.00  0.00    +0.007 A 
ATOM     24  C   UNL     1       4.272  -7.238  -7.002  0.00  0.00    +0.033 A 
ATOM     25  C   UNL     1       3.603  -7.762  -8.093  0.00  0.00    +0.126 A 
ATOM     26  C   UNL     1       3.247  -6.940  -9.146  0.00  0.00    +0.033 A 
ATOM     27  C   UNL     1       3.560  -5.594  -9.108  0.00  0.00    +0.007 A 
BRANCH  25  28
ATOM     28  N   UNL     1       3.268  -9.203  -8.133  0.00  0.00    +0.056 N 
ATOM     29  O   UNL     1       2.679  -9.665  -9.094  0.00  0.00    -0.126 OA
ATOM     30  O   UNL     1       3.582  -9.927  -7.205  0.00  0.00    -0.126 OA
ENDBRANCH  25  28
ENDBRANCH   4  22
BRANCH   3  31
ATOM     31  C   UNL     1       6.828  -3.623  -9.088  0.00  0.00    +0.338 C 
ATOM     32  O   UNL     1       8.038  -3.499  -9.050  0.00  0.00    -0.245 OA
BRANCH  31  33
ATOM     33  O   UNL     1       6.218  -3.929 -10.252  0.00  0.00    -0.459 OA
BRANCH  33  34
ATOM     34  C   UNL     1       7.054  -4.093 -11.399  0.00  0.00    +0.171 C 
ATOM     35  C   UNL     1       6.413  -5.099 -12.358  0.00  0.00    +0.052 C 
ATOM     36  C   UNL     1       7.218  -2.747 -12.108  0.00  0.00    +0.052 C 
ENDBRANCH  33  34
ENDBRANCH  31  33
ENDBRANCH   3  31
TORSDOF 7
