REMARK  Name = ZINC09910815
REMARK  7 active torsions:
REMARK  status: ('A' for Active; 'I' for Inactive)
REMARK    1  A    between atoms: C_3  and  N_21
REMARK    2  A    between atoms: C_6  and  N_7
REMARK    3  A    between atoms: C_8  and  C_10
REMARK    4  A    between atoms: C_10  and  C_11
REMARK    5  A    between atoms: C_11  and  C_12
REMARK    6  A    between atoms: C_12  and  S_13
REMARK    7  A    between atoms: S_13  and  C_14
REMARK                            x       y       z     vdW  Elec       q    Type
REMARK                         _______ _______ _______ _____ _____    ______ ____
ROOT
ATOM      1  N   UNL     1       5.869   8.293  -0.011  0.00  0.00    -0.285 N 
ATOM      2  C   UNL     1       4.649   7.720  -0.004  0.00  0.00    +0.217 C 
ATOM      3  O   UNL     1       3.654   8.412   0.001  0.00  0.00    -0.275 OA
ATOM      4  H   UNL     1       6.664   7.742   0.054  0.00  0.00    +0.155 HD
ENDROOT
BRANCH   1  10
ATOM      5  C   UNL     1       7.050  10.243  -0.809  0.00  0.00    +0.025 A 
ATOM      6  C   UNL     1       7.161  11.616  -0.910  0.00  0.00    +0.034 A 
ATOM      7  C   UNL     1       6.222  12.434  -0.307  0.00  0.00    +0.126 A 
ATOM      8  C   UNL     1       5.167  11.880   0.394  0.00  0.00    +0.034 A 
ATOM      9  C   UNL     1       5.047  10.508   0.494  0.00  0.00    +0.025 A 
ATOM     10  C   UNL     1       5.988   9.684  -0.110  0.00  0.00    +0.034 A 
BRANCH   7  11
ATOM     11  N   UNL     1       6.348  13.905  -0.413  0.00  0.00    +0.056 N 
ATOM     12  O   UNL     1       5.522  14.626   0.117  0.00  0.00    -0.126 OA
ATOM     13  O   UNL     1       7.277  14.394  -1.031  0.00  0.00    -0.126 OA
ENDBRANCH   7  11
ENDBRANCH   1  10
BRANCH   2  14
ATOM     14  C   UNL     1       4.523   6.218  -0.002  0.00  0.00    +0.097 C 
BRANCH  14  15
ATOM     15  C   UNL     1       3.042   5.831   0.006  0.00  0.00    +0.020 C 
BRANCH  15  16
ATOM     16  C   UNL     1       2.914   4.306   0.009  0.00  0.00    +0.075 C 
BRANCH  16  17
ATOM     17  S   UNL     1       1.159   3.848   0.018  0.00  0.00    -0.125 S 
BRANCH  17  18
ATOM     18  C   UNL     1       1.179   2.086   0.020  0.00  0.00    +0.008 A 
ATOM     19  C   UNL     1      -0.016   1.376   0.026  0.00  0.00    +0.016 A 
ATOM     20  C   UNL     1       0.003  -0.005   0.027  0.00  0.00    +0.021 A 
ATOM     21  C   UNL     1       1.210  -0.682   0.022  0.00  0.00    +0.041 A 
ATOM     22  C   UNL     1       2.402   0.022   0.015  0.00  0.00    +0.021 A 
ATOM     23  C   UNL     1       2.389   1.403   0.014  0.00  0.00    +0.016 A 
ATOM     24 CL   UNL     1       1.230  -2.418   0.024  0.00  0.00    -0.084 Cl
ENDBRANCH  17  18
ENDBRANCH  16  17
ENDBRANCH  15  16
ENDBRANCH  14  15
ENDBRANCH   2  14
TORSDOF 7
