REMARK  Name = ZINC13643352
REMARK  9 active torsions:
REMARK  status: ('A' for Active; 'I' for Inactive)
REMARK    1  A    between atoms: C_1  and  C_2
REMARK    2  A    between atoms: C_5  and  N_9
REMARK    3  A    between atoms: C_7  and  C_8
REMARK    4  A    between atoms: N_9  and  S_10
REMARK    5  A    between atoms: S_10  and  C_13
REMARK    6  A    between atoms: C_26  and  C_29
REMARK    7  A    between atoms: C_32  and  N_35
REMARK    8  A    between atoms: N_35  and  C_36
REMARK    9  A    between atoms: N_35  and  C_37
REMARK                            x       y       z     vdW  Elec       q    Type
REMARK                         _______ _______ _______ _____ _____    ______ ____
ROOT
ATOM      1  C   UNL     1       0.599  -2.462   0.146  0.00  0.00    +0.109 A 
ATOM      2  C   UNL     1      -0.720  -2.058   0.240  0.00  0.00    +0.030 A 
ATOM      3  C   UNL     1      -1.028  -0.719   0.366  0.00  0.00    +0.025 A 
ATOM      4  C   UNL     1      -0.016   0.233   0.401  0.00  0.00    +0.031 A 
ATOM      5  C   UNL     1       1.317  -0.184   0.318  0.00  0.00    -0.018 A 
ATOM      6  C   UNL     1       1.613  -1.523   0.185  0.00  0.00    +0.034 A 
ATOM      7  C   UNL     1       2.363   0.858   0.389  0.00  0.00    +0.049 C 
ATOM      8  C   UNL     1       3.701   0.674  -0.228  0.00  0.00    -0.023 C 
ATOM      9  C   UNL     1       4.158   1.860  -0.612  0.00  0.00    -0.030 C 
ATOM     10  C   UNL     1       3.123   2.944  -0.303  0.00  0.00    +0.033 C 
ATOM     11  C   UNL     1       1.817   2.136  -0.314  0.00  0.00    +0.029 C 
ATOM     12  C   UNL     1       0.689   2.635   0.571  0.00  0.00    +0.105 C 
ATOM     13  N   UNL     1      -0.354   1.587   0.515  0.00  0.00    -0.336 N 
ATOM     14  H   UNL     1      -1.289   1.843   0.554  0.00  0.00    +0.147 HD
ENDROOT
BRANCH  12  15
ATOM     15  C   UNL     1       1.176   2.809   1.987  0.00  0.00    -0.027 A 
ATOM     16  C   UNL     1       1.097   1.754   2.878  0.00  0.00    +0.007 A 
ATOM     17  C   UNL     1       1.548   1.909   4.174  0.00  0.00    +0.023 A 
ATOM     18  C   UNL     1       2.071   3.128   4.585  0.00  0.00    +0.029 A 
ATOM     19  C   UNL     1       2.144   4.187   3.689  0.00  0.00    +0.023 A 
ATOM     20  C   UNL     1       1.696   4.024   2.393  0.00  0.00    +0.007 A 
BRANCH  18  21
ATOM     21  N   UNL     1       2.523   3.289   5.897  0.00  0.00    -0.336 N 
ATOM     22  C   UNL     1       2.961   4.607   6.364  0.00  0.00    +0.129 C 
ATOM     23  C   UNL     1       2.558   2.141   6.806  0.00  0.00    +0.129 C 
ENDBRANCH  18  21
ENDBRANCH  12  15
BRANCH   1  24
ATOM     24  S   UNL     1       0.988  -4.172  -0.024  0.00  0.00    +0.072 S 
ATOM     25  O   UNL     1      -0.195  -4.814  -0.481  0.00  0.00    -0.150 OA
ATOM     26  O   UNL     1       2.215  -4.241  -0.737  0.00  0.00    -0.150 OA
BRANCH  24  27
ATOM     27  N   UNL     1       1.288  -4.760   1.495  0.00  0.00    -0.216 N 
ATOM     28  H   UNL     1       0.727  -5.459   1.864  0.00  0.00    +0.174 HD
BRANCH  27  33
ATOM     29  C   UNL     1       5.599  -2.683   4.538  0.00  0.00    +0.044 C 
ATOM     30  C   UNL     1       4.454  -3.234   3.729  0.00  0.00    -0.047 A 
ATOM     31  C   UNL     1       4.642  -3.559   2.398  0.00  0.00    +0.005 A 
ATOM     32  C   UNL     1       3.596  -4.069   1.655  0.00  0.00    +0.025 A 
ATOM     33  C   UNL     1       2.350  -4.247   2.244  0.00  0.00    +0.048 A 
ATOM     34  C   UNL     1       2.164  -3.921   3.581  0.00  0.00    +0.028 A 
ATOM     35  C   UNL     1       3.216  -3.415   4.319  0.00  0.00    -0.046 A 
ATOM     36  C   UNL     1       3.016  -3.060   5.770  0.00  0.00    +0.044 C 
ENDBRANCH  27  33
ENDBRANCH  24  27
ENDBRANCH   1  24
TORSDOF 5
