REMARK  Name = ZINC35745601
REMARK  10 active torsions:
REMARK  status: ('A' for Active; 'I' for Inactive)
REMARK    1  A    between atoms: C_4  and  C_7
REMARK    2  A    between atoms: C_16  and  C_18
REMARK    3  A    between atoms: C_18  and  N_19
REMARK    4  A    between atoms: N_19  and  C_20
REMARK    5  A    between atoms: N_19  and  C_28
REMARK    6  A    between atoms: C_20  and  C_21
REMARK    7  A    between atoms: C_21  and  N_22
REMARK    8  A    between atoms: C_28  and  C_29
REMARK    9  A    between atoms: C_29  and  C_31
REMARK   10  A    between atoms: C_29  and  O_37
REMARK                            x       y       z     vdW  Elec       q    Type
REMARK                         _______ _______ _______ _____ _____    ______ ____
ROOT
ATOM      1  N   UNL     1       6.641  -5.416   2.972  0.00  0.00    -0.291 NA
ENDROOT
BRANCH   1   2
ATOM      2  C   UNL     1       5.223  -5.106   3.198  0.00  0.00    +0.158 C 
BRANCH   2  12
ATOM      3  C   UNL     1       3.615  -1.454  -0.872  0.00  0.00    +0.004 A 
ATOM      4  C   UNL     1       4.626  -1.143  -1.719  0.00  0.00    +0.056 A 
ATOM      5  S   UNL     1       5.998  -2.092  -1.090  0.00  0.00    -0.076 S 
ATOM      6  C   UNL     1       5.190  -2.876   0.282  0.00  0.00    +0.116 A 
ATOM      7  C   UNL     1       3.878  -2.379   0.224  0.00  0.00    +0.080 A 
ATOM      8  C   UNL     1       2.990  -2.854   1.242  0.00  0.00    +0.260 A 
ATOM      9  O   UNL     1       1.829  -2.483   1.272  0.00  0.00    -0.267 OA
ATOM     10  N   UNL     1       3.456  -3.716   2.164  0.00  0.00    -0.309 N 
ATOM     11  H   UNL     1       2.859  -4.041   2.856  0.00  0.00    +0.170 HD
ATOM     12  C   UNL     1       4.746  -4.140   2.145  0.00  0.00    +0.125 A 
ATOM     13  N   UNL     1       5.577  -3.732   1.224  0.00  0.00    -0.225 NA
BRANCH   3  17
ATOM     14  C   UNL     1      -0.244   0.251  -1.390  0.00  0.00    +0.000 A 
ATOM     15  C   UNL     1       0.874   1.065  -1.385  0.00  0.00    +0.001 A 
ATOM     16  C   UNL     1       2.129   0.518  -1.217  0.00  0.00    +0.008 A 
ATOM     17  C   UNL     1       2.269  -0.859  -1.052  0.00  0.00    -0.017 A 
ATOM     18  C   UNL     1       1.139  -1.675  -1.057  0.00  0.00    +0.008 A 
ATOM     19  C   UNL     1      -0.111  -1.116  -1.226  0.00  0.00    +0.001 A 
ENDBRANCH   3  17
ENDBRANCH   2  12
ENDBRANCH   1   2
BRANCH   1  20
ATOM     20  C   UNL     1       6.825  -6.151   1.714  0.00  0.00    +0.100 C 
BRANCH  20  21
ATOM     21  C   UNL     1       5.996  -7.436   1.748  0.00  0.00    +0.100 C 
BRANCH  21  22
ATOM     22  N   UNL     1       6.248  -8.214   0.528  0.00  0.00    -0.297 NA
ATOM     23  C   UNL     1       5.741  -7.511  -0.660  0.00  0.00    +0.112 C 
ATOM     24  C   UNL     1       6.077  -8.326  -1.911  0.00  0.00    +0.175 C 
ATOM     25  O   UNL     1       5.523  -9.638  -1.782  0.00  0.00    -0.377 OA
ATOM     26  C   UNL     1       5.995 -10.352  -0.637  0.00  0.00    +0.175 C 
ATOM     27  C   UNL     1       5.659  -9.557   0.628  0.00  0.00    +0.112 C 
ENDBRANCH  21  22
ENDBRANCH  20  21
ENDBRANCH   1  20
BRANCH   1  28
ATOM     28  C   UNL     1       7.204  -6.162   4.105  0.00  0.00    +0.121 C 
BRANCH  28  29
ATOM     29  C   UNL     1       8.732  -6.121   4.034  0.00  0.00    +0.158 C 
BRANCH  29  30
ATOM     30  C   UNL     1       9.310  -6.918   5.175  0.00  0.00    -0.018 A 
ATOM     31  C   UNL     1       9.383  -6.363   6.439  0.00  0.00    +0.006 A 
ATOM     32  C   UNL     1       9.912  -7.094   7.486  0.00  0.00    +0.000 A 
ATOM     33  C   UNL     1      10.369  -8.381   7.268  0.00  0.00    +0.000 A 
ATOM     34  C   UNL     1      10.295  -8.937   6.005  0.00  0.00    +0.000 A 
ATOM     35  C   UNL     1       9.761  -8.207   4.959  0.00  0.00    +0.006 A 
ENDBRANCH  29  30
BRANCH  29  36
ATOM     36  O   UNL     1       9.177  -4.766   4.127  0.00  0.00    -0.386 OA
ATOM     37  H   UNL     1       8.917  -4.322   4.945  0.00  0.00    +0.210 HD
ENDBRANCH  29  36
ENDBRANCH  28  29
ENDBRANCH   1  28
TORSDOF 10
