REMARK  Name = ZINC13262295
REMARK  9 active torsions:
REMARK  status: ('A' for Active; 'I' for Inactive)
REMARK    1  A    between atoms: C_1  and  C_2
REMARK    2  A    between atoms: C_5  and  S_10
REMARK    3  A    between atoms: C_7  and  C_8
REMARK    4  A    between atoms: S_10  and  N_13
REMARK    5  A    between atoms: N_13  and  C_14
REMARK    6  A    between atoms: C_17  and  S_20
REMARK    7  A    between atoms: S_20  and  N_23
REMARK    8  A    between atoms: C_24  and  C_32
REMARK    9  A    between atoms: C_29  and  C_31
REMARK                            x       y       z     vdW  Elec       q    Type
REMARK                         _______ _______ _______ _____ _____    ______ ____
ROOT
ATOM      1  C   UNL     1       4.711   3.784   3.232  0.00  0.00    +0.048 A 
ATOM      2  C   UNL     1       3.808   2.904   3.815  0.00  0.00    +0.026 A 
ATOM      3  C   UNL     1       3.091   2.028   3.024  0.00  0.00    +0.030 A 
ATOM      4  C   UNL     1       3.270   2.027   1.653  0.00  0.00    +0.106 A 
ATOM      5  C   UNL     1       4.172   2.898   1.070  0.00  0.00    +0.030 A 
ATOM      6  C   UNL     1       4.888   3.780   1.854  0.00  0.00    +0.026 A 
ENDROOT
BRANCH   4   7
ATOM      7  S   UNL     1       2.353   0.908   0.647  0.00  0.00    +0.061 S 
ATOM      8  O   UNL     1       1.982  -0.179   1.484  0.00  0.00    -0.153 OA
ATOM      9  O   UNL     1       3.101   0.729  -0.548  0.00  0.00    -0.153 OA
BRANCH   7  10
ATOM     10  N   UNL     1       0.949   1.674   0.217  0.00  0.00    -0.171 NA
ATOM     11  C   UNL     1       0.879   2.470  -1.016  0.00  0.00    +0.077 C 
ATOM     12  C   UNL     1      -0.303   1.976  -1.855  0.00  0.00    +0.020 C 
ATOM     13  C   UNL     1      -1.577   2.015  -1.008  0.00  0.00    +0.003 C 
ATOM     14  C   UNL     1      -1.419   1.086   0.198  0.00  0.00    +0.020 C 
ATOM     15  C   UNL     1      -0.249   1.571   1.060  0.00  0.00    +0.077 C 
ATOM     16  C   UNL     1       0.004   0.571   2.190  0.00  0.00    +0.026 C 
ATOM     17  C   UNL     1       2.176   2.303  -1.809  0.00  0.00    +0.026 C 
ENDBRANCH   7  10
ENDBRANCH   4   7
BRANCH   1  18
ATOM     18  N   UNL     1       5.438   4.671   4.029  0.00  0.00    -0.216 N 
ATOM     19  H   UNL     1       4.990   5.176   4.726  0.00  0.00    +0.174 HD
BRANCH  18  20
ATOM     20  S   UNL     1       7.065   4.859   3.785  0.00  0.00    +0.072 S 
ATOM     21  O   UNL     1       7.239   5.135   2.402  0.00  0.00    -0.150 OA
ATOM     22  O   UNL     1       7.529   5.738   4.801  0.00  0.00    -0.150 OA
BRANCH  20  27
ATOM     23  C   UNL     1       9.662  -0.493   4.848  0.00  0.00    +0.044 C 
ATOM     24  C   UNL     1       9.014   0.841   4.579  0.00  0.00    -0.036 A 
ATOM     25  C   UNL     1       8.755   1.706   5.622  0.00  0.00    +0.006 A 
ATOM     26  C   UNL     1       8.165   2.933   5.376  0.00  0.00    +0.029 A 
ATOM     27  C   UNL     1       7.822   3.297   4.086  0.00  0.00    +0.109 A 
ATOM     28  C   UNL     1       8.076   2.442   3.034  0.00  0.00    +0.044 A 
ATOM     29  C   UNL     1       8.676   1.204   3.275  0.00  0.00    +0.068 A 
BRANCH  29  30
ATOM     30  C   UNL     1       8.951   0.282   2.153  0.00  0.00    +0.387 C 
ATOM     31  O   UNL     1       9.440  -0.808   2.369  0.00  0.00    -0.241 OA
ATOM     32  O   UNL     1       8.658   0.651   0.891  0.00  0.00    -0.241 OA
ENDBRANCH  29  30
ENDBRANCH  20  27
ENDBRANCH  18  20
ENDBRANCH   1  18
TORSDOF 6
