REMARK  Name = ZINC59364497
REMARK  10 active torsions:
REMARK  status: ('A' for Active; 'I' for Inactive)
REMARK    1  A    between atoms: C_1  and  C_2
REMARK    2  A    between atoms: C_2  and  C_3
REMARK    3  A    between atoms: C_4  and  C_30
REMARK    4  A    between atoms: C_5  and  C_29
REMARK    5  A    between atoms: C_8  and  C_9
REMARK    6  A    between atoms: N_11  and  N_12
REMARK    7  A    between atoms: C_13  and  C_15
REMARK    8  A    between atoms: C_18  and  S_21
REMARK    9  A    between atoms: S_21  and  N_24
REMARK   10  A    between atoms: C_30  and  C_32
REMARK                            x       y       z     vdW  Elec       q    Type
REMARK                         _______ _______ _______ _____ _____    ______ ____
ROOT
ATOM      1  N   UNL     1       5.254  -1.207   0.517  0.00  0.00    -0.230 N 
ATOM      2  C   UNL     1       6.539  -1.509   0.245  0.00  0.00    +0.260 C 
ATOM      3  O   UNL     1       6.875  -1.765  -0.895  0.00  0.00    -0.269 OA
ATOM      4  H   UNL     1       4.986  -1.002   1.427  0.00  0.00    +0.173 HD
ENDROOT
BRANCH   2   5
ATOM      5  C   UNL     1       7.540  -1.529   1.333  0.00  0.00    +0.038 A 
ATOM      6  C   UNL     1       7.157  -1.241   2.643  0.00  0.00    +0.015 A 
ATOM      7  C   UNL     1       8.096  -1.261   3.654  0.00  0.00    +0.029 A 
ATOM      8  C   UNL     1       9.416  -1.566   3.370  0.00  0.00    +0.106 A 
ATOM      9  C   UNL     1       9.802  -1.852   2.072  0.00  0.00    +0.029 A 
ATOM     10  C   UNL     1       8.872  -1.841   1.054  0.00  0.00    +0.015 A 
BRANCH   8  11
ATOM     11  S   UNL     1      10.609  -1.589   4.666  0.00  0.00    +0.061 S 
ATOM     12  O   UNL     1      11.874  -1.367   4.057  0.00  0.00    -0.153 OA
ATOM     13  O   UNL     1      10.104  -0.753   5.698  0.00  0.00    -0.153 OA
BRANCH  11  14
ATOM     14  N   UNL     1      10.640  -3.128   5.275  0.00  0.00    -0.177 NA
ATOM     15  C   UNL     1       9.803  -3.632   6.374  0.00  0.00    +0.109 C 
ATOM     16  C   UNL     1      10.196  -5.105   6.611  0.00  0.00    +0.018 C 
ATOM     17  C   UNL     1      11.626  -5.184   6.014  0.00  0.00    +0.018 C 
ATOM     18  C   UNL     1      11.508  -4.222   4.802  0.00  0.00    +0.109 C 
ENDBRANCH  11  14
ENDBRANCH   8  11
ENDBRANCH   2   5
BRANCH   1  21
ATOM     19  C   UNL     1       3.020  -0.886  -0.241  0.00  0.00    +0.277 C 
ATOM     20  O   UNL     1       2.684  -0.629   0.900  0.00  0.00    -0.267 OA
ATOM     21  N   UNL     1       4.305  -1.188  -0.513  0.00  0.00    -0.229 N 
ATOM     22  H   UNL     1       4.573  -1.392  -1.423  0.00  0.00    +0.173 HD
BRANCH  19  28
ATOM     23  C   UNL     1       0.702  -0.578  -1.180  0.00  0.00    -0.007 A 
ATOM     24  C   UNL     1       0.120  -0.668  -2.467  0.00  0.00    +0.041 A 
ATOM     25  C   UNL     1       1.133  -1.018  -3.346  0.00  0.00    +0.024 A 
ATOM     26  N   UNL     1       2.273  -1.139  -2.649  0.00  0.00    -0.354 N 
ATOM     27  H   UNL     1       3.136  -1.376  -3.022  0.00  0.00    +0.166 HD
ATOM     28  C   UNL     1       2.026  -0.866  -1.321  0.00  0.00    +0.107 A 
ATOM     29  C   UNL     1       0.980  -1.228  -4.830  0.00  0.00    +0.064 C 
BRANCH  24  30
ATOM     30  C   UNL     1      -1.288  -0.435  -2.807  0.00  0.00    +0.162 C 
ATOM     31  O   UNL     1      -1.647   0.661  -3.183  0.00  0.00    -0.292 OA
ATOM     32  C   UNL     1      -2.287  -1.556  -2.689  0.00  0.00    +0.091 C 
ENDBRANCH  24  30
BRANCH  23  34
ATOM     33  C   UNL     1       0.032   1.291   0.306  0.00  0.00    +0.009 C 
ATOM     34  C   UNL     1      -0.007  -0.225   0.102  0.00  0.00    +0.035 C 
ENDBRANCH  23  34
ENDBRANCH  19  28
ENDBRANCH   1  21
TORSDOF 7
