REMARK  Name = ZINC14026336
REMARK  9 active torsions:
REMARK  status: ('A' for Active; 'I' for Inactive)
REMARK    1  A    between atoms: C_1  and  C_2
REMARK    2  A    between atoms: C_2  and  C_3
REMARK    3  A    between atoms: C_3  and  O_4
REMARK    4  A    between atoms: O_4  and  C_5
REMARK    5  A    between atoms: C_10  and  C_11
REMARK    6  A    between atoms: N_13  and  N_14
REMARK    7  A    between atoms: N_14  and  C_15
REMARK    8  A    between atoms: C_15  and  N_17
REMARK    9  A    between atoms: C_18  and  C_20
REMARK                            x       y       z     vdW  Elec       q    Type
REMARK                         _______ _______ _______ _____ _____    ______ ____
ROOT
ATOM      1  N   UNL     1       2.934  -0.945  -5.882  0.00  0.00    -0.245 N 
ATOM      2  H   UNL     1       3.318  -1.208  -5.032  0.00  0.00    +0.172 HD
ENDROOT
BRANCH   1   5
ATOM      3  C   UNL     1       1.203   0.245  -4.763  0.00  0.00    +0.264 C 
ATOM      4  O   UNL     1       1.685  -0.085  -3.696  0.00  0.00    -0.269 OA
ATOM      5  N   UNL     1       1.779  -0.152  -5.914  0.00  0.00    -0.231 N 
ATOM      6  H   UNL     1       1.395   0.111  -6.765  0.00  0.00    +0.173 HD
BRANCH   3  12
ATOM      7  C   UNL     1      -0.616   1.496  -3.601  0.00  0.00    +0.133 A 
ATOM      8  C   UNL     1      -1.762   2.276  -3.644  0.00  0.00    +0.046 A 
ATOM      9  C   UNL     1      -2.299   2.649  -4.860  0.00  0.00    +0.004 A 
ATOM     10  C   UNL     1      -1.706   2.241  -6.043  0.00  0.00    +0.001 A 
ATOM     11  C   UNL     1      -0.570   1.461  -6.019  0.00  0.00    +0.017 A 
ATOM     12  C   UNL     1      -0.013   1.080  -4.796  0.00  0.00    +0.080 A 
BRANCH   7  13
ATOM     13  O   UNL     1      -0.084   1.132  -2.407  0.00  0.00    -0.491 OA
BRANCH  13  14
ATOM     14  C   UNL     1      -0.753   1.593  -1.232  0.00  0.00    +0.229 C 
BRANCH  14  16
ATOM     15  C   UNL     1      -0.729   1.579   1.267  0.00  0.00    +0.007 C 
ATOM     16  C   UNL     1      -0.013   1.086   0.008  0.00  0.00    +0.038 C 
ENDBRANCH  14  16
ENDBRANCH  13  14
ENDBRANCH   7  13
ENDBRANCH   3  12
ENDBRANCH   1   5
BRANCH   1  17
ATOM     17  C   UNL     1       3.510  -1.343  -7.034  0.00  0.00    +0.153 C 
ATOM     18  S   UNL     1       4.921  -2.312  -6.995  0.00  0.00    -0.017 S 
BRANCH  17  19
ATOM     19  N   UNL     1       2.976  -0.977  -8.216  0.00  0.00    -0.263 N 
ATOM     20  C   UNL     1       3.553  -1.374  -9.368  0.00  0.00    +0.251 C 
ATOM     21  O   UNL     1       4.554  -2.062  -9.340  0.00  0.00    -0.270 OA
ATOM     22  H   UNL     1       2.177  -0.428  -8.238  0.00  0.00    +0.157 HD
BRANCH  20  23
ATOM     23  C   UNL     1       2.967  -0.974 -10.664  0.00  0.00    +0.050 A 
ATOM     24  C   UNL     1       1.813  -0.188 -10.699  0.00  0.00    +0.014 A 
ATOM     25  C   UNL     1       1.275   0.187 -11.912  0.00  0.00    +0.001 A 
ATOM     26  C   UNL     1       1.869  -0.223 -13.093  0.00  0.00    +0.001 A 
ATOM     27  C   UNL     1       3.009  -1.005 -13.066  0.00  0.00    +0.015 A 
ATOM     28  C   UNL     1       3.562  -1.384 -11.859  0.00  0.00    +0.025 A 
ATOM     29  I   UNL     1       5.288  -2.570 -11.820  0.00  0.00    -0.043 I 
ENDBRANCH  20  23
ENDBRANCH  17  19
ENDBRANCH   1  17
TORSDOF 8
