REMARK  Name = ZINC12401341
REMARK  8 active torsions:
REMARK  status: ('A' for Active; 'I' for Inactive)
REMARK    1  A    between atoms: C_1  and  C_2
REMARK    2  A    between atoms: C_2  and  C_3
REMARK    3  A    between atoms: C_2  and  C_4
REMARK    4  A    between atoms: C_4  and  C_5
REMARK    5  A    between atoms: C_5  and  C_34
REMARK    6  A    between atoms: C_10  and  C_13
REMARK    7  A    between atoms: C_18  and  O_19
REMARK    8  A    between atoms: N_24  and  C_27
REMARK                            x       y       z     vdW  Elec       q    Type
REMARK                         _______ _______ _______ _____ _____    ______ ____
ROOT
ATOM      1  C   UNL     1       2.904  -0.097  -2.076  0.00  0.00    +0.048 C 
ATOM      2  C   UNL     1       4.094  -0.526  -2.960  0.00  0.00    +0.086 C 
ATOM      3  C   UNL     1       5.126  -1.133  -1.973  0.00  0.00    +0.077 C 
ATOM      4  C   UNL     1       4.470  -0.998  -0.583  0.00  0.00    -0.023 C 
ATOM      5  N   UNL     1       3.006  -0.952  -0.866  0.00  0.00    +0.396 N 
ATOM      6  C   UNL     1       5.180  -2.589  -2.375  0.00  0.00    +0.229 C 
ATOM      7  O   UNL     1       5.872  -3.435  -1.851  0.00  0.00    -0.275 OA
ATOM      8  N   UNL     1       4.343  -2.799  -3.398  0.00  0.00    -0.210 N 
ATOM      9  C   UNL     1       3.677  -1.699  -3.819  0.00  0.00    +0.229 C 
ATOM     10  O   UNL     1       2.878  -1.652  -4.729  0.00  0.00    -0.275 OA
ATOM     11  H   UNL     1       2.515  -0.530  -0.093  0.00  0.00    -0.083 HD
ATOM     12  H   UNL     1       2.644  -1.875  -1.055  0.00  0.00    -0.083 HD
ENDROOT
BRANCH   4  13
ATOM     13  C   UNL     1       4.790  -2.201   0.267  0.00  0.00    -0.016 A 
ATOM     14  C   UNL     1       3.853  -3.205   0.424  0.00  0.00    +0.025 A 
ATOM     15  C   UNL     1       4.145  -4.310   1.204  0.00  0.00    +0.043 A 
ATOM     16  C   UNL     1       5.375  -4.412   1.829  0.00  0.00    +0.043 A 
ATOM     17  C   UNL     1       6.315  -3.410   1.674  0.00  0.00    +0.084 A 
ATOM     18  C   UNL     1       6.026  -2.304   0.887  0.00  0.00    +0.137 A 
ATOM     19 CL   UNL     1       7.859  -3.539   2.459  0.00  0.00    -0.080 Cl
ATOM     20 CL   UNL     1       2.966  -5.569   1.400  0.00  0.00    -0.083 Cl
BRANCH  18  21
ATOM     21  O   UNL     1       6.950  -1.320   0.729  0.00  0.00    -0.505 OA
ATOM     22  H   UNL     1       6.896  -0.620   1.393  0.00  0.00    +0.292 HD
ENDBRANCH  18  21
ENDBRANCH   4  13
BRANCH   8  23
ATOM     23  C   UNL     1       4.174  -4.056  -3.993  0.00  0.00    +0.045 A 
ATOM     24  C   UNL     1       2.945  -4.699  -3.924  0.00  0.00    +0.024 A 
ATOM     25  C   UNL     1       2.780  -5.938  -4.512  0.00  0.00    +0.003 A 
ATOM     26  C   UNL     1       3.837  -6.539  -5.169  0.00  0.00    +0.020 A 
ATOM     27  C   UNL     1       5.063  -5.902  -5.240  0.00  0.00    +0.043 A 
ATOM     28  C   UNL     1       5.232  -4.660  -4.658  0.00  0.00    +0.044 A 
ATOM     29 CL   UNL     1       6.389  -6.661  -6.065  0.00  0.00    -0.083 Cl
ENDBRANCH   8  23
BRANCH   1  30
ATOM     30  C   UNL     1       3.023   1.358  -1.702  0.00  0.00    +0.346 C 
ATOM     31  O   UNL     1       3.260   1.673  -0.548  0.00  0.00    -0.248 OA
ATOM     32  O   UNL     1       2.883   2.220  -2.553  0.00  0.00    -0.248 OA
ENDBRANCH   1  30
BRANCH   1  33
ATOM     33  C   UNL     1       1.581  -0.353  -2.800  0.00  0.00    +0.002 C 
BRANCH  33  35
ATOM     34  C   UNL     1       0.314   1.273  -1.389  0.00  0.00    +0.007 C 
ATOM     35  C   UNL     1       0.421  -0.192  -1.816  0.00  0.00    -0.018 C 
ATOM     36  C   UNL     1      -0.883  -0.624  -2.490  0.00  0.00    +0.007 C 
ENDBRANCH  33  35
ENDBRANCH   1  33
TORSDOF 6
