REMARK  Name = ZINC04301043
REMARK  7 active torsions:
REMARK  status: ('A' for Active; 'I' for Inactive)
REMARK    1  A    between atoms: C_4  and  S_7
REMARK    2  A    between atoms: S_7  and  C_8
REMARK    3  A    between atoms: C_10  and  O_23
REMARK    4  A    between atoms: C_12  and  O_22
REMARK    5  A    between atoms: C_14  and  O_21
REMARK    6  A    between atoms: C_16  and  C_19
REMARK    7  A    between atoms: C_19  and  O_20
REMARK                            x       y       z     vdW  Elec       q    Type
REMARK                         _______ _______ _______ _____ _____    ______ ____
ROOT
ATOM      1  C   UNL     1      -0.013   1.086   0.008  0.00  0.00    +0.212 C 
ATOM      2  C   UNL     1      -0.752   1.593  -1.233  0.00  0.00    +0.185 C 
ATOM      3  C   UNL     1       0.005   1.145  -2.487  0.00  0.00    +0.177 C 
ATOM      4  C   UNL     1       1.444   1.665  -2.414  0.00  0.00    +0.176 C 
ATOM      5  C   UNL     1       2.098   1.155  -1.128  0.00  0.00    +0.176 C 
ATOM      6  O   UNL     1       1.328   1.581  -0.002  0.00  0.00    -0.355 OA
ENDROOT
BRANCH   4   7
ATOM      7  O   UNL     1       1.436   3.094  -2.412  0.00  0.00    -0.386 OA
ATOM      8  H   UNL     1       1.035   3.487  -3.200  0.00  0.00    +0.210 HD
ENDBRANCH   4   7
BRANCH   3   9
ATOM      9  O   UNL     1      -0.636   1.675  -3.649  0.00  0.00    -0.386 OA
ATOM     10  H   UNL     1      -1.553   1.386  -3.758  0.00  0.00    +0.210 HD
ENDBRANCH   3   9
BRANCH   2  11
ATOM     11  O   UNL     1      -2.075   1.053  -1.255  0.00  0.00    -0.386 OA
ATOM     12  H   UNL     1      -2.610   1.293  -0.486  0.00  0.00    +0.210 HD
ENDBRANCH   2  11
BRANCH   1  13
ATOM     13  S   UNL     1      -0.862   1.671   1.500  0.00  0.00    -0.091 S 
BRANCH  13  17
ATOM     14  C   UNL     1       1.377  -0.329   4.891  0.00  0.00    +0.000 A 
ATOM     15  C   UNL     1       0.309   0.507   5.167  0.00  0.00    +0.001 A 
ATOM     16  C   UNL     1      -0.376   1.118   4.136  0.00  0.00    +0.015 A 
ATOM     17  C   UNL     1       0.009   0.893   2.820  0.00  0.00    +0.010 A 
ATOM     18  C   UNL     1       1.078   0.049   2.546  0.00  0.00    +0.015 A 
ATOM     19  C   UNL     1       1.762  -0.555   3.583  0.00  0.00    +0.001 A 
ENDBRANCH  13  17
ENDBRANCH   1  13
BRANCH   5  20
ATOM     20  C   UNL     1       3.516   1.719  -1.018  0.00  0.00    +0.190 C 
BRANCH  20  21
ATOM     21  O   UNL     1       4.167   1.153   0.121  0.00  0.00    -0.392 OA
ATOM     22  H   UNL     1       5.073   1.467   0.253  0.00  0.00    +0.210 HD
ENDBRANCH  20  21
ENDBRANCH   5  20
TORSDOF 7
