REMARK  Name = ZINC09072499
REMARK  8 active torsions:
REMARK  status: ('A' for Active; 'I' for Inactive)
REMARK    1  A    between atoms: C_1  and  C_2
REMARK    2  A    between atoms: C_2  and  N_3
REMARK    3  A    between atoms: C_4  and  C_23
REMARK    4  A    between atoms: C_7  and  S_8
REMARK    5  A    between atoms: S_8  and  C_9
REMARK    6  A    between atoms: C_9  and  C_10
REMARK    7  A    between atoms: N_12  and  C_13
REMARK    8  A    between atoms: C_15  and  N_20
REMARK                            x       y       z     vdW  Elec       q    Type
REMARK                         _______ _______ _______ _____ _____    ______ ____
ROOT
ATOM      1  S   UNL     1      -1.092   5.268   0.588  0.00  0.00    -0.077 S 
ENDROOT
BRANCH   1   6
ATOM      2  N   UNL     1      -1.076   2.483   0.332  0.00  0.00    -0.302 N 
ATOM      3  C   UNL     1      -0.127   1.513   0.102  0.00  0.00    +0.165 A 
ATOM      4  N   UNL     1       1.027   2.126  -0.025  0.00  0.00    -0.128 NA
ATOM      5  N   UNL     1       0.868   3.394   0.113  0.00  0.00    -0.122 NA
ATOM      6  C   UNL     1      -0.398   3.668   0.337  0.00  0.00    +0.192 A 
BRANCH   3   7
ATOM      7  C   UNL     1      -0.363   0.057   0.010  0.00  0.00    +0.019 A 
ATOM      8  C   UNL     1      -1.535  -0.497   0.528  0.00  0.00    +0.013 A 
ATOM      9  C   UNL     1      -1.752  -1.856   0.435  0.00  0.00    +0.021 A 
ATOM     10  C   UNL     1      -0.806  -2.672  -0.163  0.00  0.00    +0.041 A 
ATOM     11  C   UNL     1       0.361  -2.129  -0.674  0.00  0.00    +0.021 A 
ATOM     12  C   UNL     1       0.587  -0.771  -0.591  0.00  0.00    +0.013 A 
ATOM     13 CL   UNL     1      -1.083  -4.382  -0.271  0.00  0.00    -0.084 Cl
ENDBRANCH   3   7
BRANCH   2  15
ATOM     14  C   UNL     1      -2.803   2.127   2.027  0.00  0.00    +0.027 C 
ATOM     15  C   UNL     1      -2.513   2.284   0.533  0.00  0.00    +0.122 C 
ENDBRANCH   2  15
ENDBRANCH   1   6
BRANCH   1  16
ATOM     16  C   UNL     1       0.400   6.284   0.444  0.00  0.00    +0.173 C 
BRANCH  16  17
ATOM     17  C   UNL     1       0.039   7.735   0.629  0.00  0.00    +0.228 C 
ATOM     18  O   UNL     1      -1.113   8.052   0.839  0.00  0.00    -0.275 OA
ATOM     19  N   UNL     1       0.997   8.681   0.563  0.00  0.00    -0.284 N 
ATOM     20  H   UNL     1       1.907   8.435   0.335  0.00  0.00    +0.155 HD
BRANCH  19  21
ATOM     21  C   UNL     1       0.678  10.019   0.822  0.00  0.00    +0.054 A 
ATOM     22  C   UNL     1      -0.314  10.332   1.743  0.00  0.00    +0.057 A 
ATOM     23  C   UNL     1      -0.624  11.654   1.999  0.00  0.00    +0.128 A 
ATOM     24  C   UNL     1       0.046  12.665   1.334  0.00  0.00    +0.034 A 
ATOM     25  C   UNL     1       1.030  12.357   0.413  0.00  0.00    +0.024 A 
ATOM     26  C   UNL     1       1.348  11.037   0.155  0.00  0.00    +0.062 A 
ATOM     27 CL   UNL     1       2.584  10.651  -1.001  0.00  0.00    -0.082 Cl
BRANCH  23  28
ATOM     28  N   UNL     1      -1.677  11.988   2.984  0.00  0.00    +0.056 N 
ATOM     29  O   UNL     1      -1.954  13.153   3.208  0.00  0.00    -0.126 OA
ATOM     30  O   UNL     1      -2.267  11.098   3.570  0.00  0.00    -0.126 OA
ENDBRANCH  23  28
ENDBRANCH  19  21
ENDBRANCH  16  17
ENDBRANCH   1  16
TORSDOF 7
