REMARK  Name = ZINC10039827
REMARK  11 active torsions:
REMARK  status: ('A' for Active; 'I' for Inactive)
REMARK    1  A    between atoms: C_1  and  C_2
REMARK    2  A    between atoms: C_2  and  C_3
REMARK    3  A    between atoms: C_2  and  C_4
REMARK    4  A    between atoms: C_4  and  C_6
REMARK    5  A    between atoms: C_4  and  N_22
REMARK    6  A    between atoms: N_8  and  N_9
REMARK    7  A    between atoms: C_10  and  C_11
REMARK    8  A    between atoms: C_16  and  O_17
REMARK    9  A    between atoms: O_17  and  C_18
REMARK   10  A    between atoms: C_18  and  C_19
REMARK   11  A    between atoms: C_23  and  C_25
REMARK                            x       y       z     vdW  Elec       q    Type
REMARK                         _______ _______ _______ _____ _____    ______ ____
ROOT
ATOM      1  C   UNL     1       3.870  -5.416   0.602  0.00  0.00    +0.253 C 
ATOM      2  O   UNL     1       4.528  -4.683  -0.106  0.00  0.00    -0.272 OA
ATOM      3  N   UNL     1       3.910  -6.750   0.414  0.00  0.00    -0.205 N 
ATOM      4  H   UNL     1       3.322  -7.329   0.924  0.00  0.00    +0.177 HD
ENDROOT
BRANCH   3   5
ATOM      5  N   UNL     1       4.802  -7.300  -0.517  0.00  0.00    -0.188 NA
ATOM      6  C   UNL     1       4.763  -8.570  -0.780  0.00  0.00    +0.142 C 
BRANCH   6   7
ATOM      7  C   UNL     1       3.652  -9.395  -0.272  0.00  0.00    +0.037 A 
ATOM      8  C   UNL     1       2.415  -8.810   0.009  0.00  0.00    +0.028 A 
ATOM      9  C   UNL     1       1.380  -9.588   0.485  0.00  0.00    +0.019 A 
ATOM     10  C   UNL     1       1.562 -10.947   0.686  0.00  0.00    +0.019 A 
ATOM     11  C   UNL     1       2.782 -11.536   0.411  0.00  0.00    +0.047 A 
ATOM     12  C   UNL     1       3.830 -10.770  -0.072  0.00  0.00    +0.131 A 
ATOM     13 BR   UNL     1      -0.295  -8.797   0.865  0.00  0.00    -0.050 Br
BRANCH  12  14
ATOM     14  O   UNL     1       5.028 -11.350  -0.347  0.00  0.00    -0.479 OA
BRANCH  14  15
ATOM     15  C   UNL     1       5.105 -12.771  -0.219  0.00  0.00    +0.317 C 
BRANCH  15  16
ATOM     16  C   UNL     1       6.488 -13.211  -0.465  0.00  0.00    -0.065 C 
ATOM     17  C   UNL     1       7.591 -13.562  -0.661  0.00  0.00    +0.007 C 
ENDBRANCH  15  16
ENDBRANCH  14  15
ENDBRANCH  12  14
ENDBRANCH   6   7
ENDBRANCH   3   5
BRANCH   1  18
ATOM     18  C   UNL     1       3.006  -4.834   1.691  0.00  0.00    +0.163 C 
BRANCH  18  19
ATOM     19  N   UNL     1       2.659  -3.451   1.353  0.00  0.00    -0.300 N 
ATOM     20  C   UNL     1       1.435  -2.971   1.651  0.00  0.00    +0.245 C 
ATOM     21  O   UNL     1       0.587  -3.712   2.108  0.00  0.00    -0.270 OA
ATOM     22  H   UNL     1       3.309  -2.881   0.913  0.00  0.00    +0.150 HD
BRANCH  20  23
ATOM     23  C   UNL     1       1.125  -1.544   1.424  0.00  0.00    +0.037 A 
ATOM     24  C   UNL     1      -0.141  -1.044   1.732  0.00  0.00    +0.014 A 
ATOM     25  C   UNL     1      -0.424   0.288   1.517  0.00  0.00    +0.021 A 
ATOM     26  C   UNL     1       0.544   1.129   0.996  0.00  0.00    +0.041 A 
ATOM     27  C   UNL     1       1.802   0.639   0.688  0.00  0.00    +0.021 A 
ATOM     28  C   UNL     1       2.098  -0.691   0.898  0.00  0.00    +0.014 A 
ATOM     29 CL   UNL     1       0.180   2.805   0.727  0.00  0.00    -0.084 Cl
ENDBRANCH  20  23
ENDBRANCH  18  19
BRANCH  18  31
ATOM     30  C   UNL     1       2.938  -4.168   4.098  0.00  0.00    +0.009 C 
ATOM     31  C   UNL     1       3.770  -4.858   3.016  0.00  0.00    +0.012 C 
ATOM     32  C   UNL     1       4.036  -6.308   3.425  0.00  0.00    +0.009 C 
ENDBRANCH  18  31
ENDBRANCH   1  18
TORSDOF 9
