REMARK  Name = ZINC12475218
REMARK  10 active torsions:
REMARK  status: ('A' for Active; 'I' for Inactive)
REMARK    1  A    between atoms: C_1  and  N_2
REMARK    2  A    between atoms: N_2  and  C_3
REMARK    3  A    between atoms: N_2  and  C_4
REMARK    4  A    between atoms: C_7  and  C_10
REMARK    5  A    between atoms: C_10  and  C_12
REMARK    6  A    between atoms: C_10  and  N_21
REMARK    7  A    between atoms: N_14  and  C_15
REMARK    8  A    between atoms: N_21  and  C_22
REMARK    9  A    between atoms: C_27  and  C_29
REMARK   10  A    between atoms: C_29  and  C_30
REMARK                            x       y       z     vdW  Elec       q    Type
REMARK                         _______ _______ _______ _____ _____    ______ ____
ROOT
ATOM      1  C   UNL     1       2.404   1.062   0.407  0.00  0.00    +0.192 C 
ENDROOT
BRANCH   1   5
ATOM      2  C   UNL     1       5.737   1.914  -2.128  0.00  0.00    +0.029 A 
ATOM      3  C   UNL     1       4.794   0.969  -2.512  0.00  0.00    +0.023 A 
ATOM      4  C   UNL     1       3.718   0.696  -1.690  0.00  0.00    +0.008 A 
ATOM      5  C   UNL     1       3.579   1.362  -0.486  0.00  0.00    -0.018 A 
ATOM      6  C   UNL     1       4.513   2.307  -0.104  0.00  0.00    +0.008 A 
ATOM      7  C   UNL     1       5.595   2.581  -0.918  0.00  0.00    +0.023 A 
BRANCH   2   9
ATOM      8  C   UNL     1       6.907   1.587  -4.289  0.00  0.00    +0.129 C 
ATOM      9  N   UNL     1       6.826   2.192  -2.957  0.00  0.00    -0.336 N 
ATOM     10  C   UNL     1       7.888   3.090  -2.495  0.00  0.00    +0.129 C 
ENDBRANCH   2   9
ENDBRANCH   1   5
BRANCH   1  11
ATOM     11  C   UNL     1       2.765   1.380   1.836  0.00  0.00    +0.238 C 
ATOM     12  O   UNL     1       2.128   2.208   2.452  0.00  0.00    -0.273 OA
ATOM     13  N   UNL     1       3.795   0.744   2.428  0.00  0.00    -0.311 N 
ATOM     14  H   UNL     1       4.304   0.082   1.935  0.00  0.00    +0.149 HD
BRANCH  13  15
ATOM     15  C   UNL     1       4.146   1.053   3.816  0.00  0.00    +0.073 C 
ATOM     16  C   UNL     1       5.070   2.272   3.849  0.00  0.00    +0.022 C 
ATOM     17  C   UNL     1       5.437   2.595   5.299  0.00  0.00    +0.002 C 
ATOM     18  C   UNL     1       6.152   1.395   5.924  0.00  0.00    +0.000 C 
ATOM     19  C   UNL     1       5.228   0.176   5.890  0.00  0.00    +0.002 C 
ATOM     20  C   UNL     1       4.862  -0.147   4.441  0.00  0.00    +0.022 C 
ENDBRANCH  13  15
ENDBRANCH   1  11
BRANCH   1  21
ATOM     21  N   UNL     1       1.258   1.880  -0.000  0.00  0.00    -0.283 N 
ATOM     22  C   UNL     1       0.080   1.293  -0.288  0.00  0.00    +0.221 C 
ATOM     23  O   UNL     1      -0.017   0.084  -0.267  0.00  0.00    -0.275 OA
BRANCH  21  24
ATOM     24  C   UNL     1       1.395   3.335  -0.096  0.00  0.00    +0.077 C 
ATOM     25  C   UNL     1       0.493   4.020   0.952  0.00  0.00    +0.022 C 
ATOM     26  C   UNL     1      -0.034   5.285   0.229  0.00  0.00    +0.002 C 
ATOM     27  C   UNL     1      -0.263   4.783  -1.218  0.00  0.00    +0.002 C 
ATOM     28  C   UNL     1       0.914   3.820  -1.475  0.00  0.00    +0.022 C 
ENDBRANCH  21  24
BRANCH  22  29
ATOM     29  C   UNL     1      -1.117   2.138  -0.641  0.00  0.00    +0.133 C 
BRANCH  29  30
ATOM     30  C   UNL     1      -2.330   1.256  -0.785  0.00  0.00    -0.014 A 
ATOM     31  C   UNL     1      -2.807   0.736  -1.927  0.00  0.00    +0.087 A 
ATOM     32  N   UNL     1      -3.923  -0.013  -1.667  0.00  0.00    -0.360 N 
ATOM     33  H   UNL     1      -4.443  -0.488  -2.334  0.00  0.00    +0.165 HD
ATOM     34  C   UNL     1      -4.198   0.009  -0.318  0.00  0.00    +0.047 A 
ATOM     35  C   UNL     1      -3.209   0.800   0.294  0.00  0.00    +0.003 A 
ATOM     36  C   UNL     1      -3.231   0.997   1.676  0.00  0.00    +0.010 A 
ATOM     37  C   UNL     1      -4.214   0.417   2.428  0.00  0.00    +0.001 A 
ATOM     38  C   UNL     1      -5.190  -0.367   1.829  0.00  0.00    +0.002 A 
ATOM     39  C   UNL     1      -5.191  -0.569   0.466  0.00  0.00    +0.026 A 
ENDBRANCH  29  30
ENDBRANCH  22  29
ENDBRANCH   1  21
TORSDOF 8
