REMARK  Name = ZINC66536742
REMARK  7 active torsions:
REMARK  status: ('A' for Active; 'I' for Inactive)
REMARK    1  A    between atoms: C_1  and  C_2
REMARK    2  A    between atoms: C_2  and  N_3
REMARK    3  A    between atoms: N_6  and  C_7
REMARK    4  A    between atoms: C_10  and  O_13
REMARK    5  A    between atoms: O_13  and  C_14
REMARK    6  A    between atoms: C_14  and  C_16
REMARK    7  A    between atoms: C_17  and  C_18
REMARK                            x       y       z     vdW  Elec       q    Type
REMARK                         _______ _______ _______ _____ _____    ______ ____
ROOT
ATOM      1  O   UNL     1      -6.512  -3.209   2.475  0.00  0.00    -0.458 OA
ENDROOT
BRANCH   1   5
ATOM      2  C   UNL     1      -3.113  -3.750   0.012  0.00  0.00    +0.075 C 
ATOM      3  C   UNL     1      -3.062  -4.281   1.445  0.00  0.00    +0.026 C 
ATOM      4  C   UNL     1      -4.132  -3.583   2.287  0.00  0.00    +0.046 C 
ATOM      5  C   UNL     1      -5.513  -3.861   1.689  0.00  0.00    +0.177 C 
ATOM      6  C   UNL     1      -5.564  -3.329   0.255  0.00  0.00    +0.046 C 
ATOM      7  C   UNL     1      -4.494  -4.028  -0.586  0.00  0.00    +0.026 C 
BRANCH   2  11
ATOM      8  N   UNL     1      -1.372  -0.511   0.012  0.00  0.00    -0.300 N 
ATOM      9  C   UNL     1      -1.601  -1.839   0.007  0.00  0.00    +0.300 C 
ATOM     10  O   UNL     1      -0.666  -2.617  -0.006  0.00  0.00    -0.253 OA
ATOM     11  N   UNL     1      -2.865  -2.306   0.017  0.00  0.00    -0.297 N 
ATOM     12  H   UNL     1      -2.118   0.109   0.023  0.00  0.00    +0.150 HD
ATOM     13  H   UNL     1      -3.611  -1.686   0.028  0.00  0.00    +0.151 HD
BRANCH   8  15
ATOM     14  C   UNL     1      -0.019   1.526   0.010  0.00  0.00    +0.024 C 
ATOM     15  C   UNL     1       0.002  -0.004   0.002  0.00  0.00    +0.102 C 
ENDBRANCH   8  15
ENDBRANCH   2  11
ENDBRANCH   1   5
BRANCH   1  16
ATOM     16  C   UNL     1      -7.730  -3.789   2.521  0.00  0.00    +0.332 C 
ATOM     17  O   UNL     1      -7.936  -4.820   1.910  0.00  0.00    -0.246 OA
BRANCH  16  18
ATOM     18  C   UNL     1      -8.769  -3.196   3.282  0.00  0.00    +0.092 C 
ATOM     19  C   UNL     1      -9.988  -3.776   3.328  0.00  0.00    +0.015 C 
BRANCH  19  20
ATOM     20  C   UNL     1     -11.065  -3.161   4.117  0.00  0.00    -0.020 A 
ATOM     21  C   UNL     1     -12.327  -3.764   4.171  0.00  0.00    +0.057 A 
ATOM     22  C   UNL     1     -13.336  -3.183   4.913  0.00  0.00    +0.168 A 
ATOM     23  C   UNL     1     -13.097  -1.997   5.609  0.00  0.00    +0.184 A 
ATOM     24  C   UNL     1     -11.844  -1.398   5.556  0.00  0.00    +0.087 A 
ATOM     25  C   UNL     1     -10.830  -1.975   4.820  0.00  0.00    +0.031 A 
ATOM     26 CL   UNL     1     -11.553   0.078   6.422  0.00  0.00    -0.080 Cl
ATOM     27  O   UNL     1     -14.242  -1.634   6.256  0.00  0.00    -0.451 OA
ATOM     28  C   UNL     1     -15.296  -2.382   5.623  0.00  0.00    +0.466 C 
ATOM     29  O   UNL     1     -14.631  -3.560   5.128  0.00  0.00    -0.453 OA
ENDBRANCH  19  20
ENDBRANCH  16  18
ENDBRANCH   1  16
TORSDOF 6
