REMARK  Name = ZINC36586735
REMARK  15 active torsions:
REMARK  status: ('A' for Active; 'I' for Inactive)
REMARK    1  A    between atoms: C_1  and  C_2
REMARK    2  A    between atoms: C_2  and  C_3
REMARK    3  A    between atoms: C_3  and  C_4
REMARK    4  A    between atoms: C_3  and  C_6
REMARK    5  A    between atoms: C_4  and  C_5
REMARK    6  A    between atoms: C_6  and  C_8
REMARK    7  A    between atoms: C_6  and  N_17
REMARK    8  A    between atoms: N_10  and  C_11
REMARK    9  A    between atoms: N_17  and  C_28
REMARK   10  A    between atoms: C_18  and  C_20
REMARK   11  A    between atoms: C_21  and  O_27
REMARK   12  A    between atoms: C_25  and  O_26
REMARK   13  A    between atoms: C_28  and  C_29
REMARK   14  A    between atoms: C_28  and  C_30
REMARK   15  A    between atoms: C_28  and  C_31
REMARK                            x       y       z     vdW  Elec       q    Type
REMARK                         _______ _______ _______ _____ _____    ______ ____
ROOT
ATOM      1  N   UNL     1       0.180  -0.976  -3.124  0.00  0.00    -0.280 N 
ATOM      2  C   UNL     1      -0.693  -1.603  -3.937  0.00  0.00    +0.255 C 
ATOM      3  O   UNL     1      -1.800  -1.897  -3.528  0.00  0.00    -0.270 OA
ENDROOT
BRANCH   2   4
ATOM      4  C   UNL     1      -0.307  -1.931  -5.319  0.00  0.00    +0.119 A 
ATOM      5  C   UNL     1       0.323  -3.151  -5.606  0.00  0.00    +0.133 A 
ATOM      6  C   UNL     1       0.681  -3.449  -6.911  0.00  0.00    +0.046 A 
ATOM      7  C   UNL     1       0.419  -2.550  -7.928  0.00  0.00    +0.007 A 
ATOM      8  C   UNL     1      -0.201  -1.345  -7.656  0.00  0.00    +0.046 A 
ATOM      9  C   UNL     1      -0.573  -1.028  -6.359  0.00  0.00    +0.133 A 
BRANCH   9  10
ATOM     10  O   UNL     1      -1.187   0.152  -6.096  0.00  0.00    -0.506 OA
ATOM     11  H   UNL     1      -0.585   0.854  -5.811  0.00  0.00    +0.292 HD
ENDBRANCH   9  10
BRANCH   5  12
ATOM     12  O   UNL     1       0.581  -4.035  -4.610  0.00  0.00    -0.506 OA
ATOM     13  H   UNL     1      -0.133  -4.668  -4.451  0.00  0.00    +0.292 HD
ENDBRANCH   5  12
ENDBRANCH   2   4
BRANCH   1  14
ATOM     14  C   UNL     1       1.492  -0.569  -3.633  0.00  0.00    +0.030 C 
ATOM     15  C   UNL     1       2.516  -1.668  -3.342  0.00  0.00    +0.031 C 
ATOM     16  C   UNL     1       1.405  -0.341  -5.144  0.00  0.00    +0.031 C 
ATOM     17  C   UNL     1       1.927   0.727  -2.946  0.00  0.00    +0.031 C 
ENDBRANCH   1  14
BRANCH   1  18
ATOM     18  C   UNL     1      -0.182  -0.702  -1.731  0.00  0.00    +0.166 C 
BRANCH  18  19
ATOM     19  C   UNL     1      -0.190   0.786  -1.498  0.00  0.00    +0.234 C 
ATOM     20  O   UNL     1      -0.089   1.548  -2.436  0.00  0.00    -0.274 OA
ATOM     21  N   UNL     1      -0.311   1.272  -0.246  0.00  0.00    -0.311 N 
ATOM     22  H   UNL     1      -0.308   0.666   0.511  0.00  0.00    +0.149 HD
BRANCH  21  23
ATOM     23  C   UNL     1      -0.446   2.714  -0.030  0.00  0.00    +0.073 C 
ATOM     24  C   UNL     1       0.942   3.356   0.012  0.00  0.00    +0.022 C 
ATOM     25  C   UNL     1       0.800   4.863   0.238  0.00  0.00    +0.002 C 
ATOM     26  C   UNL     1       0.082   5.114   1.565  0.00  0.00    +0.000 C 
ATOM     27  C   UNL     1      -1.306   4.472   1.524  0.00  0.00    +0.002 C 
ATOM     28  C   UNL     1      -1.165   2.966   1.298  0.00  0.00    +0.022 C 
ENDBRANCH  21  23
ENDBRANCH  18  19
BRANCH  18  29
ATOM     29  C   UNL     1       0.840  -1.359  -0.800  0.00  0.00    +0.018 C 
BRANCH  29  31
ATOM     30  C   UNL     1      -0.345  -3.551  -0.970  0.00  0.00    +0.004 C 
ATOM     31  C   UNL     1       0.992  -2.836  -1.169  0.00  0.00    +0.002 C 
ENDBRANCH  29  31
BRANCH  29  32
ATOM     32  C   UNL     1       2.190  -0.654  -0.947  0.00  0.00    +0.002 C 
ATOM     33  C   UNL     1       2.105   0.745  -0.336  0.00  0.00    +0.004 C 
ENDBRANCH  29  32
ENDBRANCH  18  29
ENDBRANCH   1  18
TORSDOF 10
