REMARK  Name = ZINC02674441
REMARK  7 active torsions:
REMARK  status: ('A' for Active; 'I' for Inactive)
REMARK    1  A    between atoms: C_1  and  C_2
REMARK    2  A    between atoms: C_2  and  C_3
REMARK    3  A    between atoms: C_3  and  C_4
REMARK    4  A    between atoms: C_4  and  C_6
REMARK    5  A    between atoms: C_4  and  O_22
REMARK    6  A    between atoms: N_8  and  N_9
REMARK    7  A    between atoms: O_22  and  C_23
REMARK                            x       y       z     vdW  Elec       q    Type
REMARK                         _______ _______ _______ _____ _____    ______ ____
ROOT
ATOM      1  C   UNL     1       0.955  -2.294  -2.466  0.00  0.00    +0.273 C 
ATOM      2  O   UNL     1       1.850  -3.106  -2.369  0.00  0.00    -0.270 OA
ATOM      3  N   UNL     1       0.402  -2.041  -3.669  0.00  0.00    -0.203 N 
ATOM      4  H   UNL     1      -0.314  -1.391  -3.747  0.00  0.00    +0.177 HD
ENDROOT
BRANCH   3   5
ATOM      5  N   UNL     1       0.863  -2.716  -4.808  0.00  0.00    -0.174 NA
ATOM      6  C   UNL     1       0.403  -2.392  -5.992  0.00  0.00    +0.153 C 
ATOM      7  C   UNL     1      -0.480  -1.254  -6.337  0.00  0.00    +0.030 A 
ATOM      8  C   UNL     1      -1.065  -0.241  -5.585  0.00  0.00    +0.027 A 
ATOM      9  C   UNL     1      -1.861   0.702  -6.206  0.00  0.00    +0.020 A 
ATOM     10  C   UNL     1      -2.076   0.636  -7.574  0.00  0.00    +0.032 A 
ATOM     11  C   UNL     1      -1.500  -0.367  -8.328  0.00  0.00    +0.041 A 
ATOM     12  C   UNL     1      -0.694  -1.324  -7.719  0.00  0.00    +0.057 A 
ATOM     13  N   UNL     1      -0.007  -2.418  -8.236  0.00  0.00    -0.279 N 
ATOM     14  C   UNL     1       0.659  -3.079  -7.274  0.00  0.00    +0.269 C 
ATOM     15  O   UNL     1       1.348  -4.070  -7.431  0.00  0.00    -0.268 OA
ATOM     16 BR   UNL     1      -1.806  -0.440 -10.193  0.00  0.00    -0.048 Br
ATOM     17 BR   UNL     1      -2.659   2.082  -5.190  0.00  0.00    -0.050 Br
ATOM     18  H   UNL     1      -0.006  -2.669  -9.173  0.00  0.00    +0.155 HD
ENDBRANCH   3   5
BRANCH   1  19
ATOM     19  C   UNL     1       0.459  -1.568  -1.242  0.00  0.00    +0.260 C 
BRANCH  19  20
ATOM     20  C   UNL     1       0.767  -0.075  -1.375  0.00  0.00    +0.054 C 
BRANCH  20  22
ATOM     21  C   UNL     1       0.462   2.171  -0.325  0.00  0.00    +0.004 C 
ATOM     22  C   UNL     1       0.155   0.678  -0.192  0.00  0.00    +0.001 C 
ENDBRANCH  20  22
ENDBRANCH  19  20
BRANCH  19  23
ATOM     23  O   UNL     1       1.113  -2.088  -0.083  0.00  0.00    -0.480 OA
BRANCH  23  24
ATOM     24  C   UNL     1       0.386  -2.144   1.064  0.00  0.00    +0.122 A 
ATOM     25  C   UNL     1      -0.941  -1.739   1.065  0.00  0.00    +0.045 A 
ATOM     26  C   UNL     1      -1.679  -1.797   2.231  0.00  0.00    +0.004 A 
ATOM     27  C   UNL     1      -1.096  -2.257   3.397  0.00  0.00    +0.000 A 
ATOM     28  C   UNL     1       0.227  -2.660   3.399  0.00  0.00    +0.004 A 
ATOM     29  C   UNL     1       0.967  -2.610   2.234  0.00  0.00    +0.045 A 
ENDBRANCH  23  24
ENDBRANCH  19  23
ENDBRANCH   1  19
TORSDOF 6
