REMARK  Name = ZINC08768710
REMARK  7 active torsions:
REMARK  status: ('A' for Active; 'I' for Inactive)
REMARK    1  A    between atoms: C_1  and  C_2
REMARK    2  A    between atoms: C_2  and  C_3
REMARK    3  A    between atoms: C_6  and  N_9
REMARK    4  A    between atoms: C_13  and  C_14
REMARK    5  A    between atoms: C_17  and  O_21
REMARK    6  A    between atoms: C_18  and  O_20
REMARK    7  A    between atoms: C_22  and  O_26
REMARK                            x       y       z     vdW  Elec       q    Type
REMARK                         _______ _______ _______ _____ _____    ______ ____
ROOT
ATOM      1  N   UNL     1       0.318   1.767  -1.482  0.00  0.00    -0.188 N 
ATOM      2  C   UNL     1       1.483   2.347  -1.121  0.00  0.00    +0.263 C 
ATOM      3  O   UNL     1       2.551   1.825  -1.380  0.00  0.00    -0.269 OA
ATOM      4  C   UNL     1       1.416   3.635  -0.403  0.00  0.00    +0.097 C 
ATOM      5  C   UNL     1       2.563   4.298   0.003  0.00  0.00    +0.026 C 
ATOM      6  C   UNL     1       0.077   4.183  -0.138  0.00  0.00    +0.218 C 
ATOM      7  N   UNL     1      -0.977   3.500  -0.552  0.00  0.00    -0.127 NA
ATOM      8  C   UNL     1      -0.859   2.344  -1.202  0.00  0.00    +0.340 C 
ATOM      9  O   UNL     1      -1.878   1.777  -1.556  0.00  0.00    -0.250 OA
ENDROOT
BRANCH   1  13
ATOM     10  C   UNL     1       0.383  -1.871  -3.517  0.00  0.00    -0.048 A 
ATOM     11  C   UNL     1       0.882  -0.732  -4.122  0.00  0.00    +0.005 A 
ATOM     12  C   UNL     1       0.862   0.475  -3.451  0.00  0.00    +0.024 A 
ATOM     13  C   UNL     1       0.340   0.544  -2.166  0.00  0.00    +0.046 A 
ATOM     14  C   UNL     1      -0.155  -0.602  -1.558  0.00  0.00    +0.024 A 
ATOM     15  C   UNL     1      -0.138  -1.805  -2.237  0.00  0.00    +0.005 A 
BRANCH  10  17
ATOM     16  C   UNL     1       1.720  -3.912  -3.955  0.00  0.00    +0.009 C 
ATOM     17  C   UNL     1       0.407  -3.186  -4.252  0.00  0.00    +0.032 C 
ENDBRANCH  10  17
ENDBRANCH   1  13
BRANCH   5  18
ATOM     18  C   UNL     1       3.862   3.633  -0.085  0.00  0.00    -0.020 A 
ATOM     19  C   UNL     1       4.970   4.316  -0.610  0.00  0.00    +0.012 A 
ATOM     20  C   UNL     1       6.182   3.694  -0.693  0.00  0.00    +0.050 A 
ATOM     21  C   UNL     1       6.328   2.381  -0.257  0.00  0.00    +0.158 A 
ATOM     22  C   UNL     1       5.235   1.688   0.268  0.00  0.00    +0.159 A 
ATOM     23  C   UNL     1       4.007   2.309   0.360  0.00  0.00    +0.057 A 
BRANCH  22  24
ATOM     24  O   UNL     1       5.383   0.405   0.692  0.00  0.00    -0.503 OA
ATOM     25  H   UNL     1       5.630   0.325   1.623  0.00  0.00    +0.292 HD
ENDBRANCH  22  24
BRANCH  21  26
ATOM     26  O   UNL     1       7.537   1.772  -0.343  0.00  0.00    -0.503 OA
ATOM     27  H   UNL     1       8.092   1.886   0.441  0.00  0.00    +0.292 HD
ENDBRANCH  21  26
ENDBRANCH   5  18
BRANCH   6  28
ATOM     28  O   UNL     1      -0.073   5.355   0.514  0.00  0.00    -0.493 OA
ATOM     29  H   UNL     1      -0.994   5.623   0.635  0.00  0.00    +0.294 HD
ENDBRANCH   6  28
TORSDOF 6
