REMARK  Name = ZINC63570051
REMARK  8 active torsions:
REMARK  status: ('A' for Active; 'I' for Inactive)
REMARK    1  A    between atoms: C_1  and  O_2
REMARK    2  A    between atoms: O_2  and  C_3
REMARK    3  A    between atoms: C_9  and  C_12
REMARK    4  A    between atoms: C_12  and  C_13
REMARK    5  A    between atoms: C_13  and  N_14
REMARK    6  A    between atoms: C_15  and  C_17
REMARK    7  A    between atoms: N_20  and  C_29
REMARK    8  A    between atoms: C_21  and  C_23
REMARK                            x       y       z     vdW  Elec       q    Type
REMARK                         _______ _______ _______ _____ _____    ______ ____
ROOT
ATOM      1  C   UNL     1       2.326  -8.652  -1.627  0.00  0.00    +0.051 C 
ATOM      2  C   UNL     1       2.959  -9.410  -2.541  0.00  0.00    +0.098 C 
ATOM      3  N   UNL     1       2.156 -10.396  -3.019  0.00  0.00    -0.270 N 
ATOM      4  N   UNL     1       0.890 -10.344  -2.422  0.00  0.00    -0.246 N 
ATOM      5  C   UNL     1       0.928  -9.213  -1.480  0.00  0.00    +0.133 C 
ATOM      6  H   UNL     1       2.423 -11.049  -3.685  0.00  0.00    +0.169 HD
ENDROOT
BRANCH   5   7
ATOM      7  C   UNL     1       0.695  -9.698  -0.048  0.00  0.00    +0.012 C 
ATOM      8  C   UNL     1       0.720  -8.502   0.909  0.00  0.00    -0.014 C 
ATOM      9  C   UNL     1       0.565  -9.002   2.346  0.00  0.00    -0.082 C 
ATOM     10  N   UNL     1       1.668  -9.914   2.672  0.00  0.00    +0.379 N 
ATOM     11  C   UNL     1       1.607 -11.098   1.807  0.00  0.00    -0.082 C 
ATOM     12  C   UNL     1       1.802 -10.679   0.348  0.00  0.00    -0.014 C 
ATOM     13  H   UNL     1       2.547  -9.441   2.532  0.00  0.00    -0.086 HD
ATOM     14  H   UNL     1       1.592 -10.200   3.637  0.00  0.00    -0.086 HD
ENDBRANCH   5   7
BRANCH   4  15
ATOM     15  C   UNL     1      -0.190 -11.197  -2.667  0.00  0.00    +0.048 A 
ATOM     16  C   UNL     1      -1.436 -10.917  -2.120  0.00  0.00    +0.026 A 
ATOM     17  C   UNL     1      -2.501 -11.761  -2.364  0.00  0.00    +0.022 A 
ATOM     18  C   UNL     1      -2.329 -12.885  -3.153  0.00  0.00    +0.041 A 
ATOM     19  C   UNL     1      -1.089 -13.166  -3.699  0.00  0.00    +0.022 A 
ATOM     20  C   UNL     1      -0.021 -12.322  -3.463  0.00  0.00    +0.026 A 
ATOM     21 CL   UNL     1      -3.670 -13.944  -3.457  0.00  0.00    -0.084 Cl
ENDBRANCH   4  15
BRANCH   1  23
ATOM     22  N   UNL     1       2.049  -6.692  -0.283  0.00  0.00    -0.311 N 
ATOM     23  C   UNL     1       2.866  -7.545  -0.932  0.00  0.00    +0.243 C 
ATOM     24  O   UNL     1       4.070  -7.362  -0.920  0.00  0.00    -0.270 OA
ATOM     25  H   UNL     1       1.087  -6.796  -0.352  0.00  0.00    +0.149 HD
BRANCH  22  26
ATOM     26  C   UNL     1       2.613  -5.609   0.527  0.00  0.00    +0.109 C 
BRANCH  26  27
ATOM     27  C   UNL     1       1.478  -4.794   1.151  0.00  0.00    +0.052 C 
BRANCH  27  34
ATOM     28  C   UNL     1       2.372  -0.384   0.233  0.00  0.00    +0.121 A 
ATOM     29  C   UNL     1       2.925   0.335   1.308  0.00  0.00    +0.047 A 
ATOM     30  C   UNL     1       3.171  -0.229   2.509  0.00  0.00    +0.029 A 
ATOM     31  C   UNL     1       2.858  -1.645   2.726  0.00  0.00    +0.043 A 
ATOM     32  N   UNL     1       2.996  -2.423   3.772  0.00  0.00    -0.380 N 
ATOM     33  C   UNL     1       2.515  -3.764   3.423  0.00  0.00    +0.144 C 
ATOM     34  C   UNL     1       2.058  -3.680   1.983  0.00  0.00    -0.040 C 
ATOM     35  C   UNL     1       2.276  -2.404   1.595  0.00  0.00    +0.002 A 
ATOM     36  C   UNL     1       2.043  -1.694   0.332  0.00  0.00    +0.055 A 
ATOM     37  H   UNL     1       3.355  -2.156   4.632  0.00  0.00    +0.160 HD
BRANCH  28  39
ATOM     38  C   UNL     1       2.517   1.641  -1.005  0.00  0.00    +0.277 C 
ATOM     39  O   UNL     1       2.155   0.260  -0.944  0.00  0.00    -0.495 OA
ENDBRANCH  28  39
ENDBRANCH  27  34
ENDBRANCH  26  27
ENDBRANCH  22  26
ENDBRANCH   1  23
TORSDOF 7
