REMARK  Name = ZINC09041044
REMARK  13 active torsions:
REMARK  status: ('A' for Active; 'I' for Inactive)
REMARK    1  A    between atoms: C_1  and  C_2
REMARK    2  A    between atoms: C_2  and  C_3
REMARK    3  A    between atoms: C_3  and  C_4
REMARK    4  A    between atoms: C_4  and  S_5
REMARK    5  A    between atoms: S_5  and  C_6
REMARK    6  A    between atoms: C_6  and  S_28
REMARK    7  A    between atoms: C_7  and  C_26
REMARK    8  A    between atoms: C_13  and  C_20
REMARK    9  A    between atoms: C_15  and  C_18
REMARK   10  A    between atoms: S_28  and  C_29
REMARK   11  A    between atoms: C_29  and  C_30
REMARK   12  A    between atoms: C_30  and  C_31
REMARK   13  A    between atoms: C_31  and  C_32
REMARK                            x       y       z     vdW  Elec       q    Type
REMARK                         _______ _______ _______ _____ _____    ______ ____
ROOT
ATOM      1  C   UNL     1       4.392   1.956  -3.156  0.00  0.00    +0.157 C 
ATOM      2  C   UNL     1       3.465   2.374  -1.978  0.00  0.00    +0.148 C 
ATOM      3  C   UNL     1       4.286   3.199  -1.013  0.00  0.00    -0.029 C 
ATOM      4  C   UNL     1       4.530   2.863   0.242  0.00  0.00    -0.011 C 
ATOM      5  C   UNL     1       5.383   3.897   0.929  0.00  0.00    +0.049 C 
ATOM      6  C   UNL     1       5.286   5.149   0.027  0.00  0.00    +0.010 C 
ATOM      7  C   UNL     1       4.946   4.519  -1.343  0.00  0.00    +0.034 C 
ATOM      8  C   UNL     1       2.923   1.051   0.119  0.00  0.00    +0.113 C 
ATOM      9  C   UNL     1       3.193   0.976  -1.375  0.00  0.00    +0.156 C 
ATOM     10  C   UNL     1       4.458   0.203  -1.667  0.00  0.00    +0.092 C 
ATOM     11  N   UNL     1       4.862  -0.921  -0.996  0.00  0.00    -0.347 N 
ATOM     12  H   UNL     1       4.319  -1.276  -0.274  0.00  0.00    +0.143 HD
ATOM     13  H   UNL     1       5.689  -1.362  -1.242  0.00  0.00    +0.143 HD
ATOM     14  N   UNL     1       4.088   1.647   0.837  0.00  0.00    -0.401 NA
ATOM     15  H   UNL     1       3.816   1.836   1.809  0.00  0.00    +0.124 HD
ATOM     16  H   UNL     1       4.864   0.974   0.824  0.00  0.00    +0.124 HD
ATOM     17  N   UNL     1       5.121   0.771  -2.645  0.00  0.00    -0.351 N 
ATOM     18  H   UNL     1       6.023   0.440  -3.008  0.00  0.00    +0.163 HD
ENDROOT
BRANCH   8  19
ATOM     19  C   UNL     1       1.692   1.885   0.364  0.00  0.00    -0.027 A 
ATOM     20  C   UNL     1       1.810   3.246   0.574  0.00  0.00    +0.005 A 
ATOM     21  C   UNL     1       0.681   4.010   0.804  0.00  0.00    +0.000 A 
ATOM     22  C   UNL     1      -0.566   3.414   0.815  0.00  0.00    +0.000 A 
ATOM     23  C   UNL     1      -0.684   2.053   0.605  0.00  0.00    +0.000 A 
ATOM     24  C   UNL     1       0.445   1.288   0.379  0.00  0.00    +0.005 A 
ENDBRANCH   8  19
BRANCH   9  25
ATOM     25  C   UNL     1       2.051   0.347  -2.060  0.00  0.00    +0.081 C 
ATOM     26  N   UNL     1       1.170  -0.138  -2.588  0.00  0.00    -0.195 NA
ENDBRANCH   9  25
BRANCH   2  27
ATOM     27  C   UNL     1       2.240   3.061  -2.418  0.00  0.00    +0.080 C 
ATOM     28  N   UNL     1       1.294   3.592  -2.758  0.00  0.00    -0.195 NA
ENDBRANCH   2  27
BRANCH   1  29
ATOM     29  S   UNL     1       3.409   1.516  -4.616  0.00  0.00    -0.120 S 
BRANCH  29  30
ATOM     30  C   UNL     1       4.180  -0.010  -5.221  0.00  0.00    +0.072 C 
BRANCH  30  31
ATOM     31  C   UNL     1       3.406  -0.525  -6.436  0.00  0.00    +0.010 C 
BRANCH  31  33
ATOM     32  C   UNL     1       3.283  -2.327  -8.162  0.00  0.00    +0.004 C 
ATOM     33  C   UNL     1       4.056  -1.812  -6.947  0.00  0.00    -0.003 C 
ENDBRANCH  31  33
ENDBRANCH  30  31
ENDBRANCH  29  30
ENDBRANCH   1  29
BRANCH   1  34
ATOM     34  S   UNL     1       5.557   3.289  -3.553  0.00  0.00    -0.120 S 
BRANCH  34  35
ATOM     35  C   UNL     1       6.637   2.565  -4.819  0.00  0.00    +0.072 C 
BRANCH  35  36
ATOM     36  C   UNL     1       7.756   3.551  -5.158  0.00  0.00    +0.010 C 
BRANCH  36  37
ATOM     37  C   UNL     1       8.667   2.941  -6.225  0.00  0.00    -0.003 C 
ATOM     38  C   UNL     1       9.787   3.927  -6.564  0.00  0.00    +0.004 C 
ENDBRANCH  36  37
ENDBRANCH  35  36
ENDBRANCH  34  35
ENDBRANCH   1  34
TORSDOF 11
