REMARK  Name = ZINC12401341
REMARK  8 active torsions:
REMARK  status: ('A' for Active; 'I' for Inactive)
REMARK    1  A    between atoms: C_1  and  C_2
REMARK    2  A    between atoms: C_2  and  C_3
REMARK    3  A    between atoms: C_2  and  C_4
REMARK    4  A    between atoms: C_4  and  C_5
REMARK    5  A    between atoms: C_5  and  C_34
REMARK    6  A    between atoms: C_10  and  C_13
REMARK    7  A    between atoms: C_18  and  O_19
REMARK    8  A    between atoms: N_24  and  C_27
REMARK                            x       y       z     vdW  Elec       q    Type
REMARK                         _______ _______ _______ _____ _____    ______ ____
ROOT
ATOM      1  C   UNL     1       2.114  -0.563  -1.166  0.00  0.00    +0.048 C 
ATOM      2  C   UNL     1       2.887  -1.529  -2.058  0.00  0.00    +0.086 C 
ATOM      3  C   UNL     1       4.317  -1.247  -1.460  0.00  0.00    +0.077 C 
ATOM      4  C   UNL     1       4.104  -1.333  -0.010  0.00  0.00    -0.023 C 
ATOM      5  N   UNL     1       2.704  -0.808   0.190  0.00  0.00    +0.396 N 
ATOM      6  C   UNL     1       5.181  -1.780  -2.485  0.00  0.00    +0.229 C 
ATOM      7  O   UNL     1       6.258  -2.316  -2.337  0.00  0.00    -0.275 OA
ATOM      8  N   UNL     1       4.518  -1.547  -3.664  0.00  0.00    -0.210 N 
ATOM      9  C   UNL     1       3.200  -1.184  -3.481  0.00  0.00    +0.229 C 
ATOM     10  O   UNL     1       2.449  -0.687  -4.292  0.00  0.00    -0.275 OA
ATOM     11  H   UNL     1       2.726   0.054   0.715  0.00  0.00    -0.083 HD
ATOM     12  H   UNL     1       2.155  -1.496   0.683  0.00  0.00    -0.083 HD
ENDROOT
BRANCH   4  13
ATOM     13  C   UNL     1       4.227  -2.761   0.455  0.00  0.00    -0.016 A 
ATOM     14  C   UNL     1       3.103  -3.562   0.535  0.00  0.00    +0.025 A 
ATOM     15  C   UNL     1       3.215  -4.873   0.962  0.00  0.00    +0.043 A 
ATOM     16  C   UNL     1       4.452  -5.386   1.310  0.00  0.00    +0.043 A 
ATOM     17  C   UNL     1       5.579  -4.589   1.232  0.00  0.00    +0.084 A 
ATOM     18  C   UNL     1       5.469  -3.275   0.798  0.00  0.00    +0.137 A 
ATOM     19 CL   UNL     1       7.130  -5.232   1.670  0.00  0.00    -0.080 Cl
ATOM     20 CL   UNL     1       1.802  -5.876   1.061  0.00  0.00    -0.083 Cl
BRANCH  18  21
ATOM     21  O   UNL     1       6.576  -2.490   0.715  0.00  0.00    -0.505 OA
ATOM     22  H   UNL     1       6.774  -2.002   1.526  0.00  0.00    +0.292 HD
ENDBRANCH  18  21
ENDBRANCH   4  13
BRANCH   8  23
ATOM     23  C   UNL     1       5.112  -1.675  -4.928  0.00  0.00    +0.045 A 
ATOM     24  C   UNL     1       4.373  -1.415  -6.074  0.00  0.00    +0.024 A 
ATOM     25  C   UNL     1       4.961  -1.541  -7.317  0.00  0.00    +0.003 A 
ATOM     26  C   UNL     1       6.285  -1.926  -7.422  0.00  0.00    +0.020 A 
ATOM     27  C   UNL     1       7.025  -2.186  -6.282  0.00  0.00    +0.043 A 
ATOM     28  C   UNL     1       6.443  -2.056  -5.035  0.00  0.00    +0.044 A 
ATOM     29 CL   UNL     1       8.686  -2.671  -6.418  0.00  0.00    -0.083 Cl
ENDBRANCH   8  23
BRANCH   1  30
ATOM     30  C   UNL     1       2.341   0.863  -1.596  0.00  0.00    +0.346 C 
ATOM     31  O   UNL     1       2.985   1.619  -0.888  0.00  0.00    -0.248 OA
ATOM     32  O   UNL     1       1.882   1.262  -2.653  0.00  0.00    -0.248 OA
ENDBRANCH   1  30
BRANCH   1  33
ATOM     33  C   UNL     1       0.621  -0.896  -1.174  0.00  0.00    +0.002 C 
BRANCH  33  35
ATOM     34  C   UNL     1      -1.631  -0.129  -0.411  0.00  0.00    +0.007 C 
ATOM     35  C   UNL     1      -0.123   0.070  -0.250  0.00  0.00    -0.018 C 
ATOM     36  C   UNL     1       0.276  -0.204   1.201  0.00  0.00    +0.007 C 
ENDBRANCH  33  35
ENDBRANCH   1  33
TORSDOF 6
