REMARK  Name = ZINC21228039
REMARK  10 active torsions:
REMARK  status: ('A' for Active; 'I' for Inactive)
REMARK    1  A    between atoms: C_1  and  C_2
REMARK    2  A    between atoms: C_2  and  O_3
REMARK    3  A    between atoms: O_3  and  C_4
REMARK    4  A    between atoms: C_6  and  C_14
REMARK    5  A    between atoms: C_9  and  O_10
REMARK    6  A    between atoms: O_10  and  C_11
REMARK    7  A    between atoms: C_11  and  C_12
REMARK    8  A    between atoms: C_11  and  C_13
REMARK    9  A    between atoms: C_19  and  C_24
REMARK   10  A    between atoms: C_27  and  C_30
REMARK                            x       y       z     vdW  Elec       q    Type
REMARK                         _______ _______ _______ _____ _____    ______ ____
ROOT
ATOM      1  C   UNL     1       2.006  -0.552  -1.333  0.00  0.00    +0.136 C 
ATOM      2  C   UNL     1       2.408   0.885  -1.571  0.00  0.00    +0.036 C 
ATOM      3  C   UNL     1       1.958   1.951  -0.891  0.00  0.00    +0.017 C 
ATOM      4  C   UNL     1       2.413   3.351  -1.273  0.00  0.00    +0.059 C 
ATOM      5  C   UNL     1       3.854   3.308  -1.778  0.00  0.00    +0.032 C 
ATOM      6  C   UNL     1       3.892   2.390  -3.005  0.00  0.00    +0.088 C 
ATOM      7  C   UNL     1       3.348   1.048  -2.616  0.00  0.00    +0.163 C 
ATOM      8  O   UNL     1       3.728   0.064  -3.220  0.00  0.00    -0.292 OA
ATOM      9  N   UNL     1       1.083   1.907   0.146  0.00  0.00    -0.316 N 
ATOM     10  C   UNL     1      -0.102   1.179   0.151  0.00  0.00    +0.052 A 
ATOM     11  C   UNL     1      -1.342   1.784   0.255  0.00  0.00    +0.025 A 
ATOM     12  C   UNL     1      -2.478   0.996   0.317  0.00  0.00    +0.002 A 
ATOM     13  C   UNL     1      -2.373  -0.382   0.278  0.00  0.00    +0.002 A 
ATOM     14  C   UNL     1      -1.135  -0.988   0.158  0.00  0.00    +0.025 A 
ATOM     15  C   UNL     1       0.004  -0.202   0.076  0.00  0.00    +0.049 A 
ATOM     16  N   UNL     1       1.263  -0.767  -0.109  0.00  0.00    -0.331 N 
ATOM     17  H   UNL     1       1.291   2.475   1.065  0.00  0.00    +0.152 HD
ATOM     18  H   UNL     1       1.692  -1.387   0.693  0.00  0.00    +0.147 HD
ENDROOT
BRANCH   5  19
ATOM     19  C   UNL     1       4.302   4.695  -2.165  0.00  0.00    -0.043 A 
ATOM     20  C   UNL     1       3.631   5.386  -3.156  0.00  0.00    +0.004 A 
ATOM     21  C   UNL     1       4.038   6.660  -3.507  0.00  0.00    +0.003 A 
ATOM     22  C   UNL     1       5.122   7.238  -2.874  0.00  0.00    -0.050 A 
ATOM     23  C   UNL     1       5.796   6.544  -1.886  0.00  0.00    +0.003 A 
ATOM     24  C   UNL     1       5.386   5.272  -1.532  0.00  0.00    +0.004 A 
ATOM     25  C   UNL     1       5.569   8.624  -3.259  0.00  0.00    +0.044 C 
ENDBRANCH   5  19
BRANCH   1  28
ATOM     26  C   UNL     1       0.848  -2.431  -4.399  0.00  0.00    +0.162 A 
ATOM     27  C   UNL     1       1.624  -2.008  -3.332  0.00  0.00    +0.055 A 
ATOM     28  C   UNL     1       1.161  -1.011  -2.493  0.00  0.00    -0.019 A 
ATOM     29  C   UNL     1      -0.078  -0.439  -2.713  0.00  0.00    +0.009 A 
ATOM     30  C   UNL     1      -0.855  -0.853  -3.779  0.00  0.00    +0.050 A 
ATOM     31  C   UNL     1      -0.397  -1.851  -4.624  0.00  0.00    +0.162 A 
BRANCH  26  32
ATOM     32  O   UNL     1       1.302  -3.411  -5.225  0.00  0.00    -0.489 OA
BRANCH  32  34
ATOM     33  C   UNL     1       2.926  -5.042  -5.963  0.00  0.00    +0.048 C 
ATOM     34  C   UNL     1       2.588  -3.961  -4.934  0.00  0.00    +0.226 C 
ENDBRANCH  32  34
ENDBRANCH  26  32
BRANCH  31  35
ATOM     35  O   UNL     1      -1.162  -2.263  -5.670  0.00  0.00    -0.486 OA
BRANCH  35  36
ATOM     36  C   UNL     1      -2.373  -1.544  -5.910  0.00  0.00    +0.167 C 
ATOM     37  C   UNL     1      -2.768  -1.688  -7.382  0.00  0.00    +0.051 C 
ATOM     38  C   UNL     1      -3.486  -2.110  -5.026  0.00  0.00    +0.051 C 
ENDBRANCH  35  36
ENDBRANCH  31  35
ENDBRANCH   1  28
TORSDOF 6
