REMARK  Name = ZINC31613670
REMARK  6 active torsions:
REMARK  status: ('A' for Active; 'I' for Inactive)
REMARK    1  A    between atoms: C_1  and  C_2
REMARK    2  A    between atoms: C_2  and  C_4
REMARK    3  A    between atoms: C_2  and  N_30
REMARK    4  A    between atoms: N_6  and  C_7
REMARK    5  A    between atoms: C_11  and  N_13
REMARK    6  A    between atoms: C_14  and  C_16
REMARK                            x       y       z     vdW  Elec       q    Type
REMARK                         _______ _______ _______ _____ _____    ______ ____
ROOT
ATOM      1  N   UNL     1      -8.791  -0.669  -0.142  0.00  0.00    -0.281 N 
ATOM      2  C   UNL     1      -7.615  -0.845  -0.776  0.00  0.00    +0.248 C 
ATOM      3  O   UNL     1      -7.598  -1.185  -1.943  0.00  0.00    -0.270 OA
ATOM      4  H   UNL     1      -8.807  -0.444   0.935  0.00  0.00    +0.155 HD
ENDROOT
BRANCH   2   5
ATOM      5  C   UNL     1      -6.346  -0.626  -0.053  0.00  0.00    +0.038 A 
ATOM      6  C   UNL     1      -6.384  -0.234   1.290  0.00  0.00    +0.015 A 
ATOM      7  C   UNL     1      -5.247  -0.013   2.019  0.00  0.00    +0.027 A 
ATOM      8  C   UNL     1      -4.024  -0.194   1.371  0.00  0.00    +0.047 A 
ATOM      9  C   UNL     1      -3.972  -0.591   0.008  0.00  0.00    +0.004 A 
ATOM     10  C   UNL     1      -5.136  -0.814  -0.727  0.00  0.00    +0.023 A 
ATOM     11  C   UNL     1      -2.565  -0.679  -0.329  0.00  0.00    -0.019 A 
ATOM     12  C   UNL     1      -1.871  -0.353   0.782  0.00  0.00    +0.020 A 
ATOM     13  N   UNL     1      -2.739  -0.060   1.803  0.00  0.00    -0.358 N 
ATOM     14  H   UNL     1      -2.535   0.244   2.840  0.00  0.00    +0.166 HD
ATOM     15  C   UNL     1      -0.362  -0.328   0.852  0.00  0.00    +0.053 C 
ATOM     16  C   UNL     1       0.195  -1.112  -0.341  0.00  0.00    +0.006 C 
ATOM     17  C   UNL     1      -0.468  -0.618  -1.630  0.00  0.00    +0.005 C 
ATOM     18  C   UNL     1      -1.937  -1.057  -1.646  0.00  0.00    +0.037 C 
ENDBRANCH   2   5
BRANCH   1  23
ATOM     19  C   UNL     1     -11.238  -0.481  -2.885  0.00  0.00    +0.035 A 
ATOM     20  C   UNL     1     -12.373  -0.977  -2.255  0.00  0.00    +0.023 A 
ATOM     21  C   UNL     1     -12.315  -1.368  -0.931  0.00  0.00    +0.004 A 
ATOM     22  C   UNL     1     -11.129  -1.267  -0.229  0.00  0.00    +0.023 A 
ATOM     23  C   UNL     1      -9.991  -0.771  -0.853  0.00  0.00    +0.035 A 
ATOM     24  C   UNL     1     -10.047  -0.372  -2.181  0.00  0.00    +0.046 A 
BRANCH  19  27
ATOM     25  C   UNL     1     -12.115  -0.729  -5.082  0.00  0.00    +0.242 C 
ATOM     26  O   UNL     1     -12.728  -1.709  -4.715  0.00  0.00    -0.273 OA
ATOM     27  N   UNL     1     -11.298  -0.085  -4.225  0.00  0.00    -0.284 N 
ATOM     28  H   UNL     1     -10.678   0.752  -4.580  0.00  0.00    +0.155 HD
BRANCH  25  30
ATOM     29  C   UNL     1     -10.906  -0.256  -7.195  0.00  0.00    +0.042 C 
ATOM     30  C   UNL     1     -12.267  -0.231  -6.497  0.00  0.00    +0.190 C 
BRANCH  30  31
ATOM     31  N   UNL     1     -13.203  -1.095  -7.221  0.00  0.00    -0.260 N 
ATOM     32  C   UNL     1     -12.895  -2.250  -7.847  0.00  0.00    +0.109 A 
ATOM     33  C   UNL     1     -14.033  -2.741  -8.390  0.00  0.00    +0.041 A 
ATOM     34  C   UNL     1     -15.072  -1.856  -8.086  0.00  0.00    +0.134 A 
ATOM     35  N   UNL     1     -14.576  -0.872  -7.380  0.00  0.00    -0.179 NA
ENDBRANCH  30  31
ENDBRANCH  25  30
ENDBRANCH  19  27
ENDBRANCH   1  23
TORSDOF 5
