REMARK  Name = ZINC03314459
REMARK  14 active torsions:
REMARK  status: ('A' for Active; 'I' for Inactive)
REMARK    1  A    between atoms: C_1  and  C_2
REMARK    2  A    between atoms: C_2  and  O_3
REMARK    3  A    between atoms: O_3  and  C_4
REMARK    4  A    between atoms: C_4  and  C_6
REMARK    5  A    between atoms: C_10  and  N_11
REMARK    6  A    between atoms: C_12  and  C_14
REMARK    7  A    between atoms: C_14  and  C_16
REMARK    8  A    between atoms: C_14  and  S_17
REMARK    9  A    between atoms: S_17  and  C_18
REMARK   10  A    between atoms: N_28  and  C_29
REMARK   11  A    between atoms: C_29  and  C_30
REMARK   12  A    between atoms: C_30  and  C_31
REMARK   13  A    between atoms: C_30  and  C_32
REMARK   14  A    between atoms: C_34  and  C_38
REMARK                            x       y       z     vdW  Elec       q    Type
REMARK                         _______ _______ _______ _____ _____    ______ ____
ROOT
ATOM      1  N   UNL     1       6.261  -3.693   1.268  0.00  0.00    -0.278 N 
ATOM      2  C   UNL     1       5.189  -2.876   1.240  0.00  0.00    +0.231 C 
ATOM      3  O   UNL     1       5.261  -1.765   1.722  0.00  0.00    -0.274 OA
ATOM      4  H   UNL     1       6.203  -4.582   0.882  0.00  0.00    +0.155 HD
ENDROOT
BRANCH   1   9
ATOM      5  C   UNL     1       8.642  -3.957   1.977  0.00  0.00    +0.091 A 
ATOM      6  C   UNL     1       9.745  -3.271   2.629  0.00  0.00    -0.021 A 
ATOM      7  C   UNL     1       9.474  -2.018   3.054  0.00  0.00    -0.004 A 
ATOM      8  S   UNL     1       7.787  -1.739   2.594  0.00  0.00    -0.077 S 
ATOM      9  C   UNL     1       7.444  -3.265   1.848  0.00  0.00    +0.086 A 
ATOM     10  C   UNL     1      10.407  -1.081   3.757  0.00  0.00    +0.046 C 
ATOM     11  C   UNL     1      11.838  -1.612   3.596  0.00  0.00    -0.009 C 
ATOM     12  C   UNL     1      11.851  -3.106   3.933  0.00  0.00    +0.008 C 
ATOM     13  C   UNL     1      11.120  -3.891   2.842  0.00  0.00    +0.037 C 
ATOM     14  C   UNL     1      12.774  -0.861   4.545  0.00  0.00    +0.008 C 
BRANCH   5  15
ATOM     15  C   UNL     1       8.788  -5.323   1.472  0.00  0.00    +0.342 C 
ATOM     16  O   UNL     1       9.168  -5.512   0.332  0.00  0.00    -0.245 OA
BRANCH  15  17
ATOM     17  O   UNL     1       8.501  -6.372   2.270  0.00  0.00    -0.461 OA
BRANCH  17  19
ATOM     18  C   UNL     1       8.299  -8.751   2.749  0.00  0.00    +0.048 C 
ATOM     19  C   UNL     1       8.669  -7.698   1.703  0.00  0.00    +0.229 C 
ENDBRANCH  17  19
ENDBRANCH  15  17
ENDBRANCH   5  15
ENDBRANCH   1   9
BRANCH   2  20
ATOM     20  C   UNL     1       3.902  -3.342   0.609  0.00  0.00    +0.137 C 
ATOM     21  C   UNL     1       3.088  -4.132   1.635  0.00  0.00    +0.029 C 
BRANCH  20  22
ATOM     22  S   UNL     1       2.947  -1.907   0.057  0.00  0.00    -0.075 S 
BRANCH  22  23
ATOM     23  C   UNL     1       1.611  -2.722  -0.752  0.00  0.00    +0.173 A 
ATOM     24  N   UNL     1       1.597  -4.032  -0.771  0.00  0.00    -0.223 NA
ATOM     25  C   UNL     1       0.609  -4.720  -1.376  0.00  0.00    +0.079 A 
ATOM     26  C   UNL     1       0.598  -6.118  -1.401  0.00  0.00    +0.028 A 
ATOM     27  C   UNL     1      -0.424  -6.775  -2.027  0.00  0.00    +0.002 A 
ATOM     28  C   UNL     1      -1.455  -6.074  -2.640  0.00  0.00    +0.001 A 
ATOM     29  C   UNL     1      -1.472  -4.707  -2.632  0.00  0.00    +0.015 A 
ATOM     30  C   UNL     1      -0.442  -4.011  -2.001  0.00  0.00    +0.065 A 
ATOM     31  C   UNL     1      -0.408  -2.542  -1.962  0.00  0.00    +0.262 A 
ATOM     32  O   UNL     1      -1.284  -1.876  -2.482  0.00  0.00    -0.267 OA
ATOM     33  N   UNL     1       0.634  -1.958  -1.325  0.00  0.00    -0.287 N 
BRANCH  33  34
ATOM     34  C   UNL     1       0.718  -0.497  -1.257  0.00  0.00    +0.130 C 
BRANCH  34  35
ATOM     35  C   UNL     1       0.002  -0.004   0.002  0.00  0.00    +0.003 C 
ATOM     36  C   UNL     1      -0.019   1.526   0.010  0.00  0.00    +0.009 C 
ATOM     37  C   UNL     1       0.742  -0.511   1.242  0.00  0.00    +0.009 C 
ENDBRANCH  34  35
ENDBRANCH  33  34
ENDBRANCH  22  23
ENDBRANCH  20  22
ENDBRANCH   2  20
TORSDOF 9
