REMARK  Name = ZINC09388916
REMARK  13 active torsions:
REMARK  status: ('A' for Active; 'I' for Inactive)
REMARK    1  A    between atoms: C_1  and  C_2
REMARK    2  A    between atoms: C_2  and  C_4
REMARK    3  A    between atoms: C_2  and  O_17
REMARK    4  A    between atoms: N_6  and  C_7
REMARK    5  A    between atoms: C_10  and  C_13
REMARK    6  A    between atoms: C_13  and  C_14
REMARK    7  A    between atoms: C_13  and  C_15
REMARK    8  A    between atoms: C_13  and  C_16
REMARK    9  A    between atoms: O_17  and  C_18
REMARK   10  A    between atoms: C_18  and  C_20
REMARK   11  A    between atoms: C_20  and  N_21
REMARK   12  A    between atoms: C_24  and  C_28
REMARK   13  A    between atoms: C_24  and  C_29
REMARK                            x       y       z     vdW  Elec       q    Type
REMARK                         _______ _______ _______ _____ _____    ______ ____
ROOT
ATOM      1  C   UNL     1      -2.092  -0.586  -1.099  0.00  0.00    +0.062 C 
ATOM      2  C   UNL     1      -1.212  -0.819   0.131  0.00  0.00    +0.259 C 
ENDROOT
BRANCH   2   3
ATOM      3  C   UNL     1       0.049  -0.003   0.007  0.00  0.00    +0.258 C 
ATOM      4  O   UNL     1       1.123  -0.557  -0.094  0.00  0.00    -0.271 OA
ATOM      5  N   UNL     1      -0.016   1.344   0.009  0.00  0.00    -0.282 N 
ATOM      6  H   UNL     1      -0.879   1.787   0.019  0.00  0.00    +0.155 HD
BRANCH   5   7
ATOM      7  C   UNL     1       1.160   2.101  -0.008  0.00  0.00    +0.034 A 
ATOM      8  C   UNL     1       1.221   3.307   0.679  0.00  0.00    +0.023 A 
ATOM      9  C   UNL     1       2.385   4.050   0.664  0.00  0.00    +0.006 A 
ATOM     10  C   UNL     1       3.486   3.600  -0.042  0.00  0.00    -0.042 A 
ATOM     11  C   UNL     1       3.426   2.402  -0.731  0.00  0.00    +0.006 A 
ATOM     12  C   UNL     1       2.267   1.652  -0.716  0.00  0.00    +0.023 A 
BRANCH  10  13
ATOM     13  C   UNL     1       4.752   4.417  -0.061  0.00  0.00    -0.013 C 
ATOM     14  C   UNL     1       5.090   4.801  -1.503  0.00  0.00    +0.015 C 
ATOM     15  C   UNL     1       4.554   5.684   0.772  0.00  0.00    +0.015 C 
ATOM     16  C   UNL     1       5.899   3.593   0.529  0.00  0.00    +0.015 C 
ENDBRANCH  10  13
ENDBRANCH   5   7
ENDBRANCH   2   3
BRANCH   2  17
ATOM     17  O   UNL     1      -0.870  -2.227   0.222  0.00  0.00    -0.451 OA
BRANCH  17  18
ATOM     18  C   UNL     1      -1.703  -3.012   0.923  0.00  0.00    +0.326 C 
ATOM     19  O   UNL     1      -2.685  -2.538   1.443  0.00  0.00    -0.249 OA
BRANCH  18  20
ATOM     20  C   UNL     1      -1.413  -4.484   1.062  0.00  0.00    +0.238 C 
BRANCH  20  21
ATOM     21  N   UNL     1      -2.462  -5.115   1.866  0.00  0.00    -0.213 N 
ATOM     22  C   UNL     1      -2.414  -5.243   3.207  0.00  0.00    +0.246 C 
ATOM     23  O   UNL     1      -1.529  -4.872   3.946  0.00  0.00    -0.273 OA
ATOM     24  C   UNL     1      -3.700  -5.946   3.597  0.00  0.00    +0.107 C 
ATOM     25  N   UNL     1      -4.383  -6.159   2.310  0.00  0.00    -0.285 N 
ATOM     26  C   UNL     1      -3.584  -5.641   1.360  0.00  0.00    +0.310 C 
ATOM     27  O   UNL     1      -3.850  -5.649   0.174  0.00  0.00    -0.252 OA
ATOM     28  C   UNL     1      -4.545  -5.061   4.515  0.00  0.00    +0.041 C 
ATOM     29  C   UNL     1      -3.393  -7.285   4.271  0.00  0.00    +0.041 C 
ATOM     30  H   UNL     1      -5.242  -6.589   2.173  0.00  0.00    +0.151 HD
ENDBRANCH  20  21
ENDBRANCH  18  20
ENDBRANCH  17  18
ENDBRANCH   2  17
TORSDOF 7
