REMARK  Name = ZINC63994193
REMARK  14 active torsions:
REMARK  status: ('A' for Active; 'I' for Inactive)
REMARK    1  A    between atoms: C_1  and  C_2
REMARK    2  A    between atoms: C_2  and  C_4
REMARK    3  A    between atoms: C_2  and  N_7
REMARK    4  A    between atoms: C_4  and  C_5
REMARK    5  A    between atoms: C_5  and  O_6
REMARK    6  A    between atoms: N_7  and  C_8
REMARK    7  A    between atoms: N_14  and  C_27
REMARK    8  A    between atoms: C_15  and  C_23
REMARK    9  A    between atoms: C_17  and  N_19
REMARK   10  A    between atoms: C_20  and  C_22
REMARK   11  A    between atoms: C_23  and  O_25
REMARK   12  A    between atoms: O_25  and  C_26
REMARK   13  A    between atoms: C_27  and  C_28
REMARK   14  A    between atoms: C_28  and  C_29
REMARK                            x       y       z     vdW  Elec       q    Type
REMARK                         _______ _______ _______ _____ _____    ______ ____
ROOT
ATOM      1  C   UNL     1       2.083  -0.591  -1.215  0.00  0.00    +0.044 A 
ATOM      2  C   UNL     1       2.750  -1.034  -2.357  0.00  0.00    +0.033 A 
ATOM      3  C   UNL     1       4.128  -1.131  -2.320  0.00  0.00    +0.015 A 
ATOM      4  C   UNL     1       4.817  -0.791  -1.164  0.00  0.00    +0.105 A 
ATOM      5  N   UNL     1       4.141  -0.372  -0.095  0.00  0.00    -0.348 N 
ATOM      6  C   UNL     1       2.829  -0.261  -0.094  0.00  0.00    +0.107 A 
ATOM      7  N   UNL     1       6.192  -0.954  -1.323  0.00  0.00    -0.301 N 
ATOM      8  C   UNL     1       6.491  -1.439  -2.673  0.00  0.00    +0.208 C 
ATOM      9  C   UNL     1       5.125  -1.567  -3.368  0.00  0.00    +0.138 C 
ATOM     10  H   UNL     1       4.632  -0.137   0.708  0.00  0.00    +0.167 HD
ENDROOT
BRANCH   9  11
ATOM     11  N   UNL     1       5.059  -0.685  -4.535  0.00  0.00    -0.306 N 
ATOM     12  C   UNL     1       4.172  -0.934  -5.519  0.00  0.00    +0.210 C 
ATOM     13  O   UNL     1       3.427  -1.888  -5.436  0.00  0.00    -0.276 OA
ATOM     14  C   UNL     1       4.104  -0.027  -6.720  0.00  0.00    +0.109 C 
ATOM     15  H   UNL     1       5.655   0.077  -4.601  0.00  0.00    +0.149 HD
ENDBRANCH   9  11
BRANCH   1  16
ATOM     16  N   UNL     1       0.688  -0.476  -1.203  0.00  0.00    -0.340 N 
ATOM     17  H   UNL     1       0.175  -0.710  -1.993  0.00  0.00    +0.146 HD
BRANCH  16  19
ATOM     18  C   UNL     1      -0.019   1.526   0.010  0.00  0.00    +0.028 C 
ATOM     19  C   UNL     1       0.002  -0.004   0.002  0.00  0.00    +0.069 C 
BRANCH  19  20
ATOM     20  C   UNL     1      -1.433  -0.534   0.013  0.00  0.00    +0.049 C 
BRANCH  20  21
ATOM     21  C   UNL     1      -1.413  -2.059   0.130  0.00  0.00    +0.157 C 
BRANCH  21  22
ATOM     22  O   UNL     1      -2.754  -2.554   0.140  0.00  0.00    -0.395 OA
ATOM     23  H   UNL     1      -2.818  -3.516   0.213  0.00  0.00    +0.209 HD
ENDBRANCH  21  22
ENDBRANCH  20  21
ENDBRANCH  19  20
ENDBRANCH  16  19
ENDBRANCH   1  16
BRANCH   8  24
ATOM     24  C   UNL     1       7.360  -0.448  -3.404  0.00  0.00    +0.330 C 
ATOM     25  O   UNL     1       7.431   0.694  -3.016  0.00  0.00    -0.249 OA
BRANCH  24  26
ATOM     26  O   UNL     1       8.054  -0.833  -4.486  0.00  0.00    -0.467 OA
ATOM     27  C   UNL     1       8.857   0.159  -5.130  0.00  0.00    +0.280 C 
ENDBRANCH  24  26
ENDBRANCH   8  24
BRANCH   7  28
ATOM     28  C   UNL     1       7.193  -0.680  -0.290  0.00  0.00    +0.112 C 
BRANCH  28  29
ATOM     29  C   UNL     1       7.435  -1.946   0.535  0.00  0.00    +0.052 C 
BRANCH  29  30
ATOM     30  C   UNL     1       8.465  -1.663   1.598  0.00  0.00    -0.040 C 
ATOM     31  C   UNL     1       8.232  -1.311   2.883  0.00  0.00    -0.001 A 
ATOM     32  C   UNL     1       6.998  -1.093   3.646  0.00  0.00    +0.010 A 
ATOM     33  C   UNL     1       7.086  -0.738   4.948  0.00  0.00    +0.001 A 
ATOM     34  C   UNL     1       8.323  -0.574   5.585  0.00  0.00    +0.002 A 
ATOM     35  C   UNL     1       9.500  -0.757   4.951  0.00  0.00    +0.026 A 
ATOM     36  C   UNL     1       9.526  -1.132   3.579  0.00  0.00    +0.043 A 
ATOM     37  N   UNL     1      10.520  -1.364   2.756  0.00  0.00    -0.380 N 
ATOM     38  C   UNL     1       9.969  -1.723   1.445  0.00  0.00    +0.144 C 
ATOM     39  H   UNL     1      11.463  -1.311   2.978  0.00  0.00    +0.160 HD
ENDBRANCH  29  30
ENDBRANCH  28  29
ENDBRANCH   7  28
TORSDOF 11
