REMARK  Name = ZINC64733604
REMARK  4 active torsions:
REMARK  status: ('A' for Active; 'I' for Inactive)
REMARK    1  A    between atoms: C_7  and  C_16
REMARK    2  A    between atoms: C_9  and  C_11
REMARK    3  A    between atoms: N_18  and  N_19
REMARK    4  A    between atoms: C_20  and  C_22
REMARK                            x       y       z     vdW  Elec       q    Type
REMARK                         _______ _______ _______ _____ _____    ______ ____
ROOT
ATOM      1  C   UNL     1       0.068  -2.967  -0.014  0.00  0.00    +0.261 C 
ATOM      2  O   UNL     1      -1.021  -2.437   0.091  0.00  0.00    -0.269 OA
ATOM      3  N   UNL     1       0.157  -4.307  -0.123  0.00  0.00    -0.230 N 
ATOM      4  H   UNL     1       1.026  -4.730  -0.207  0.00  0.00    +0.173 HD
ENDROOT
BRANCH   1  11
ATOM      5  C   UNL     1      -0.017   1.359  -0.035  0.00  0.00    +0.001 A 
ATOM      6  C   UNL     1       1.170   2.089  -0.042  0.00  0.00    +0.002 A 
ATOM      7  C   UNL     1       2.379   1.465  -0.042  0.00  0.00    +0.028 A 
ATOM      8  C   UNL     1       2.438   0.059  -0.035  0.00  0.00    +0.073 A 
ATOM      9  C   UNL     1       1.227  -0.679  -0.029  0.00  0.00    +0.013 A 
ATOM     10  C   UNL     1       0.002  -0.004  -0.029  0.00  0.00    +0.011 A 
ATOM     11  C   UNL     1       1.295  -2.141  -0.022  0.00  0.00    +0.049 A 
ATOM     12  C   UNL     1       2.554  -2.721  -0.022  0.00  0.00    +0.045 A 
ATOM     13  C   UNL     1       3.693  -1.897  -0.029  0.00  0.00    +0.107 A 
ATOM     14  N   UNL     1       3.609  -0.581  -0.035  0.00  0.00    -0.244 NA
BRANCH  13  15
ATOM     15  C   UNL     1       5.027  -2.526  -0.030  0.00  0.00    +0.153 A 
ATOM     16  C   UNL     1       6.220  -1.870  -0.031  0.00  0.00    +0.051 A 
ATOM     17  C   UNL     1       7.225  -2.856  -0.030  0.00  0.00    +0.042 A 
ATOM     18  C   UNL     1       6.604  -4.053  -0.029  0.00  0.00    +0.196 A 
ATOM     19  O   UNL     1       5.278  -3.850  -0.023  0.00  0.00    -0.461 OA
ENDBRANCH  13  15
ENDBRANCH   1  11
BRANCH   3  20
ATOM     20  N   UNL     1      -1.005  -5.089  -0.116  0.00  0.00    -0.230 N 
ATOM     21  C   UNL     1      -0.916  -6.430  -0.225  0.00  0.00    +0.262 C 
ATOM     22  O   UNL     1       0.174  -6.960  -0.330  0.00  0.00    -0.269 OA
ATOM     23  H   UNL     1      -1.874  -4.666  -0.032  0.00  0.00    +0.173 HD
BRANCH  21  24
ATOM     24  C   UNL     1      -2.135  -7.250  -0.217  0.00  0.00    +0.065 A 
ATOM     25  C   UNL     1      -3.419  -6.805  -0.113  0.00  0.00    +0.098 A 
ATOM     26  N   UNL     1      -4.273  -7.857  -0.143  0.00  0.00    -0.345 N 
ATOM     27  H   UNL     1      -5.239  -7.787  -0.085  0.00  0.00    +0.167 HD
ATOM     28  C   UNL     1      -3.579  -9.040  -0.269  0.00  0.00    +0.139 A 
ATOM     29  C   UNL     1      -2.212  -8.717  -0.327  0.00  0.00    +0.031 A 
ATOM     30  C   UNL     1      -1.270  -9.735  -0.460  0.00  0.00    +0.014 A 
ATOM     31  C   UNL     1      -1.727 -11.039  -0.534  0.00  0.00    +0.020 A 
ATOM     32  C   UNL     1      -3.089 -11.286  -0.474  0.00  0.00    +0.113 A 
ATOM     33  N   UNL     1      -3.960 -10.308  -0.340  0.00  0.00    -0.237 NA
ENDBRANCH  21  24
ENDBRANCH   3  20
TORSDOF 4
