REMARK  Name = ZINC08346030
REMARK  9 active torsions:
REMARK  status: ('A' for Active; 'I' for Inactive)
REMARK    1  A    between atoms: C_1  and  C_2
REMARK    2  A    between atoms: C_2  and  C_3
REMARK    3  A    between atoms: C_3  and  S_4
REMARK    4  A    between atoms: S_4  and  C_5
REMARK    5  A    between atoms: C_14  and  C_28
REMARK    6  A    between atoms: C_15  and  C_24
REMARK    7  A    between atoms: C_16  and  C_18
REMARK    8  A    between atoms: C_24  and  O_26
REMARK    9  A    between atoms: O_26  and  C_27
REMARK                            x       y       z     vdW  Elec       q    Type
REMARK                         _______ _______ _______ _____ _____    ______ ____
ROOT
ATOM      1  C   UNL     1       3.938   2.539  -0.028  0.00  0.00    +0.171 A 
ATOM      2  N   UNL     1       3.627   1.494   0.789  0.00  0.00    -0.302 N 
ATOM      3  H   UNL     1       4.332   1.086   1.367  0.00  0.00    +0.171 HD
ATOM      4  C   UNL     1       2.367   1.010   0.819  0.00  0.00    +0.258 A 
ATOM      5  O   UNL     1       2.078   0.076   1.550  0.00  0.00    -0.267 OA
ATOM      6  C   UNL     1       1.399   1.599  -0.003  0.00  0.00    +0.069 A 
ATOM      7  C   UNL     1       1.768   2.655  -0.818  0.00  0.00    +0.135 A 
ATOM      8  N   UNL     1       3.030   3.096  -0.804  0.00  0.00    -0.208 NA
ATOM      9  N   UNL     1       0.833   3.249  -1.647  0.00  0.00    -0.302 N 
ATOM     10  C   UNL     1      -0.335   2.602  -1.939  0.00  0.00    +0.017 C 
ATOM     11  C   UNL     1      -0.771   1.575  -1.192  0.00  0.00    +0.065 C 
ATOM     12  C   UNL     1      -0.013   1.086   0.008  0.00  0.00    +0.097 C 
ATOM     13  C   UNL     1      -1.150   3.050  -3.125  0.00  0.00    +0.061 C 
ATOM     14  H   UNL     1       1.007   4.126  -2.022  0.00  0.00    +0.153 HD
ENDROOT
BRANCH  12  15
ATOM     15  C   UNL     1      -0.704   1.565   1.258  0.00  0.00    -0.017 A 
ATOM     16  C   UNL     1      -1.205   0.654   2.176  0.00  0.00    +0.007 A 
ATOM     17  C   UNL     1      -1.829   1.140   3.315  0.00  0.00    +0.020 A 
ATOM     18  C   UNL     1      -1.940   2.507   3.491  0.00  0.00    +0.111 A 
ATOM     19  N   UNL     1      -1.456   3.343   2.594  0.00  0.00    -0.263 NA
ATOM     20  C   UNL     1      -0.852   2.917   1.502  0.00  0.00    +0.115 A 
ENDBRANCH  12  15
BRANCH  11  21
ATOM     21  C   UNL     1      -1.981   0.936  -1.545  0.00  0.00    +0.337 C 
ATOM     22  O   UNL     1      -2.610   1.318  -2.514  0.00  0.00    -0.245 OA
BRANCH  21  23
ATOM     23  O   UNL     1      -2.438  -0.098  -0.807  0.00  0.00    -0.465 OA
ATOM     24  C   UNL     1      -3.667  -0.696  -1.222  0.00  0.00    +0.280 C 
ENDBRANCH  21  23
ENDBRANCH  11  21
BRANCH   1  25
ATOM     25  S   UNL     1       5.587   3.157  -0.048  0.00  0.00    -0.088 S 
BRANCH  25  26
ATOM     26  C   UNL     1       5.411   4.484  -1.267  0.00  0.00    +0.077 C 
BRANCH  26  28
ATOM     27  C   UNL     1       6.609   6.306  -2.486  0.00  0.00    +0.004 C 
ATOM     28  C   UNL     1       6.758   5.185  -1.456  0.00  0.00    +0.008 C 
ENDBRANCH  26  28
ENDBRANCH  25  26
ENDBRANCH   1  25
TORSDOF 6
