REMARK  Name = ZINC14656976
REMARK  8 active torsions:
REMARK  status: ('A' for Active; 'I' for Inactive)
REMARK    1  A    between atoms: C_1  and  C_2
REMARK    2  A    between atoms: C_2  and  C_3
REMARK    3  A    between atoms: C_3  and  C_4
REMARK    4  A    between atoms: C_4  and  N_5
REMARK    5  A    between atoms: C_6  and  N_26
REMARK    6  A    between atoms: C_7  and  N_14
REMARK    7  A    between atoms: N_14  and  C_15
REMARK    8  A    between atoms: C_16  and  C_18
REMARK                            x       y       z     vdW  Elec       q    Type
REMARK                         _______ _______ _______ _____ _____    ______ ____
ROOT
ATOM      1  N   UNL     1       0.535   1.201   0.426  0.00  0.00    -0.280 N 
ATOM      2  C   UNL     1       1.603   2.066   0.356  0.00  0.00    +0.127 A 
ATOM      3  C   UNL     1       1.368   3.411   0.150  0.00  0.00    +0.140 A 
ATOM      4  C   UNL     1       0.039   3.856   0.017  0.00  0.00    +0.277 A 
ATOM      5  O   UNL     1      -0.198   5.038  -0.167  0.00  0.00    -0.266 OA
ATOM      6  N   UNL     1      -0.971   2.966   0.093  0.00  0.00    -0.273 N 
ATOM      7  H   UNL     1      -1.915   3.282   0.003  0.00  0.00    +0.173 HD
ATOM      8  C   UNL     1      -0.722   1.659   0.289  0.00  0.00    +0.331 A 
ATOM      9  O   UNL     1      -1.652   0.877   0.349  0.00  0.00    -0.246 OA
ENDROOT
BRANCH   3  10
ATOM     10  N   UNL     1       2.440   4.323   0.074  0.00  0.00    -0.262 N 
ATOM     11  C   UNL     1       3.384   4.252  -1.044  0.00  0.00    +0.139 C 
ATOM     12  C   UNL     1       2.597   5.260   1.030  0.00  0.00    +0.271 C 
ATOM     13  O   UNL     1       1.872   5.260   2.006  0.00  0.00    -0.268 OA
BRANCH  12  14
ATOM     14  C   UNL     1       3.652   6.289   0.891  0.00  0.00    +0.146 A 
ATOM     15  C   UNL     1       3.899   7.171   1.942  0.00  0.00    +0.072 A 
ATOM     16  C   UNL     1       4.891   8.131   1.798  0.00  0.00    +0.025 A 
ATOM     17  C   UNL     1       5.601   8.174   0.609  0.00  0.00    +0.041 A 
ATOM     18  C   UNL     1       5.302   7.264  -0.396  0.00  0.00    +0.130 A 
ATOM     19  N   UNL     1       4.359   6.361  -0.230  0.00  0.00    -0.229 NA
ATOM     20 CL   UNL     1       6.187   7.314  -1.888  0.00  0.00    -0.062 Cl
ATOM     21 CL   UNL     1       2.979   7.071   3.411  0.00  0.00    -0.081 Cl
ENDBRANCH  12  14
ENDBRANCH   3  10
BRANCH   2  22
ATOM     22  N   UNL     1       2.887   1.598   0.491  0.00  0.00    -0.343 N 
ATOM     23  H   UNL     1       3.043   0.666   0.711  0.00  0.00    +0.144 HD
ATOM     24  H   UNL     1       3.639   2.199   0.367  0.00  0.00    +0.144 HD
ENDBRANCH   2  22
BRANCH   1  25
ATOM     25  C   UNL     1       0.770  -0.228   0.646  0.00  0.00    +0.128 C 
BRANCH  25  26
ATOM     26  C   UNL     1       0.778  -0.519   2.148  0.00  0.00    +0.021 C 
BRANCH  26  28
ATOM     27  C   UNL     1       1.031  -2.303   3.878  0.00  0.00    +0.004 C 
ATOM     28  C   UNL     1       1.023  -2.012   2.376  0.00  0.00    -0.002 C 
ENDBRANCH  26  28
ENDBRANCH  25  26
ENDBRANCH   1  25
TORSDOF 6
