REMARK  Name = ZINC08623121
REMARK  10 active torsions:
REMARK  status: ('A' for Active; 'I' for Inactive)
REMARK    1  A    between atoms: C_1  and  C_2
REMARK    2  A    between atoms: C_2  and  C_3
REMARK    3  A    between atoms: C_3  and  C_4
REMARK    4  A    between atoms: C_4  and  C_6
REMARK    5  A    between atoms: C_4  and  C_26
REMARK    6  A    between atoms: C_6  and  N_7
REMARK    7  A    between atoms: C_8  and  C_10
REMARK    8  A    between atoms: C_10  and  N_11
REMARK    9  A    between atoms: C_14  and  C_18
REMARK   10  A    between atoms: C_14  and  C_19
REMARK                            x       y       z     vdW  Elec       q    Type
REMARK                         _______ _______ _______ _____ _____    ______ ____
ROOT
ATOM      1  N   UNL     1       2.343  -3.596  -1.316  0.00  0.00    -0.313 N 
ATOM      2  C   UNL     1       1.874  -2.385  -0.957  0.00  0.00    +0.231 C 
ATOM      3  O   UNL     1       1.497  -1.605  -1.805  0.00  0.00    -0.274 OA
ATOM      4  H   UNL     1       2.645  -4.220  -0.637  0.00  0.00    +0.149 HD
ENDROOT
BRANCH   1   5
ATOM      5  C   UNL     1       2.397  -3.971  -2.731  0.00  0.00    +0.112 C 
BRANCH   5   6
ATOM      6  C   UNL     1       3.055  -5.345  -2.870  0.00  0.00    +0.038 C 
BRANCH   6   7
ATOM      7  C   UNL     1       2.987  -5.791  -4.308  0.00  0.00    -0.024 A 
ATOM      8  C   UNL     1       3.581  -5.030  -5.297  0.00  0.00    +0.007 A 
ATOM      9  C   UNL     1       3.523  -5.441  -6.615  0.00  0.00    +0.020 A 
ATOM     10  C   UNL     1       2.861  -6.611  -6.947  0.00  0.00    +0.042 A 
ATOM     11  C   UNL     1       2.262  -7.370  -5.959  0.00  0.00    +0.040 A 
ATOM     12  C   UNL     1       2.324  -6.960  -4.639  0.00  0.00    +0.046 A 
ATOM     13 CL   UNL     1       1.573  -7.913  -3.397  0.00  0.00    -0.083 Cl
ATOM     14 CL   UNL     1       2.783  -7.124  -8.604  0.00  0.00    -0.083 Cl
ENDBRANCH   6   7
BRANCH   6  15
ATOM     15  C   UNL     1       4.519  -5.257  -2.433  0.00  0.00    +0.009 C 
BRANCH  15  17
ATOM     16  C   UNL     1       6.564  -6.585  -1.890  0.00  0.00    +0.004 C 
ATOM     17  C   UNL     1       5.140  -6.654  -2.448  0.00  0.00    -0.003 C 
ENDBRANCH  15  17
ENDBRANCH   6  15
ENDBRANCH   5   6
ENDBRANCH   1   5
BRANCH   2  18
ATOM     18  C   UNL     1       1.818  -2.000   0.499  0.00  0.00    +0.213 C 
BRANCH  18  19
ATOM     19  N   UNL     1       1.274  -0.645   0.625  0.00  0.00    -0.215 N 
ATOM     20  C   UNL     1      -0.037  -0.365   0.762  0.00  0.00    +0.251 C 
ATOM     21  O   UNL     1      -0.954  -1.157   0.802  0.00  0.00    -0.272 OA
ATOM     22  C   UNL     1      -0.126   1.145   0.856  0.00  0.00    +0.135 C 
ATOM     23  N   UNL     1       1.277   1.581   0.752  0.00  0.00    -0.281 N 
ATOM     24  C   UNL     1       2.018   0.467   0.620  0.00  0.00    +0.310 C 
ATOM     25  O   UNL     1       3.229   0.469   0.509  0.00  0.00    -0.252 OA
ATOM     26  C   UNL     1      -0.722   1.566   2.201  0.00  0.00    +0.047 C 
ATOM     27  H   UNL     1       1.603   2.495   0.773  0.00  0.00    +0.152 HD
BRANCH  22  28
ATOM     28  C   UNL     1      -0.940   1.700  -0.284  0.00  0.00    -0.015 A 
ATOM     29  C   UNL     1      -1.952   0.942  -0.843  0.00  0.00    +0.007 A 
ATOM     30  C   UNL     1      -2.703   1.453  -1.885  0.00  0.00    +0.020 A 
ATOM     31  C   UNL     1      -2.435   2.719  -2.375  0.00  0.00    +0.041 A 
ATOM     32  C   UNL     1      -1.418   3.474  -1.819  0.00  0.00    +0.020 A 
ATOM     33  C   UNL     1      -0.671   2.964  -0.773  0.00  0.00    +0.007 A 
ATOM     34 CL   UNL     1      -3.373   3.358  -3.688  0.00  0.00    -0.084 Cl
ENDBRANCH  22  28
ENDBRANCH  18  19
ENDBRANCH   2  18
TORSDOF 8
