REMARK  Name = ZINC00351716
REMARK  7 active torsions:
REMARK  status: ('A' for Active; 'I' for Inactive)
REMARK    1  A    between atoms: C_1  and  O_2
REMARK    2  A    between atoms: O_2  and  C_3
REMARK    3  A    between atoms: C_3  and  C_5
REMARK    4  A    between atoms: C_7  and  C_17
REMARK    5  A    between atoms: C_9  and  C_15
REMARK    6  A    between atoms: C_10  and  N_14
REMARK    7  A    between atoms: C_12  and  N_13
REMARK                            x       y       z     vdW  Elec       q    Type
REMARK                         _______ _______ _______ _____ _____    ______ ____
ROOT
ATOM      1  C   UNL     1      -1.245  -2.034   0.031  0.00  0.00    +0.076 C 
ATOM      2  C   UNL     1       0.045  -2.764  -0.097  0.00  0.00    +0.101 C 
ATOM      3  C   UNL     1      -0.059  -4.139  -0.651  0.00  0.00    +0.069 C 
ATOM      4  C   UNL     1      -1.158  -4.920  -0.636  0.00  0.00    +0.079 C 
ATOM      5  S   UNL     1      -2.675  -4.357   0.057  0.00  0.00    -0.058 S 
ATOM      6  C   UNL     1      -2.476  -2.609   0.123  0.00  0.00    +0.076 C 
ENDROOT
BRANCH   2   7
ATOM      7  C   UNL     1       0.676  -2.854   1.269  0.00  0.00    -0.034 A 
ATOM      8  C   UNL     1       0.013  -3.500   2.295  0.00  0.00    +0.007 A 
ATOM      9  C   UNL     1       0.591  -3.583   3.548  0.00  0.00    +0.038 A 
ATOM     10  C   UNL     1       1.835  -3.019   3.774  0.00  0.00    +0.123 A 
ATOM     11  C   UNL     1       2.498  -2.373   2.745  0.00  0.00    +0.038 A 
ATOM     12  C   UNL     1       1.921  -2.295   1.492  0.00  0.00    +0.007 A 
ATOM     13  F   UNL     1       2.401  -3.100   4.998  0.00  0.00    -0.205 F 
ENDBRANCH   2   7
BRANCH   6  15
ATOM     14  H   UNL     1      -3.495  -0.846   0.205  0.00  0.00    +0.143 HD
ATOM     15  N   UNL     1      -3.582  -1.810   0.264  0.00  0.00    -0.352 N 
ATOM     16  H   UNL     1      -4.452  -2.210   0.422  0.00  0.00    +0.143 HD
ENDBRANCH   6  15
BRANCH   4  17
ATOM     17  N   UNL     1      -1.092  -6.183  -1.173  0.00  0.00    -0.352 N 
ATOM     18  H   UNL     1      -0.262  -6.504  -1.558  0.00  0.00    +0.143 HD
ATOM     19  H   UNL     1      -1.877  -6.754  -1.167  0.00  0.00    +0.143 HD
ENDBRANCH   4  17
BRANCH   1  20
ATOM     20  C   UNL     1      -1.187  -0.635   0.066  0.00  0.00    +0.338 C 
ATOM     21  O   UNL     1      -1.048  -0.005  -0.968  0.00  0.00    -0.245 OA
BRANCH  20  23
ATOM     22  C   UNL     1      -1.220   1.443   1.206  0.00  0.00    +0.280 C 
ATOM     23  O   UNL     1      -1.286   0.016   1.245  0.00  0.00    -0.465 OA
ENDBRANCH  20  23
ENDBRANCH   1  20
BRANCH   3  24
ATOM     24  C   UNL     1       1.117  -4.685  -1.260  0.00  0.00    +0.098 C 
ATOM     25  N   UNL     1       2.050  -5.118  -1.742  0.00  0.00    -0.191 NA
ENDBRANCH   3  24
TORSDOF 6
