REMARK  Name = ZINC20294094
REMARK  10 active torsions:
REMARK  status: ('A' for Active; 'I' for Inactive)
REMARK    1  A    between atoms: C_1  and  C_2
REMARK    2  A    between atoms: C_3  and  C_27
REMARK    3  A    between atoms: C_4  and  C_23
REMARK    4  A    between atoms: C_5  and  N_7
REMARK    5  A    between atoms: N_7  and  C_8
REMARK    6  A    between atoms: C_8  and  N_10
REMARK    7  A    between atoms: N_10  and  N_11
REMARK    8  A    between atoms: C_12  and  C_14
REMARK    9  A    between atoms: C_23  and  O_25
REMARK   10  A    between atoms: O_25  and  C_26
REMARK                            x       y       z     vdW  Elec       q    Type
REMARK                         _______ _______ _______ _____ _____    ______ ____
ROOT
ATOM      1  N   UNL     1      -2.373  -0.388   0.011  0.00  0.00    -0.290 N 
ATOM      2  H   UNL     1      -1.413  -0.924   0.004  0.00  0.00    +0.154 HD
ENDROOT
BRANCH   1   7
ATOM      3  C   UNL     1      -7.583  -2.207   0.026  0.00  0.00    +0.052 C 
ATOM      4  C   UNL     1      -6.090  -2.007   0.020  0.00  0.00    -0.003 A 
ATOM      5  C   UNL     1      -5.114  -2.951   0.011  0.00  0.00    +0.008 A 
ATOM      6  C   UNL     1      -3.744  -2.473   0.001  0.00  0.00    +0.095 A 
ATOM      7  C   UNL     1      -3.563  -1.096   0.013  0.00  0.00    +0.086 A 
ATOM      8  S   UNL     1      -5.180  -0.477   0.023  0.00  0.00    -0.077 S 
BRANCH   5   9
ATOM      9  C   UNL     1      -5.433  -4.399   0.004  0.00  0.00    -0.016 A 
ATOM     10  C   UNL     1      -5.075  -5.199   1.089  0.00  0.00    +0.008 A 
ATOM     11  C   UNL     1      -5.380  -6.545   1.080  0.00  0.00    +0.001 A 
ATOM     12  C   UNL     1      -6.028  -7.103  -0.007  0.00  0.00    +0.000 A 
ATOM     13  C   UNL     1      -6.380  -6.315  -1.089  0.00  0.00    +0.001 A 
ATOM     14  C   UNL     1      -6.086  -4.967  -1.089  0.00  0.00    +0.008 A 
ENDBRANCH   5   9
BRANCH   6  15
ATOM     15  C   UNL     1      -2.610  -3.396  -0.017  0.00  0.00    +0.342 C 
ATOM     16  O   UNL     1      -2.130  -3.791   1.029  0.00  0.00    -0.245 OA
BRANCH  15  17
ATOM     17  O   UNL     1      -2.095  -3.810  -1.194  0.00  0.00    -0.464 OA
ATOM     18  C   UNL     1      -0.988  -4.711  -1.137  0.00  0.00    +0.280 C 
ENDBRANCH  15  17
ENDBRANCH   6  15
ENDBRANCH   1   7
BRANCH   1  19
ATOM     19  C   UNL     1      -2.392   0.960   0.019  0.00  0.00    +0.151 C 
ATOM     20  S   UNL     1      -3.886   1.796   0.030  0.00  0.00    -0.017 S 
BRANCH  19  21
ATOM     21  N   UNL     1      -1.234   1.650   0.017  0.00  0.00    -0.245 N 
ATOM     22  H   UNL     1      -1.249   2.750   0.023  0.00  0.00    +0.172 HD
BRANCH  21  23
ATOM     23  N   UNL     1      -0.011   0.966   0.007  0.00  0.00    -0.231 N 
ATOM     24  C   UNL     1       1.147   1.655   0.000  0.00  0.00    +0.261 C 
ATOM     25  O   UNL     1       1.130   2.872   0.007  0.00  0.00    -0.269 OA
ATOM     26  H   UNL     1       0.004  -0.134   0.006  0.00  0.00    +0.173 HD
BRANCH  24  27
ATOM     27  C   UNL     1       2.431   0.937  -0.016  0.00  0.00    +0.049 A 
ATOM     28  C   UNL     1       2.476  -0.440  -0.025  0.00  0.00    +0.058 A 
ATOM     29  S   UNL     1       4.175  -0.781  -0.043  0.00  0.00    -0.101 S 
ATOM     30  C   UNL     1       4.797   0.876  -0.040  0.00  0.00    -0.006 A 
ATOM     31  C   UNL     1       3.691   1.656  -0.030  0.00  0.00    -0.025 A 
ATOM     32  C   UNL     1       3.804   3.175  -0.015  0.00  0.00    +0.037 C 
ATOM     33  C   UNL     1       5.216   3.561   0.430  0.00  0.00    +0.005 C 
ATOM     34  C   UNL     1       6.251   2.821  -0.422  0.00  0.00    +0.005 C 
ATOM     35  C   UNL     1       6.223   1.331  -0.053  0.00  0.00    +0.043 C 
ENDBRANCH  24  27
ENDBRANCH  21  23
ENDBRANCH  19  21
ENDBRANCH   1  19
TORSDOF 8
