REMARK  Name = ZINC39658977
REMARK  7 active torsions:
REMARK  status: ('A' for Active; 'I' for Inactive)
REMARK    1  A    between atoms: C_1  and  C_2
REMARK    2  A    between atoms: C_2  and  C_37
REMARK    3  A    between atoms: C_5  and  C_8
REMARK    4  A    between atoms: C_8  and  N_9
REMARK    5  A    between atoms: C_10  and  C_12
REMARK    6  A    between atoms: C_23  and  C_25
REMARK    7  A    between atoms: C_31  and  C_33
REMARK                            x       y       z     vdW  Elec       q    Type
REMARK                         _______ _______ _______ _____ _____    ______ ____
ROOT
ATOM      1  C   UNL     1       3.644  -2.112   5.177  0.00  0.00    +0.100 C 
ATOM      2  C   UNL     1       2.518  -1.395   5.955  0.00  0.00    +0.121 C 
ATOM      3  N   UNL     1       2.984  -1.383   7.362  0.00  0.00    -0.299 N 
ATOM      4  C   UNL     1       4.438  -1.111   7.266  0.00  0.00    +0.115 C 
ATOM      5  C   UNL     1       4.903  -1.922   6.040  0.00  0.00    -0.004 C 
ATOM      6  C   UNL     1       5.963  -1.145   5.265  0.00  0.00    -0.010 C 
ATOM      7  C   UNL     1       7.226  -1.020   6.122  0.00  0.00    -0.082 C 
ATOM      8  N   UNL     1       7.723  -2.358   6.462  0.00  0.00    +0.379 N 
ATOM      9  C   UNL     1       6.735  -3.064   7.287  0.00  0.00    -0.082 C 
ATOM     10  C   UNL     1       5.451  -3.276   6.479  0.00  0.00    -0.010 C 
ATOM     11  C   UNL     1       2.252  -1.576   8.476  0.00  0.00    +0.236 C 
ATOM     12  O   UNL     1       2.783  -1.534   9.566  0.00  0.00    -0.274 OA
ATOM     13  H   UNL     1       7.887  -2.881   5.615  0.00  0.00    -0.086 HD
ATOM     14  H   UNL     1       8.588  -2.274   6.975  0.00  0.00    -0.086 HD
ENDROOT
BRANCH  11  15
ATOM     15  C   UNL     1       0.772  -1.843   8.369  0.00  0.00    +0.162 C 
ATOM     16  C   UNL     1       0.013  -0.515   8.161  0.00  0.00    +0.033 C 
ATOM     17  C   UNL     1      -1.269  -0.712   9.013  0.00  0.00    +0.021 C 
ATOM     18  C   UNL     1      -0.726  -1.533  10.209  0.00  0.00    +0.109 C 
ATOM     19  N   UNL     1       0.280  -2.440   9.619  0.00  0.00    -0.283 N 
ATOM     20  C   UNL     1       0.680  -3.618  10.138  0.00  0.00    +0.320 C 
ATOM     21  O   UNL     1       1.517  -4.281   9.562  0.00  0.00    -0.266 OA
BRANCH  20  22
ATOM     22  C   UNL     1       0.088  -4.111  11.433  0.00  0.00    +0.470 C 
ATOM     23  F   UNL     1       0.657  -5.345  11.766  0.00  0.00    -0.162 F 
ATOM     24  F   UNL     1       0.354  -3.186  12.449  0.00  0.00    -0.162 F 
ATOM     25  F   UNL     1      -1.295  -4.259  11.287  0.00  0.00    -0.162 F 
ENDBRANCH  20  22
ENDBRANCH  11  15
BRANCH   1  27
ATOM     26  N   UNL     1       4.295  -2.209   2.792  0.00  0.00    -0.312 N 
ATOM     27  C   UNL     1       3.835  -1.475   3.824  0.00  0.00    +0.218 C 
ATOM     28  O   UNL     1       3.573  -0.301   3.664  0.00  0.00    -0.275 OA
ATOM     29  H   UNL     1       4.504  -3.148   2.920  0.00  0.00    +0.149 HD
BRANCH  26  30
ATOM     30  C   UNL     1       4.480  -1.591   1.478  0.00  0.00    +0.138 C 
BRANCH  30  35
ATOM     31  C   UNL     1       2.796  -3.475  -1.948  0.00  0.00    +0.074 C 
ATOM     32  C   UNL     1       4.095  -3.869  -1.241  0.00  0.00    +0.165 C 
ATOM     33  O   UNL     1       5.188  -3.104  -1.778  0.00  0.00    -0.347 OA
ATOM     34  C   UNL     1       5.334  -1.982  -0.875  0.00  0.00    +0.196 C 
ATOM     35  C   UNL     1       5.009  -2.635   0.492  0.00  0.00    +0.164 C 
ATOM     36  O   UNL     1       3.984  -3.593   0.161  0.00  0.00    -0.342 OA
ATOM     37  C   UNL     1       4.363  -5.361  -1.452  0.00  0.00    +0.074 C 
ENDBRANCH  30  35
ENDBRANCH  26  30
ENDBRANCH   1  27
TORSDOF 5
