REMARK  Name = ZINC34933792
REMARK  10 active torsions:
REMARK  status: ('A' for Active; 'I' for Inactive)
REMARK    1  A    between atoms: C_1  and  C_2
REMARK    2  A    between atoms: C_6  and  O_39
REMARK    3  A    between atoms: C_7  and  O_37
REMARK    4  A    between atoms: N_12  and  C_13
REMARK    5  A    between atoms: C_13  and  C_14
REMARK    6  A    between atoms: C_16  and  C_22
REMARK    7  A    between atoms: C_19  and  O_20
REMARK    8  A    between atoms: O_20  and  C_21
REMARK    9  A    between atoms: O_37  and  C_38
REMARK   10  A    between atoms: O_39  and  C_40
REMARK                            x       y       z     vdW  Elec       q    Type
REMARK                         _______ _______ _______ _____ _____    ______ ____
ROOT
ATOM      1  C   UNL     1       2.849  -0.478   2.362  0.00  0.00    -0.022 A 
ATOM      2  C   UNL     1       3.700  -1.567   2.373  0.00  0.00    +0.011 A 
ATOM      3  C   UNL     1       4.354  -1.922   3.539  0.00  0.00    -0.024 A 
ATOM      4  C   UNL     1       4.159  -1.188   4.695  0.00  0.00    +0.009 A 
ATOM      5  C   UNL     1       3.309  -0.099   4.688  0.00  0.00    +0.046 A 
ATOM      6  C   UNL     1       2.656   0.262   3.518  0.00  0.00    +0.121 A 
ENDROOT
BRANCH   3   7
ATOM      7  C   UNL     1       5.280  -3.110   3.549  0.00  0.00    +0.131 C 
ATOM      8  C   UNL     1       4.572  -4.301   4.149  0.00  0.00    +0.042 A 
ATOM      9  C   UNL     1       5.155  -5.134   5.041  0.00  0.00    -0.016 A 
ATOM     10  C   UNL     1       4.178  -6.142   5.387  0.00  0.00    +0.003 A 
ATOM     11  C   UNL     1       4.212  -7.245   6.247  0.00  0.00    +0.010 A 
ATOM     12  C   UNL     1       3.071  -8.002   6.331  0.00  0.00    +0.001 A 
ATOM     13  C   UNL     1       1.931  -7.700   5.603  0.00  0.00    +0.002 A 
ATOM     14  C   UNL     1       1.869  -6.617   4.744  0.00  0.00    +0.026 A 
ATOM     15  C   UNL     1       3.014  -5.829   4.638  0.00  0.00    +0.047 A 
ATOM     16  N   UNL     1       3.290  -4.712   3.902  0.00  0.00    -0.356 N 
ATOM     17  H   UNL     1       2.671  -4.276   3.297  0.00  0.00    +0.166 HD
ATOM     18  C   UNL     1       6.572  -4.969   5.529  0.00  0.00    +0.052 C 
ATOM     19  C   UNL     1       7.293  -4.004   4.577  0.00  0.00    +0.086 C 
ATOM     20  N   UNL     1       6.465  -2.806   4.368  0.00  0.00    -0.304 NA
ATOM     21  H   UNL     1       7.004  -2.057   3.960  0.00  0.00    +0.123 HD
ENDBRANCH   3   7
BRANCH   6  22
ATOM     22  O   UNL     1       1.824   1.337   3.508  0.00  0.00    -0.495 OA
ATOM     23  C   UNL     1       1.673   2.053   4.735  0.00  0.00    +0.277 C 
ENDBRANCH   6  22
BRANCH   1  24
ATOM     24  C   UNL     1       2.136  -0.093   1.091  0.00  0.00    -0.038 C 
BRANCH  24  35
ATOM     25  C   UNL     1      -0.019   1.526   0.010  0.00  0.00    -0.008 C 
ATOM     26  C   UNL     1       0.002  -0.004   0.002  0.00  0.00    -0.040 C 
ATOM     27  C   UNL     1      -1.413  -0.520  -0.001  0.00  0.00    -0.054 A 
ATOM     28  C   UNL     1      -2.350   0.123  -0.797  0.00  0.00    +0.051 A 
ATOM     29  C   UNL     1      -3.660  -0.319  -0.833  0.00  0.00    +0.162 A 
ATOM     30  C   UNL     1      -4.039  -1.415  -0.064  0.00  0.00    +0.162 A 
ATOM     31  C   UNL     1      -3.103  -2.053   0.730  0.00  0.00    +0.053 A 
ATOM     32  C   UNL     1      -1.791  -1.605   0.762  0.00  0.00    -0.044 A 
ATOM     33  C   UNL     1      -0.804  -2.324   1.647  0.00  0.00    +0.017 C 
ATOM     34  C   UNL     1       0.622  -1.950   1.244  0.00  0.00    -0.073 C 
ATOM     35  N   UNL     1       0.723  -0.484   1.184  0.00  0.00    +0.387 N 
ATOM     36  H   UNL     1       0.314  -0.083   2.015  0.00  0.00    -0.080 HD
BRANCH  30  37
ATOM     37  O   UNL     1      -5.325  -1.858  -0.092  0.00  0.00    -0.491 OA
ATOM     38  C   UNL     1      -5.640  -2.989   0.723  0.00  0.00    +0.277 C 
ENDBRANCH  30  37
BRANCH  29  39
ATOM     39  O   UNL     1      -4.573   0.315  -1.615  0.00  0.00    -0.491 OA
ATOM     40  C   UNL     1      -4.111   1.432  -2.377  0.00  0.00    +0.277 C 
ENDBRANCH  29  39
ENDBRANCH  24  35
ENDBRANCH   1  24
TORSDOF 6
