REMARK  Name = ZINC33277194
REMARK  10 active torsions:
REMARK  status: ('A' for Active; 'I' for Inactive)
REMARK    1  A    between atoms: C_1  and  C_2
REMARK    2  A    between atoms: C_5  and  N_9
REMARK    3  A    between atoms: C_6  and  C_8
REMARK    4  A    between atoms: C_10  and  C_12
REMARK    5  A    between atoms: C_12  and  S_13
REMARK    6  A    between atoms: S_13  and  C_14
REMARK    7  A    between atoms: C_23  and  C_26
REMARK    8  A    between atoms: N_28  and  C_29
REMARK    9  A    between atoms: C_29  and  C_30
REMARK   10  A    between atoms: C_29  and  C_31
REMARK                            x       y       z     vdW  Elec       q    Type
REMARK                         _______ _______ _______ _____ _____    ______ ____
ROOT
ATOM      1  C   UNL     1      -7.553   4.177   1.725  0.00  0.00    +0.120 A 
ATOM      2  C   UNL     1      -6.612   4.452   2.719  0.00  0.00    +0.040 A 
ATOM      3  C   UNL     1      -5.360   3.875   2.604  0.00  0.00    +0.048 A 
ATOM      4  C   UNL     1      -5.117   3.052   1.503  0.00  0.00    +0.144 A 
ATOM      5  N   UNL     1      -6.069   2.852   0.607  0.00  0.00    -0.133 NA
ATOM      6  N   UNL     1      -7.232   3.383   0.716  0.00  0.00    -0.141 NA
ATOM      7  N   UNL     1      -3.871   2.448   1.344  0.00  0.00    -0.314 N 
ATOM      8  C   UNL     1      -3.834   1.631   0.125  0.00  0.00    +0.107 C 
ATOM      9  C   UNL     1      -2.507   0.870   0.059  0.00  0.00    +0.031 C 
ATOM     10  C   UNL     1      -1.349   1.871   0.060  0.00  0.00    +0.078 C 
ATOM     11  C   UNL     1      -1.439   2.742   1.316  0.00  0.00    +0.031 C 
ATOM     12  C   UNL     1      -2.796   3.449   1.345  0.00  0.00    +0.107 C 
ENDROOT
BRANCH  10  13
ATOM     13  C   UNL     1      -0.039   1.127   0.056  0.00  0.00    +0.216 C 
ATOM     14  O   UNL     1      -0.031  -0.086   0.053  0.00  0.00    -0.276 OA
ATOM     15  N   UNL     1       1.123   1.808   0.050  0.00  0.00    -0.313 N 
ATOM     16  H   UNL     1       1.116   2.909   0.053  0.00  0.00    +0.149 HD
BRANCH  15  17
ATOM     17  C   UNL     1       2.397   1.085   0.040  0.00  0.00    +0.067 C 
ATOM     18  C   UNL     1       2.769   0.727  -1.400  0.00  0.00    +0.027 C 
ATOM     19  C   UNL     1       3.490   1.968   0.645  0.00  0.00    +0.027 C 
ENDBRANCH  15  17
ENDBRANCH  10  13
BRANCH   1  20
ATOM     20  S   UNL     1      -9.165   4.883   1.815  0.00  0.00    -0.095 S 
BRANCH  20  21
ATOM     21  C   UNL     1     -10.005   4.249   0.338  0.00  0.00    +0.172 C 
BRANCH  21  23
ATOM     22  N   UNL     1     -12.231   4.444  -0.723  0.00  0.00    -0.285 N 
ATOM     23  C   UNL     1     -11.413   4.784   0.293  0.00  0.00    +0.227 C 
ATOM     24  O   UNL     1     -11.811   5.521   1.170  0.00  0.00    -0.275 OA
ATOM     25  H   UNL     1     -11.845   3.850  -1.565  0.00  0.00    +0.155 HD
BRANCH  22  30
ATOM     26  C   UNL     1     -17.665   6.073  -0.658  0.00  0.00    +0.044 C 
ATOM     27  C   UNL     1     -16.222   5.640  -0.675  0.00  0.00    -0.050 A 
ATOM     28  C   UNL     1     -15.524   5.516   0.512  0.00  0.00    +0.005 A 
ATOM     29  C   UNL     1     -14.201   5.119   0.500  0.00  0.00    +0.024 A 
ATOM     30  C   UNL     1     -13.571   4.846  -0.707  0.00  0.00    +0.036 A 
ATOM     31  C   UNL     1     -14.273   4.977  -1.898  0.00  0.00    -0.029 A 
ATOM     32  C   UNL     1     -15.597   5.369  -1.879  0.00  0.00    +0.008 A 
ATOM     33  C   UNL     1     -13.591   4.687  -3.211  0.00  0.00    +0.045 C 
ENDBRANCH  22  30
ENDBRANCH  21  23
ENDBRANCH  20  21
ENDBRANCH   1  20
TORSDOF 6
