REMARK  Name = ZINC66260862
REMARK  6 active torsions:
REMARK  status: ('A' for Active; 'I' for Inactive)
REMARK    1  A    between atoms: C_1  and  C_2
REMARK    2  A    between atoms: C_5  and  C_9
REMARK    3  A    between atoms: C_6  and  C_8
REMARK    4  A    between atoms: C_12  and  S_14
REMARK    5  A    between atoms: S_14  and  C_15
REMARK    6  A    between atoms: C_15  and  C_16
REMARK                            x       y       z     vdW  Elec       q    Type
REMARK                         _______ _______ _______ _____ _____    ______ ____
ROOT
ATOM      1  S   UNL     1       0.107  -7.772  -1.648  0.00  0.00    -0.058 S 
ENDROOT
BRANCH   1   5
ATOM      2  C   UNL     1       0.061  -4.250  -0.021  0.00  0.00    +0.249 A 
ATOM      3  N   UNL     1       0.071  -5.032   1.031  0.00  0.00    -0.106 NA
ATOM      4  N   UNL     1       0.087  -6.261   0.650  0.00  0.00    -0.101 NA
ATOM      5  C   UNL     1       0.087  -6.312  -0.662  0.00  0.00    +0.278 A 
ATOM      6  O   UNL     1       0.066  -5.045  -1.115  0.00  0.00    -0.411 OA
BRANCH   2  11
ATOM      7  C   UNL     1      -0.018   1.503   0.010  0.00  0.00    +0.044 C 
ATOM      8  C   UNL     1       0.002  -0.004   0.002  0.00  0.00    -0.050 A 
ATOM      9  C   UNL     1       0.006  -0.686  -1.202  0.00  0.00    +0.004 A 
ATOM     10  C   UNL     1       0.025  -2.065  -1.217  0.00  0.00    +0.014 A 
ATOM     11  C   UNL     1       0.041  -2.773  -0.013  0.00  0.00    +0.041 A 
ATOM     12  C   UNL     1       0.037  -2.079   1.198  0.00  0.00    -0.038 A 
ATOM     13  C   UNL     1       0.023  -0.699   1.198  0.00  0.00    +0.007 A 
ATOM     14  C   UNL     1       0.053  -2.834   2.502  0.00  0.00    +0.044 C 
ENDBRANCH   2  11
ENDBRANCH   1   5
BRANCH   1  15
ATOM     15  C   UNL     1       0.123  -9.121  -0.435  0.00  0.00    +0.153 C 
BRANCH  15  16
ATOM     16  C   UNL     1       0.141 -10.444  -1.156  0.00  0.00    +0.121 A 
ATOM     17  N   UNL     1       0.149 -11.582  -0.414  0.00  0.00    -0.310 N 
ATOM     18  H   UNL     1       0.145 -11.525   0.554  0.00  0.00    +0.170 HD
ATOM     19  C   UNL     1       0.165 -12.796  -1.013  0.00  0.00    +0.259 A 
ATOM     20  O   UNL     1       0.172 -13.823  -0.361  0.00  0.00    -0.267 OA
ATOM     21  C   UNL     1       0.171 -12.825  -2.484  0.00  0.00    +0.065 A 
ATOM     22  C   UNL     1       0.187 -14.021  -3.197  0.00  0.00    +0.015 A 
ATOM     23  C   UNL     1       0.194 -13.990  -4.575  0.00  0.00    +0.001 A 
ATOM     24  C   UNL     1       0.184 -12.778  -5.254  0.00  0.00    +0.002 A 
ATOM     25  C   UNL     1       0.169 -11.585  -4.567  0.00  0.00    +0.028 A 
ATOM     26  C   UNL     1       0.162 -11.591  -3.171  0.00  0.00    +0.078 A 
ATOM     27  N   UNL     1       0.141 -10.439  -2.454  0.00  0.00    -0.233 NA
ENDBRANCH  15  16
ENDBRANCH   1  15
TORSDOF 4
