REMARK  Name = ZINC58871591
REMARK  5 active torsions:
REMARK  status: ('A' for Active; 'I' for Inactive)
REMARK    1  A    between atoms: C_1  and  C_2
REMARK    2  A    between atoms: C_3  and  C_11
REMARK    3  A    between atoms: C_7  and  N_8
REMARK    4  A    between atoms: N_13  and  N_14
REMARK    5  A    between atoms: C_15  and  C_16
REMARK                            x       y       z     vdW  Elec       q    Type
REMARK                         _______ _______ _______ _____ _____    ______ ____
ROOT
ATOM      1  C   UNL     1      -0.769  -0.165  -2.475  0.00  0.00    +0.264 C 
ATOM      2  O   UNL     1      -0.933   1.038  -2.530  0.00  0.00    -0.268 OA
ATOM      3  N   UNL     1      -0.960  -0.922  -3.574  0.00  0.00    -0.203 N 
ATOM      4  H   UNL     1      -0.829  -1.882  -3.530  0.00  0.00    +0.178 HD
ENDROOT
BRANCH   1   7
ATOM      5  C   UNL     1      -0.618   1.431  -0.066  0.00  0.00    +0.047 C 
ATOM      6  C   UNL     1      -0.285  -0.038  -0.035  0.00  0.00    -0.008 A 
ATOM      7  C   UNL     1      -0.361  -0.798  -1.204  0.00  0.00    +0.043 A 
ATOM      8  C   UNL     1      -0.050  -2.158  -1.166  0.00  0.00    +0.013 A 
ATOM      9  C   UNL     1       0.330  -2.743   0.025  0.00  0.00    +0.003 A 
ATOM     10  C   UNL     1       0.403  -1.984   1.179  0.00  0.00    +0.033 A 
ATOM     11  C   UNL     1       0.102  -0.634   1.148  0.00  0.00    +0.130 A 
BRANCH  11  12
ATOM     12  N   UNL     1       0.189   0.171   2.387  0.00  0.00    +0.057 N 
ATOM     13  O   UNL     1       0.396  -0.371   3.447  0.00  0.00    -0.126 OA
ATOM     14  O   UNL     1       0.053   1.372   2.338  0.00  0.00    -0.126 OA
ENDBRANCH  11  12
ENDBRANCH   1   7
BRANCH   3  15
ATOM     15  N   UNL     1      -1.347  -0.322  -4.779  0.00  0.00    -0.187 NA
ATOM     16  C   UNL     1      -1.531  -1.051  -5.837  0.00  0.00    +0.138 C 
BRANCH  16  17
ATOM     17  C   UNL     1      -1.939  -0.419  -7.106  0.00  0.00    -0.005 A 
ATOM     18  C   UNL     1      -2.123   0.964  -7.174  0.00  0.00    +0.010 A 
ATOM     19  C   UNL     1      -2.504   1.548  -8.363  0.00  0.00    +0.016 A 
ATOM     20  C   UNL     1      -2.705   0.767  -9.489  0.00  0.00    +0.018 A 
ATOM     21  C   UNL     1      -2.525  -0.605  -9.428  0.00  0.00    +0.016 A 
ATOM     22  C   UNL     1      -2.137  -1.201  -8.246  0.00  0.00    +0.010 A 
ATOM     23 BR   UNL     1      -3.227   1.576 -11.116  0.00  0.00    -0.050 Br
ENDBRANCH  16  17
ENDBRANCH   3  15
TORSDOF 4
