REMARK  Name = ZINC39678157
REMARK  10 active torsions:
REMARK  status: ('A' for Active; 'I' for Inactive)
REMARK    1  A    between atoms: C_1  and  C_2
REMARK    2  A    between atoms: C_2  and  C_3
REMARK    3  A    between atoms: C_3  and  C_4
REMARK    4  A    between atoms: C_4  and  C_5
REMARK    5  A    between atoms: C_5  and  C_7
REMARK    6  A    between atoms: C_5  and  C_8
REMARK    7  A    between atoms: C_12  and  C_21
REMARK    8  A    between atoms: N_23  and  C_24
REMARK    9  A    between atoms: C_24  and  C_25
REMARK   10  A    between atoms: C_28  and  N_31
REMARK                            x       y       z     vdW  Elec       q    Type
REMARK                         _______ _______ _______ _____ _____    ______ ____
ROOT
ATOM      1  C   UNL     1       1.576  -3.970  -2.490  0.00  0.00    +0.218 C 
ATOM      2  O   UNL     1       1.145  -4.575  -1.531  0.00  0.00    -0.275 OA
ATOM      3  N   UNL     1       2.183  -4.638  -3.491  0.00  0.00    -0.300 N 
ATOM      4  C   UNL     1       2.774  -4.078  -4.730  0.00  0.00    +0.121 C 
ATOM      5  C   UNL     1       4.064  -4.897  -4.952  0.00  0.00    +0.100 C 
ATOM      6  C   UNL     1       3.820  -6.223  -4.211  0.00  0.00    -0.004 C 
ATOM      7  C   UNL     1       2.418  -6.098  -3.599  0.00  0.00    +0.115 C 
ATOM      8  C   UNL     1       3.868  -7.392  -5.190  0.00  0.00    -0.010 C 
ATOM      9  C   UNL     1       3.681  -8.703  -4.421  0.00  0.00    -0.082 C 
ATOM     10  N   UNL     1       4.740  -8.838  -3.415  0.00  0.00    +0.379 N 
ATOM     11  C   UNL     1       4.630  -7.761  -2.424  0.00  0.00    -0.082 C 
ATOM     12  C   UNL     1       4.857  -6.410  -3.108  0.00  0.00    -0.010 C 
ATOM     13  H   UNL     1       4.651  -9.730  -2.951  0.00  0.00    -0.086 HD
ATOM     14  H   UNL     1       5.641  -8.786  -3.867  0.00  0.00    -0.086 HD
ENDROOT
BRANCH   5  15
ATOM     15  C   UNL     1       4.280  -5.147  -6.423  0.00  0.00    +0.218 C 
ATOM     16  O   UNL     1       3.329  -5.317  -7.155  0.00  0.00    -0.275 OA
ATOM     17  N   UNL     1       5.531  -5.183  -6.924  0.00  0.00    -0.311 N 
ATOM     18  H   UNL     1       6.292  -5.047  -6.338  0.00  0.00    +0.149 HD
BRANCH  17  19
ATOM     19  C   UNL     1       5.741  -5.426  -8.353  0.00  0.00    +0.139 C 
BRANCH  19  20
ATOM     20  C   UNL     1       7.218  -5.416  -8.653  0.00  0.00    -0.030 A 
ATOM     21  C   UNL     1       7.845  -4.231  -8.992  0.00  0.00    +0.007 A 
ATOM     22  C   UNL     1       9.198  -4.219  -9.268  0.00  0.00    +0.023 A 
ATOM     23  C   UNL     1       9.929  -5.398  -9.203  0.00  0.00    +0.030 A 
ATOM     24  C   UNL     1       9.296  -6.586  -8.862  0.00  0.00    +0.023 A 
ATOM     25  C   UNL     1       7.944  -6.591  -8.582  0.00  0.00    +0.007 A 
BRANCH  23  26
ATOM     26  N   UNL     1      11.298  -5.389  -9.482  0.00  0.00    -0.326 N 
ATOM     27  C   UNL     1      12.065  -6.643  -9.549  0.00  0.00    +0.133 C 
ATOM     28  C   UNL     1      12.862  -6.652 -10.859  0.00  0.00    +0.178 C 
ATOM     29  O   UNL     1      13.614  -5.441 -10.961  0.00  0.00    -0.377 OA
ATOM     30  C   UNL     1      12.813  -4.258 -11.018  0.00  0.00    +0.178 C 
ATOM     31  C   UNL     1      12.014  -4.126  -9.722  0.00  0.00    +0.133 C 
ENDBRANCH  23  26
ENDBRANCH  19  20
ENDBRANCH  17  19
ENDBRANCH   5  15
BRANCH   1  32
ATOM     32  C   UNL     1       1.431  -2.472  -2.563  0.00  0.00    +0.072 C 
ATOM     33  C   UNL     1       0.619  -2.097  -3.804  0.00  0.00    +0.017 C 
BRANCH  32  34
ATOM     34  C   UNL     1       0.712  -1.968  -1.310  0.00  0.00    +0.012 C 
BRANCH  34  35
ATOM     35  C   UNL     1       0.675  -0.438  -1.324  0.00  0.00    +0.000 C 
BRANCH  35  37
ATOM     36  C   UNL     1      -0.081   1.596  -0.085  0.00  0.00    +0.004 C 
ATOM     37  C   UNL     1      -0.044   0.066  -0.072  0.00  0.00    -0.003 C 
ENDBRANCH  35  37
ENDBRANCH  34  35
ENDBRANCH  32  34
ENDBRANCH   1  32
TORSDOF 8
