REMARK  Name = ZINC40154235
REMARK  5 active torsions:
REMARK  status: ('A' for Active; 'I' for Inactive)
REMARK    1  A    between atoms: C_5  and  C_6
REMARK    2  A    between atoms: N_11  and  C_12
REMARK    3  A    between atoms: C_12  and  C_13
REMARK    4  A    between atoms: C_13  and  C_14
REMARK    5  A    between atoms: N_16  and  N_17
REMARK                            x       y       z     vdW  Elec       q    Type
REMARK                         _______ _______ _______ _____ _____    ______ ____
ROOT
ATOM      1  C   UNL     1      -3.081  -2.974  -3.971  0.00  0.00    +0.228 C 
ATOM      2  O   UNL     1      -3.921  -2.100  -3.933  0.00  0.00    -0.274 OA
ATOM      3  N   UNL     1      -3.103  -3.889  -4.960  0.00  0.00    -0.224 N 
ATOM      4  H   UNL     1      -2.432  -4.588  -4.990  0.00  0.00    +0.174 HD
ENDROOT
BRANCH   3   5
ATOM      5  N   UNL     1      -4.098  -3.830  -5.946  0.00  0.00    -0.137 N 
ATOM      6  C   UNL     1      -5.158  -4.662  -6.003  0.00  0.00    +0.263 C 
ATOM      7  O   UNL     1      -5.423  -5.568  -5.242  0.00  0.00    -0.271 OA
ATOM      8  C   UNL     1      -5.948  -4.227  -7.216  0.00  0.00    +0.114 C 
ATOM      9  C   UNL     1      -7.345  -3.773  -6.807  0.00  0.00    +0.035 C 
ATOM     10  C   UNL     1      -8.116  -3.308  -8.045  0.00  0.00    +0.003 C 
ATOM     11  C   UNL     1      -8.209  -4.460  -9.049  0.00  0.00    +0.000 C 
ATOM     12  C   UNL     1      -6.800  -4.887  -9.467  0.00  0.00    +0.003 C 
ATOM     13  C   UNL     1      -6.024  -5.358  -8.235  0.00  0.00    +0.035 C 
ATOM     14  N   UNL     1      -5.178  -3.099  -7.756  0.00  0.00    -0.284 N 
ATOM     15  C   UNL     1      -4.116  -2.938  -6.944  0.00  0.00    +0.326 C 
ATOM     16  O   UNL     1      -3.268  -2.082  -7.101  0.00  0.00    -0.251 OA
ATOM     17  H   UNL     1      -5.394  -2.571  -8.541  0.00  0.00    +0.151 HD
ENDBRANCH   3   5
BRANCH   1  18
ATOM     18  C   UNL     1      -2.011  -3.037  -2.911  0.00  0.00    +0.079 C 
BRANCH  18  19
ATOM     19  C   UNL     1      -2.212  -1.893  -1.915  0.00  0.00    -0.069 C 
BRANCH  19  24
ATOM     20  C   UNL     1      -1.286  -0.786   0.011  0.00  0.00    -0.037 C 
ATOM     21  C   UNL     1      -1.567  -1.319   1.431  0.00  0.00    -0.013 C 
ATOM     22  C   UNL     1      -2.156  -2.729   1.166  0.00  0.00    -0.020 C 
ATOM     23  C   UNL     1      -1.339  -3.182  -0.070  0.00  0.00    -0.078 C 
ATOM     24  N   UNL     1      -1.169  -1.954  -0.882  0.00  0.00    +0.385 N 
ATOM     25  H   UNL     1      -0.260  -1.958  -1.319  0.00  0.00    -0.081 HD
BRANCH  20  30
ATOM     26  C   UNL     1      -0.017   1.378   0.010  0.00  0.00    +0.009 A 
ATOM     27  C   UNL     1       1.160   2.051   0.002  0.00  0.00    +0.045 A 
ATOM     28  S   UNL     1       2.348   0.719  -0.017  0.00  0.00    -0.105 S 
ATOM     29  C   UNL     1       1.196  -0.645  -0.013  0.00  0.00    +0.047 A 
ATOM     30  C   UNL     1       0.002  -0.004   0.002  0.00  0.00    -0.054 A 
ENDBRANCH  20  30
ENDBRANCH  19  24
ENDBRANCH  18  19
ENDBRANCH   1  18
TORSDOF 5
