REMARK  Name = ZINC44167476
REMARK  10 active torsions:
REMARK  status: ('A' for Active; 'I' for Inactive)
REMARK    1  A    between atoms: C_1  and  C_2
REMARK    2  A    between atoms: C_2  and  N_3
REMARK    3  A    between atoms: N_3  and  C_4
REMARK    4  A    between atoms: N_3  and  C_6
REMARK    5  A    between atoms: C_4  and  C_5
REMARK    6  A    between atoms: C_9  and  C_12
REMARK    7  A    between atoms: C_17  and  C_20
REMARK    8  A    between atoms: N_22  and  C_23
REMARK    9  A    between atoms: C_23  and  C_24
REMARK   10  A    between atoms: C_24  and  C_25
REMARK                            x       y       z     vdW  Elec       q    Type
REMARK                         _______ _______ _______ _____ _____    ______ ____
ROOT
ATOM      1  C   UNL     1      -2.261  -1.436  -5.951  0.00  0.00    -0.030 C 
ATOM      2  C   UNL     1      -2.098  -0.244  -6.902  0.00  0.00    +0.058 C 
ATOM      3  S   UNL     1      -3.109  -0.554  -8.384  0.00  0.00    -0.163 S 
ATOM      4  C   UNL     1      -2.615  -2.241  -8.857  0.00  0.00    +0.062 C 
ATOM      5  C   UNL     1      -2.701  -3.134  -7.614  0.00  0.00    +0.027 C 
ATOM      6  N   UNL     1      -1.765  -2.655  -6.594  0.00  0.00    +0.392 N 
ATOM      7  H   UNL     1      -0.874  -2.462  -7.025  0.00  0.00    -0.084 HD
ATOM      8  H   UNL     1      -1.645  -3.371  -5.894  0.00  0.00    -0.084 HD
ENDROOT
BRANCH   1  12
ATOM      9  C   UNL     1      -0.038  -0.713  -2.373  0.00  0.00    +0.030 A 
ATOM     10  C   UNL     1      -1.410  -0.495  -2.396  0.00  0.00    +0.023 A 
ATOM     11  C   UNL     1      -2.125  -0.729  -3.554  0.00  0.00    +0.004 A 
ATOM     12  C   UNL     1      -1.477  -1.180  -4.690  0.00  0.00    -0.060 A 
ATOM     13  C   UNL     1      -0.112  -1.398  -4.670  0.00  0.00    +0.004 A 
ATOM     14  C   UNL     1       0.610  -1.161  -3.517  0.00  0.00    +0.023 A 
BRANCH   9  15
ATOM     15  N   UNL     1       0.688  -0.476  -1.203  0.00  0.00    -0.330 N 
BRANCH  15  17
ATOM     16  C   UNL     1      -0.019   1.526   0.010  0.00  0.00    +0.024 C 
ATOM     17  C   UNL     1       0.002  -0.004   0.002  0.00  0.00    +0.102 C 
ENDBRANCH  15  17
BRANCH  15  18
ATOM     18  C   UNL     1       2.135  -0.701  -1.182  0.00  0.00    +0.102 C 
ATOM     19  C   UNL     1       2.421  -2.145  -0.763  0.00  0.00    +0.024 C 
ENDBRANCH  15  18
ENDBRANCH   9  15
ENDBRANCH   1  12
BRANCH   5  20
ATOM     20  C   UNL     1      -2.349  -4.550  -7.989  0.00  0.00    +0.200 C 
ATOM     21  O   UNL     1      -1.406  -5.101  -7.460  0.00  0.00    -0.278 OA
ATOM     22  N   UNL     1      -3.081  -5.205  -8.912  0.00  0.00    -0.316 N 
ATOM     23  H   UNL     1      -3.834  -4.764  -9.335  0.00  0.00    +0.149 HD
BRANCH  22  24
ATOM     24  C   UNL     1      -2.738  -6.582  -9.277  0.00  0.00    +0.109 C 
BRANCH  24  25
ATOM     25  C   UNL     1      -3.718  -7.087 -10.337  0.00  0.00    +0.055 C 
BRANCH  25  26
ATOM     26  C   UNL     1      -3.366  -8.504 -10.712  0.00  0.00    -0.027 A 
ATOM     27  C   UNL     1      -2.559  -8.748 -11.808  0.00  0.00    +0.006 A 
ATOM     28  C   UNL     1      -2.235 -10.047 -12.152  0.00  0.00    +0.020 A 
ATOM     29  C   UNL     1      -2.719 -11.103 -11.400  0.00  0.00    +0.042 A 
ATOM     30  C   UNL     1      -3.526 -10.859 -10.304  0.00  0.00    +0.040 A 
ATOM     31  C   UNL     1      -3.845  -9.559  -9.957  0.00  0.00    +0.046 A 
ATOM     32 CL   UNL     1      -4.853  -9.251  -8.577  0.00  0.00    -0.083 Cl
ATOM     33 CL   UNL     1      -2.312 -12.734 -11.834  0.00  0.00    -0.083 Cl
ENDBRANCH  25  26
ENDBRANCH  24  25
ENDBRANCH  22  24
ENDBRANCH   5  20
TORSDOF 8
