REMARK  Name = ZINC08869642
REMARK  6 active torsions:
REMARK  status: ('A' for Active; 'I' for Inactive)
REMARK    1  A    between atoms: C_4  and  C_7
REMARK    2  A    between atoms: C_7  and  C_8
REMARK    3  A    between atoms: C_8  and  N_9
REMARK    4  A    between atoms: C_10  and  C_12
REMARK    5  A    between atoms: C_16  and  N_17
REMARK    6  A    between atoms: C_18  and  C_20
REMARK                            x       y       z     vdW  Elec       q    Type
REMARK                         _______ _______ _______ _____ _____    ______ ____
ROOT
ATOM      1  C   UNL     1      -2.718  -4.131   0.000  0.00  0.00    +0.069 A 
ATOM      2  C   UNL     1      -4.104  -4.599   0.015  0.00  0.00    -0.023 A 
ATOM      3  C   UNL     1      -5.035  -3.627   0.030  0.00  0.00    -0.004 A 
ATOM      4  S   UNL     1      -4.107  -2.112   0.029  0.00  0.00    -0.077 S 
ATOM      5  C   UNL     1      -2.503  -2.763   0.011  0.00  0.00    +0.085 A 
ATOM      6  C   UNL     1      -6.432  -4.186   0.042  0.00  0.00    +0.043 C 
ATOM      7  C   UNL     1      -6.258  -5.660   0.470  0.00  0.00    +0.010 C 
ATOM      8  C   UNL     1      -4.816  -5.952   0.012  0.00  0.00    +0.037 C 
ENDROOT
BRANCH   1  10
ATOM      9  N   UNL     1      -1.095  -5.499  -1.199  0.00  0.00    -0.311 N 
ATOM     10  C   UNL     1      -1.597  -5.076  -0.022  0.00  0.00    +0.247 C 
ATOM     11  O   UNL     1      -1.121  -5.479   1.023  0.00  0.00    -0.270 OA
ATOM     12  H   UNL     1      -1.475  -5.178  -2.032  0.00  0.00    +0.149 HD
BRANCH   9  13
ATOM     13  C   UNL     1       0.025  -6.443  -1.221  0.00  0.00    +0.109 C 
BRANCH  13  14
ATOM     14  C   UNL     1       0.398  -6.757  -2.671  0.00  0.00    +0.054 C 
BRANCH  14  18
ATOM     15  C   UNL     1       3.664  -9.510  -2.736  0.00  0.00    +0.000 A 
ATOM     16  C   UNL     1       2.364  -9.980  -2.726  0.00  0.00    +0.000 A 
ATOM     17  C   UNL     1       1.307  -9.089  -2.705  0.00  0.00    +0.004 A 
ATOM     18  C   UNL     1       1.550  -7.728  -2.694  0.00  0.00    -0.046 A 
ATOM     19  C   UNL     1       2.850  -7.258  -2.709  0.00  0.00    +0.004 A 
ATOM     20  C   UNL     1       3.907  -8.149  -2.725  0.00  0.00    +0.000 A 
ENDBRANCH  14  18
ENDBRANCH  13  14
ENDBRANCH   9  13
ENDBRANCH   1  10
BRANCH   5  21
ATOM     21  N   UNL     1      -1.299  -2.081   0.003  0.00  0.00    -0.273 N 
ATOM     22  C   UNL     1      -1.287  -0.733   0.010  0.00  0.00    +0.284 C 
ATOM     23  O   UNL     1      -2.334  -0.117   0.024  0.00  0.00    -0.266 OA
ATOM     24  H   UNL     1      -0.463  -2.573  -0.007  0.00  0.00    +0.156 HD
BRANCH  22  25
ATOM     25  C   UNL     1       0.002  -0.004   0.002  0.00  0.00    +0.194 A 
ATOM     26  C   UNL     1      -0.016   1.351   0.009  0.00  0.00    +0.103 A 
ATOM     27  C   UNL     1       1.263   2.076   0.001  0.00  0.00    +0.193 A 
ATOM     28  O   UNL     1       1.306   3.294   0.008  0.00  0.00    -0.287 OA
ATOM     29  C   UNL     1       2.491   1.259  -0.015  0.00  0.00    +0.065 A 
ATOM     30  C   UNL     1       3.754   1.850  -0.024  0.00  0.00    +0.035 A 
ATOM     31  C   UNL     1       4.878   1.052  -0.039  0.00  0.00    +0.042 A 
ATOM     32  C   UNL     1       4.753  -0.332  -0.045  0.00  0.00    +0.023 A 
ATOM     33  C   UNL     1       3.511  -0.927  -0.036  0.00  0.00    +0.048 A 
ATOM     34  C   UNL     1       2.363  -0.140  -0.021  0.00  0.00    +0.140 A 
ATOM     35  O   UNL     1       1.142  -0.710  -0.012  0.00  0.00    -0.450 OA
ATOM     36 CL   UNL     1       6.455   1.778  -0.050  0.00  0.00    -0.084 Cl
ENDBRANCH  22  25
ENDBRANCH   5  21
TORSDOF 6
