REMARK  Name = ZINC13501233
REMARK  12 active torsions:
REMARK  status: ('A' for Active; 'I' for Inactive)
REMARK    1  A    between atoms: C_1  and  C_2
REMARK    2  A    between atoms: C_2  and  O_3
REMARK    3  A    between atoms: O_3  and  C_4
REMARK    4  A    between atoms: C_11  and  C_16
REMARK    5  A    between atoms: C_16  and  N_71
REMARK    6  A    between atoms: C_17  and  C_18
REMARK    7  A    between atoms: C_17  and  N_71
REMARK    8  A    between atoms: C_18  and  C_19
REMARK    9  A    between atoms: C_19  and  O_20
REMARK   10  A    between atoms: C_21  and  C_26
REMARK   11  A    between atoms: C_21  and  N_71
REMARK   12  A    between atoms: N_30  and  C_31
REMARK                            x       y       z     vdW  Elec       q    Type
REMARK                         _______ _______ _______ _____ _____    ______ ____
ROOT
ATOM      1  N   UNL     1       3.700  -1.778  -0.108  0.00  0.00    +0.391 N 
ATOM      2  H   UNL     1       4.120  -2.713  -0.056  0.00  0.00    -0.080 HD
ENDROOT
BRANCH   1   3
ATOM      3  C   UNL     1       2.270  -1.872   0.252  0.00  0.00    -0.002 C 
ATOM      4  C   UNL     1       1.577  -2.903  -0.662  0.00  0.00    -0.004 C 
ATOM      5  C   UNL     1       1.616  -4.220   0.153  0.00  0.00    -0.001 C 
ATOM      6  C   UNL     1       1.366  -3.733   1.602  0.00  0.00    -0.001 C 
ATOM      7  C   UNL     1       2.136  -2.400   1.692  0.00  0.00    -0.004 C 
BRANCH   3   8
ATOM      8  C   UNL     1       1.590  -0.533   0.128  0.00  0.00    +0.141 A 
ATOM      9  N   UNL     1       2.144   0.594  -0.246  0.00  0.00    -0.115 NA
ATOM     10  N   UNL     1       1.239   1.511  -0.220  0.00  0.00    -0.023 NA
ATOM     11  N   UNL     1       0.121   0.996   0.156  0.00  0.00    -0.044 NA
ATOM     12  N   UNL     1       0.295  -0.263   0.378  0.00  0.00    -0.228 N 
BRANCH  12  13
ATOM     13  C   UNL     1      -0.723  -1.218   0.823  0.00  0.00    +0.111 C 
ATOM     14  C   UNL     1      -1.333  -0.753   2.161  0.00  0.00    +0.027 C 
ATOM     15  C   UNL     1      -2.618   0.008   1.748  0.00  0.00    +0.002 C 
ATOM     16  C   UNL     1      -3.150  -0.835   0.563  0.00  0.00    +0.002 C 
ATOM     17  C   UNL     1      -1.877  -1.269  -0.194  0.00  0.00    +0.027 C 
ENDBRANCH  12  13
ENDBRANCH   3   8
ENDBRANCH   1   3
BRANCH   1  18
ATOM     18  C   UNL     1       4.402  -0.884   0.837  0.00  0.00    -0.036 C 
BRANCH  18  26
ATOM     19  C   UNL     1      10.308   0.351  -0.581  0.00  0.00    +0.121 A 
ATOM     20  C   UNL     1      10.823  -0.873  -0.159  0.00  0.00    +0.047 A 
ATOM     21  C   UNL     1       9.993  -1.840   0.364  0.00  0.00    +0.030 A 
ATOM     22  C   UNL     1       8.628  -1.598   0.477  0.00  0.00    +0.049 A 
ATOM     23  C   UNL     1       8.104  -0.362   0.052  0.00  0.00    +0.002 A 
ATOM     24  C   UNL     1       8.957   0.612  -0.479  0.00  0.00    +0.055 A 
ATOM     25  C   UNL     1       6.665  -0.123   0.171  0.00  0.00    +0.017 A 
ATOM     26  C   UNL     1       5.886  -1.100   0.697  0.00  0.00    +0.001 A 
ATOM     27  C   UNL     1       6.461  -2.322   1.109  0.00  0.00    +0.251 A 
ATOM     28  O   UNL     1       5.742  -3.189   1.575  0.00  0.00    -0.268 OA
ATOM     29  N   UNL     1       7.780  -2.553   0.999  0.00  0.00    -0.322 N 
ATOM     30  H   UNL     1       8.142  -3.404   1.292  0.00  0.00    +0.169 HD
BRANCH  19  31
ATOM     31  O   UNL     1      11.142   1.294  -1.096  0.00  0.00    -0.492 OA
BRANCH  31  33
ATOM     32  C   UNL     1      13.303   2.135  -1.775  0.00  0.00    +0.048 C 
ATOM     33  C   UNL     1      12.529   0.960  -1.174  0.00  0.00    +0.225 C 
ENDBRANCH  31  33
ENDBRANCH  19  31
ENDBRANCH  18  26
ENDBRANCH   1  18
BRANCH   1  34
ATOM     34  C   UNL     1       3.841  -1.264  -1.487  0.00  0.00    -0.075 C 
BRANCH  34  35
ATOM     35  C   UNL     1       5.174  -1.754  -2.057  0.00  0.00    +0.009 C 
BRANCH  35  36
ATOM     36  C   UNL     1       5.267  -1.373  -3.536  0.00  0.00    +0.154 C 
BRANCH  36  37
ATOM     37  O   UNL     1       6.512  -1.830  -4.068  0.00  0.00    -0.395 OA
ATOM     38  H   UNL     1       6.639  -1.623  -5.004  0.00  0.00    +0.209 HD
ENDBRANCH  36  37
ENDBRANCH  35  36
ENDBRANCH  34  35
ENDBRANCH   1  34
TORSDOF 11
