REMARK  Name = ZINC13191475
REMARK  6 active torsions:
REMARK  status: ('A' for Active; 'I' for Inactive)
REMARK    1  A    between atoms: C_1  and  C_2
REMARK    2  A    between atoms: C_2  and  C_4
REMARK    3  A    between atoms: C_2  and  O_17
REMARK    4  A    between atoms: N_6  and  C_7
REMARK    5  A    between atoms: O_17  and  C_18
REMARK    6  A    between atoms: C_21  and  C_25
REMARK                            x       y       z     vdW  Elec       q    Type
REMARK                         _______ _______ _______ _____ _____    ______ ____
ROOT
ATOM      1  C   UNL     1       2.439  -4.058   0.450  0.00  0.00    +0.258 C 
ATOM      2  O   UNL     1       1.379  -4.501   0.839  0.00  0.00    -0.271 OA
ATOM      3  N   UNL     1       3.556  -4.806   0.542  0.00  0.00    -0.282 N 
ATOM      4  H   UNL     1       4.413  -4.430   0.288  0.00  0.00    +0.155 HD
ENDROOT
BRANCH   3   5
ATOM      5  C   UNL     1       3.479  -6.123   1.005  0.00  0.00    +0.034 A 
ATOM      6  C   UNL     1       2.561  -6.453   2.009  0.00  0.00    +0.024 A 
ATOM      7  C   UNL     1       2.461  -7.726   2.474  0.00  0.00    +0.010 A 
ATOM      8  C   UNL     1       3.296  -8.730   1.953  0.00  0.00    -0.018 A 
ATOM      9  C   UNL     1       3.219 -10.054   2.418  0.00  0.00    +0.008 A 
ATOM     10  C   UNL     1       4.042 -11.002   1.894  0.00  0.00    +0.001 A 
ATOM     11  C   UNL     1       4.963 -10.682   0.898  0.00  0.00    +0.001 A 
ATOM     12  C   UNL     1       5.067  -9.411   0.422  0.00  0.00    +0.008 A 
ATOM     13  C   UNL     1       4.233  -8.404   0.940  0.00  0.00    -0.016 A 
ATOM     14  C   UNL     1       4.312  -7.082   0.473  0.00  0.00    +0.031 A 
ENDBRANCH   3   5
BRANCH   1  16
ATOM     15  C   UNL     1       2.898  -2.760  -1.612  0.00  0.00    +0.062 C 
ATOM     16  C   UNL     1       2.506  -2.671  -0.136  0.00  0.00    +0.256 C 
BRANCH  16  17
ATOM     17  O   UNL     1       1.229  -2.041  -0.019  0.00  0.00    -0.479 OA
BRANCH  17  18
ATOM     18  C   UNL     1       1.209  -0.684  -0.016  0.00  0.00    +0.136 A 
ATOM     19  C   UNL     1       2.403   0.027  -0.032  0.00  0.00    +0.047 A 
ATOM     20  C   UNL     1       2.387   1.403  -0.030  0.00  0.00    +0.019 A 
ATOM     21  C   UNL     1       1.168   2.087  -0.011  0.00  0.00    +0.064 A 
ATOM     22  C   UNL     1      -0.031   1.369   0.004  0.00  0.00    +0.034 A 
ATOM     23  C   UNL     1      -0.007  -0.009   0.002  0.00  0.00    +0.060 A 
ATOM     24 BR   UNL     1      -1.628  -0.983   0.022  0.00  0.00    -0.046 Br
BRANCH  21  25
ATOM     25  C   UNL     1       1.147   3.561  -0.009  0.00  0.00    +0.387 C 
ATOM     26  O   UNL     1       0.086   4.153   0.006  0.00  0.00    -0.241 OA
ATOM     27  O   UNL     1       2.304   4.252  -0.024  0.00  0.00    -0.241 OA
ENDBRANCH  21  25
ENDBRANCH  17  18
ENDBRANCH  16  17
ENDBRANCH   1  16
TORSDOF 5
