REMARK  Name = ZINC02337447
REMARK  12 active torsions:
REMARK  status: ('A' for Active; 'I' for Inactive)
REMARK    1  A    between atoms: C_1  and  C_2
REMARK    2  A    between atoms: C_2  and  N_58
REMARK    3  A    between atoms: C_3  and  C_4
REMARK    4  A    between atoms: C_3  and  N_58
REMARK    5  A    between atoms: C_5  and  C_6
REMARK    6  A    between atoms: C_5  and  N_58
REMARK    7  A    between atoms: C_7  and  C_17
REMARK    8  A    between atoms: N_19  and  N_20
REMARK    9  A    between atoms: C_21  and  C_22
REMARK   10  A    between atoms: C_23  and  C_30
REMARK   11  A    between atoms: C_25  and  C_29
REMARK   12  A    between atoms: C_27  and  C_28
REMARK                            x       y       z     vdW  Elec       q    Type
REMARK                         _______ _______ _______ _____ _____    ______ ____
ROOT
ATOM      1  C   UNL     1       3.167   1.619  -1.264  0.00  0.00    +0.063 A 
ATOM      2  C   UNL     1       2.270   1.176  -0.334  0.00  0.00    +0.170 A 
ATOM      3  N   UNL     1       2.393  -0.158  -0.224  0.00  0.00    -0.124 NA
ATOM      4  N   UNL     1       3.303  -0.576  -1.034  0.00  0.00    -0.058 NA
ATOM      5  N   UNL     1       3.828   0.530  -1.717  0.00  0.00    -0.194 N 
ATOM      6  C   UNL     1       4.841   0.511  -2.683  0.00  0.00    +0.240 A 
ATOM      7  C   UNL     1       5.546  -0.681  -3.162  0.00  0.00    +0.206 A 
ATOM      8  N   UNL     1       6.419  -0.309  -4.058  0.00  0.00    -0.032 NA
ATOM      9  O   UNL     1       6.324   1.098  -4.198  0.00  0.00    -0.239 OA
ATOM     10  N   UNL     1       5.313   1.549  -3.313  0.00  0.00    -0.027 NA
ATOM     11  N   UNL     1       5.324  -1.985  -2.735  0.00  0.00    -0.337 N 
ATOM     12  H   UNL     1       4.651  -2.167  -2.061  0.00  0.00    +0.144 HD
ATOM     13  H   UNL     1       5.842  -2.714  -3.111  0.00  0.00    +0.144 HD
ENDROOT
BRANCH   2  14
ATOM     14  C   UNL     1       1.330   2.021   0.427  0.00  0.00    +0.285 C 
ATOM     15  O   UNL     1       1.311   3.223   0.248  0.00  0.00    -0.267 OA
ATOM     16  N   UNL     1       0.491   1.459   1.320  0.00  0.00    -0.202 N 
ATOM     17  H   UNL     1       0.506   0.500   1.463  0.00  0.00    +0.178 HD
BRANCH  16  18
ATOM     18  N   UNL     1      -0.406   2.260   2.039  0.00  0.00    -0.187 NA
ATOM     19  C   UNL     1      -1.217   1.719   2.895  0.00  0.00    +0.138 C 
BRANCH  19  20
ATOM     20  C   UNL     1      -2.161   2.562   3.651  0.00  0.00    +0.000 A 
ATOM     21  C   UNL     1      -2.100   3.954   3.544  0.00  0.00    -0.041 A 
ATOM     22  C   UNL     1      -2.990   4.736   4.250  0.00  0.00    +0.007 A 
ATOM     23  C   UNL     1      -3.935   4.146   5.071  0.00  0.00    -0.050 A 
ATOM     24  C   UNL     1      -3.998   2.769   5.186  0.00  0.00    +0.007 A 
ATOM     25  C   UNL     1      -3.118   1.974   4.482  0.00  0.00    -0.041 A 
ATOM     26  C   UNL     1      -3.187   0.474   4.609  0.00  0.00    +0.044 C 
ATOM     27  C   UNL     1      -4.900   5.008   5.844  0.00  0.00    +0.044 C 
ATOM     28  C   UNL     1      -1.068   4.598   2.655  0.00  0.00    +0.044 C 
ENDBRANCH  19  20
ENDBRANCH  16  18
ENDBRANCH   2  14
BRANCH   1  29
ATOM     29  C   UNL     1       3.380   3.046  -1.700  0.00  0.00    -0.020 C 
BRANCH  29  30
ATOM     30  N   UNL     1       2.901   3.192  -3.091  0.00  0.00    +0.383 N 
ATOM     31  H   UNL     1       3.178   2.361  -3.628  0.00  0.00    -0.081 HD
BRANCH  30  33
ATOM     32  C   UNL     1       0.827   1.903  -2.989  0.00  0.00    -0.017 C 
ATOM     33  C   UNL     1       1.427   3.305  -3.108  0.00  0.00    -0.082 C 
ENDBRANCH  30  33
BRANCH  30  34
ATOM     34  C   UNL     1       3.507   4.388  -3.711  0.00  0.00    -0.082 C 
ATOM     35  C   UNL     1       3.306   4.313  -5.225  0.00  0.00    -0.017 C 
ENDBRANCH  30  34
ENDBRANCH  29  30
ENDBRANCH   1  29
TORSDOF 7
