REMARK  Name = ZINC36595167
REMARK  13 active torsions:
REMARK  status: ('A' for Active; 'I' for Inactive)
REMARK    1  A    between atoms: C_1  and  C_2
REMARK    2  A    between atoms: C_5  and  C_7
REMARK    3  A    between atoms: C_7  and  N_8
REMARK    4  A    between atoms: N_8  and  C_9
REMARK    5  A    between atoms: C_9  and  C_11
REMARK    6  A    between atoms: C_9  and  C_18
REMARK    7  A    between atoms: C_16  and  O_17
REMARK    8  A    between atoms: N_20  and  C_21
REMARK    9  A    between atoms: C_21  and  C_22
REMARK   10  A    between atoms: C_21  and  C_23
REMARK   11  A    between atoms: C_21  and  C_24
REMARK   12  A    between atoms: C_25  and  C_27
REMARK   13  A    between atoms: C_27  and  C_28
REMARK                            x       y       z     vdW  Elec       q    Type
REMARK                         _______ _______ _______ _____ _____    ______ ____
ROOT
ATOM      1  N   UNL     1       2.307  -3.485  -1.107  0.00  0.00    -0.278 N 
ATOM      2  C   UNL     1       2.503  -3.018   0.142  0.00  0.00    +0.221 C 
ATOM      3  O   UNL     1       3.331  -2.155   0.344  0.00  0.00    -0.275 OA
ENDROOT
BRANCH   1   4
ATOM      4  C   UNL     1       1.241  -4.456  -1.368  0.00  0.00    +0.183 C 
BRANCH   4   9
ATOM      5  C   UNL     1       3.523  -8.875  -2.208  0.00  0.00    +0.086 C 
ATOM      6  C   UNL     1       2.762  -7.772  -1.518  0.00  0.00    +0.102 A 
ATOM      7  C   UNL     1       2.278  -7.816  -0.264  0.00  0.00    +0.045 A 
ATOM      8  C   UNL     1       1.639  -6.577  -0.028  0.00  0.00    +0.046 A 
ATOM      9  C   UNL     1       1.770  -5.851  -1.153  0.00  0.00    +0.122 A 
ATOM     10  O   UNL     1       2.456  -6.577  -2.050  0.00  0.00    -0.463 OA
ENDBRANCH   4   9
ENDBRANCH   1   4
BRANCH   1  11
ATOM     11  C   UNL     1       3.159  -3.020  -2.205  0.00  0.00    +0.196 C 
BRANCH  11  12
ATOM     12  C   UNL     1       2.883  -1.563  -2.473  0.00  0.00    +0.023 A 
ATOM     13  C   UNL     1       2.251  -0.791  -1.516  0.00  0.00    +0.009 A 
ATOM     14  C   UNL     1       1.998   0.545  -1.762  0.00  0.00    +0.001 A 
ATOM     15  C   UNL     1       2.376   1.113  -2.965  0.00  0.00    +0.004 A 
ATOM     16  C   UNL     1       3.008   0.347  -3.924  0.00  0.00    +0.046 A 
ATOM     17  C   UNL     1       3.268  -0.994  -3.678  0.00  0.00    +0.122 A 
BRANCH  17  18
ATOM     18  O   UNL     1       3.895  -1.749  -4.618  0.00  0.00    -0.506 OA
ATOM     19  H   UNL     1       3.294  -2.181  -5.240  0.00  0.00    +0.292 HD
ENDBRANCH  17  18
ENDBRANCH  11  12
BRANCH  11  20
ATOM     20  C   UNL     1       4.607  -3.196  -1.825  0.00  0.00    +0.239 C 
ATOM     21  O   UNL     1       4.898  -3.663  -0.745  0.00  0.00    -0.273 OA
ATOM     22  N   UNL     1       5.578  -2.834  -2.687  0.00  0.00    -0.309 N 
ATOM     23  H   UNL     1       5.345  -2.460  -3.551  0.00  0.00    +0.149 HD
BRANCH  22  24
ATOM     24  C   UNL     1       6.985  -3.005  -2.318  0.00  0.00    +0.026 C 
ATOM     25  C   UNL     1       7.265  -4.484  -2.046  0.00  0.00    +0.031 C 
ATOM     26  C   UNL     1       7.875  -2.520  -3.465  0.00  0.00    +0.031 C 
ATOM     27  C   UNL     1       7.285  -2.189  -1.059  0.00  0.00    +0.031 C 
ENDBRANCH  22  24
ENDBRANCH  11  20
ENDBRANCH   1  11
BRANCH   2  28
ATOM     28  C   UNL     1       1.693  -3.569   1.288  0.00  0.00    +0.131 C 
BRANCH  28  29
ATOM     29  C   UNL     1       2.103  -2.885   2.566  0.00  0.00    -0.039 A 
ATOM     30  C   UNL     1       3.126  -3.409   3.333  0.00  0.00    +0.005 A 
ATOM     31  C   UNL     1       3.502  -2.782   4.506  0.00  0.00    +0.015 A 
ATOM     32  C   UNL     1       2.854  -1.629   4.912  0.00  0.00    +0.018 A 
ATOM     33  C   UNL     1       1.830  -1.105   4.145  0.00  0.00    +0.015 A 
ATOM     34  C   UNL     1       1.458  -1.730   2.969  0.00  0.00    +0.005 A 
ATOM     35 BR   UNL     1       3.368  -0.771   6.517  0.00  0.00    -0.050 Br
ENDBRANCH  28  29
ENDBRANCH   2  28
TORSDOF 9
