REMARK  Name = ZINC65132124
REMARK  10 active torsions:
REMARK  status: ('A' for Active; 'I' for Inactive)
REMARK    1  A    between atoms: C_1  and  C_2
REMARK    2  A    between atoms: C_2  and  C_3
REMARK    3  A    between atoms: C_3  and  N_4
REMARK    4  A    between atoms: C_5  and  C_7
REMARK    5  A    between atoms: C_17  and  S_20
REMARK    6  A    between atoms: S_20  and  C_21
REMARK    7  A    between atoms: C_21  and  C_22
REMARK    8  A    between atoms: N_24  and  C_25
REMARK    9  A    between atoms: C_27  and  C_32
REMARK   10  A    between atoms: C_30  and  C_31
REMARK                            x       y       z     vdW  Elec       q    Type
REMARK                         _______ _______ _______ _____ _____    ______ ____
ROOT
ATOM      1  C   UNL     1       1.518  -4.109   2.162  0.00  0.00    +0.092 C 
ATOM      2  C   UNL     1       2.249  -4.619   3.406  0.00  0.00    +0.016 C 
ATOM      3  C   UNL     1       2.204  -6.148   3.435  0.00  0.00    +0.020 C 
ATOM      4  C   UNL     1       2.915  -6.700   2.196  0.00  0.00    +0.106 C 
ATOM      5  N   UNL     1       2.312  -6.102   0.998  0.00  0.00    -0.313 N 
ATOM      6  C   UNL     1       2.221  -4.638   0.907  0.00  0.00    +0.119 C 
ATOM      7  C   UNL     1       1.833  -6.907  -0.034  0.00  0.00    +0.144 A 
ATOM      8  C   UNL     1       1.927  -8.296   0.062  0.00  0.00    +0.048 A 
ATOM      9  C   UNL     1       1.437  -9.054  -0.987  0.00  0.00    +0.040 A 
ATOM     10  C   UNL     1       0.880  -8.381  -2.077  0.00  0.00    +0.120 A 
ATOM     11  N   UNL     1       0.835  -7.058  -2.080  0.00  0.00    -0.141 NA
ATOM     12  N   UNL     1       1.284  -6.356  -1.104  0.00  0.00    -0.133 NA
ENDROOT
BRANCH   1  14
ATOM     13  N   UNL     1       0.948  -1.929   1.141  0.00  0.00    -0.315 N 
ATOM     14  C   UNL     1       1.536  -2.602   2.150  0.00  0.00    +0.218 C 
ATOM     15  O   UNL     1       2.078  -1.995   3.049  0.00  0.00    -0.275 OA
ATOM     16  H   UNL     1       0.514  -2.414   0.422  0.00  0.00    +0.149 HD
BRANCH  13  17
ATOM     17  C   UNL     1       0.965  -0.464   1.130  0.00  0.00    +0.104 C 
BRANCH  17  19
ATOM     18  C   UNL     1       0.253   1.575  -0.126  0.00  0.00    +0.005 C 
ATOM     19  C   UNL     1       0.235   0.045  -0.115  0.00  0.00    +0.015 C 
ENDBRANCH  17  19
ENDBRANCH  13  17
ENDBRANCH   1  14
BRANCH  10  20
ATOM     20  S   UNL     1       0.241  -9.290  -3.443  0.00  0.00    -0.095 S 
BRANCH  20  21
ATOM     21  C   UNL     1      -0.359  -8.011  -4.580  0.00  0.00    +0.172 C 
BRANCH  21  22
ATOM     22  C   UNL     1      -0.940  -8.662  -5.809  0.00  0.00    +0.227 C 
ATOM     23  O   UNL     1      -0.947  -9.871  -5.908  0.00  0.00    -0.275 OA
ATOM     24  N   UNL     1      -1.450  -7.902  -6.798  0.00  0.00    -0.285 N 
ATOM     25  H   UNL     1      -1.392  -6.935  -6.745  0.00  0.00    +0.155 HD
BRANCH  24  26
ATOM     26  C   UNL     1      -2.064  -8.507  -7.900  0.00  0.00    +0.037 A 
ATOM     27  C   UNL     1      -1.715  -9.799  -8.268  0.00  0.00    +0.027 A 
ATOM     28  C   UNL     1      -2.323 -10.393  -9.357  0.00  0.00    -0.049 A 
ATOM     29  C   UNL     1      -3.278  -9.703 -10.079  0.00  0.00    +0.004 A 
ATOM     30  C   UNL     1      -3.628  -8.415  -9.715  0.00  0.00    +0.005 A 
ATOM     31  C   UNL     1      -3.028  -7.818  -8.624  0.00  0.00    -0.029 A 
ATOM     32  C   UNL     1      -3.415  -6.418  -8.223  0.00  0.00    +0.045 C 
ATOM     33  C   UNL     1      -1.944 -11.796  -9.757  0.00  0.00    +0.044 C 
ENDBRANCH  24  26
ENDBRANCH  21  22
ENDBRANCH  20  21
ENDBRANCH  10  20
TORSDOF 7
