REMARK  Name = ZINC01404721
REMARK  7 active torsions:
REMARK  status: ('A' for Active; 'I' for Inactive)
REMARK    1  A    between atoms: C_1  and  C_2
REMARK    2  A    between atoms: C_2  and  O_3
REMARK    3  A    between atoms: O_3  and  C_4
REMARK    4  A    between atoms: C_7  and  C_10
REMARK    5  A    between atoms: N_18  and  C_30
REMARK    6  A    between atoms: C_19  and  C_21
REMARK    7  A    between atoms: C_26  and  N_27
REMARK                            x       y       z     vdW  Elec       q    Type
REMARK                         _______ _______ _______ _____ _____    ______ ____
ROOT
ATOM      1  C   UNL     1       0.604   0.902  -1.020  0.00  0.00    +0.099 A 
ATOM      2  C   UNL     1       1.738   1.718  -0.941  0.00  0.00    +0.035 A 
ATOM      3  C   UNL     1       2.637   1.037  -0.142  0.00  0.00    +0.127 A 
ATOM      4  N   UNL     1       2.023  -0.132   0.208  0.00  0.00    -0.272 N 
ATOM      5  H   UNL     1       2.426  -0.843   0.785  0.00  0.00    +0.189 HD
ATOM      6  N   UNL     1       0.849  -0.183  -0.313  0.00  0.00    -0.173 NA
ATOM      7  C   UNL     1       3.853   1.846  -0.015  0.00  0.00    +0.270 C 
ATOM      8  O   UNL     1       4.838   1.523   0.622  0.00  0.00    -0.268 OA
ATOM      9  N   UNL     1       3.726   2.995  -0.702  0.00  0.00    -0.254 N 
ATOM     10  C   UNL     1       2.399   3.011  -1.331  0.00  0.00    +0.148 C 
ENDROOT
BRANCH   9  11
ATOM     11  C   UNL     1       4.692   4.002  -0.800  0.00  0.00    +0.038 A 
ATOM     12  C   UNL     1       4.434   5.142  -1.550  0.00  0.00    +0.024 A 
ATOM     13  C   UNL     1       5.388   6.138  -1.641  0.00  0.00    +0.017 A 
ATOM     14  C   UNL     1       6.603   5.995  -0.995  0.00  0.00    +0.018 A 
ATOM     15  C   UNL     1       6.864   4.857  -0.251  0.00  0.00    +0.017 A 
ATOM     16  C   UNL     1       5.912   3.861  -0.152  0.00  0.00    +0.024 A 
ATOM     17 BR   UNL     1       7.908   7.356  -1.127  0.00  0.00    -0.050 Br
ENDBRANCH   9  11
BRANCH   1  21
ATOM     18  C   UNL     1      -2.970   1.760  -3.163  0.00  0.00    +0.121 A 
ATOM     19  C   UNL     1      -2.299   2.778  -2.500  0.00  0.00    +0.046 A 
ATOM     20  C   UNL     1      -1.140   2.503  -1.804  0.00  0.00    +0.013 A 
ATOM     21  C   UNL     1      -0.643   1.202  -1.768  0.00  0.00    +0.003 A 
ATOM     22  C   UNL     1      -1.319   0.182  -2.434  0.00  0.00    +0.013 A 
ATOM     23  C   UNL     1      -2.477   0.463  -3.129  0.00  0.00    +0.046 A 
BRANCH  18  24
ATOM     24  O   UNL     1      -4.112   2.034  -3.848  0.00  0.00    -0.492 OA
BRANCH  24  26
ATOM     25  C   UNL     1      -6.010   1.438  -5.219  0.00  0.00    +0.048 C 
ATOM     26  C   UNL     1      -4.751   0.939  -4.507  0.00  0.00    +0.225 C 
ENDBRANCH  24  26
ENDBRANCH  18  24
ENDBRANCH   1  21
BRANCH  10  27
ATOM     27  C   UNL     1       2.537   3.087  -2.830  0.00  0.00    +0.008 A 
ATOM     28  C   UNL     1       3.430   2.260  -3.485  0.00  0.00    +0.008 A 
ATOM     29  C   UNL     1       3.553   2.326  -4.860  0.00  0.00    +0.000 A 
ATOM     30  C   UNL     1       2.790   3.227  -5.579  0.00  0.00    +0.002 A 
ATOM     31  C   UNL     1       1.901   4.058  -4.924  0.00  0.00    +0.033 A 
ATOM     32  C   UNL     1       1.774   3.988  -3.549  0.00  0.00    +0.131 A 
BRANCH  32  33
ATOM     33  N   UNL     1       0.823   4.878  -2.847  0.00  0.00    +0.057 N 
ATOM     34  O   UNL     1      -0.307   5.022  -3.278  0.00  0.00    -0.126 OA
ATOM     35  O   UNL     1       1.169   5.466  -1.839  0.00  0.00    -0.126 OA
ENDBRANCH  32  33
ENDBRANCH  10  27
TORSDOF 6
