REMARK  Name = ZINC39657176
REMARK  5 active torsions:
REMARK  status: ('A' for Active; 'I' for Inactive)
REMARK    1  A    between atoms: C_1  and  C_2
REMARK    2  A    between atoms: C_2  and  C_4
REMARK    3  A    between atoms: C_2  and  N_11
REMARK    4  A    between atoms: C_12  and  C_14
REMARK    5  A    between atoms: C_25  and  C_27
REMARK                            x       y       z     vdW  Elec       q    Type
REMARK                         _______ _______ _______ _____ _____    ______ ____
ROOT
ATOM      1  C   UNL     1       0.713  -1.093  -3.586  0.00  0.00    +0.100 C 
ATOM      2  C   UNL     1       1.344  -2.484  -3.352  0.00  0.00    +0.121 C 
ATOM      3  N   UNL     1       0.328  -3.444  -3.845  0.00  0.00    -0.295 N 
ATOM      4  C   UNL     1      -0.220  -2.807  -5.066  0.00  0.00    +0.115 C 
ATOM      5  C   UNL     1      -0.310  -1.308  -4.714  0.00  0.00    -0.004 C 
ATOM      6  C   UNL     1       0.054  -0.458  -5.927  0.00  0.00    -0.010 C 
ATOM      7  C   UNL     1      -1.009  -0.644  -7.013  0.00  0.00    -0.082 C 
ATOM      8  N   UNL     1      -2.322  -0.248  -6.489  0.00  0.00    +0.379 N 
ATOM      9  C   UNL     1      -2.706  -1.131  -5.381  0.00  0.00    -0.082 C 
ATOM     10  C   UNL     1      -1.714  -0.966  -4.226  0.00  0.00    -0.010 C 
ATOM     11  C   UNL     1      -0.019  -4.629  -3.304  0.00  0.00    +0.265 C 
ATOM     12  O   UNL     1       0.453  -4.972  -2.239  0.00  0.00    -0.268 OA
ATOM     13  H   UNL     1      -2.277   0.704  -6.158  0.00  0.00    -0.086 HD
ATOM     14  H   UNL     1      -3.010  -0.313  -7.224  0.00  0.00    -0.086 HD
ENDROOT
BRANCH  11  15
ATOM     15  C   UNL     1      -0.978  -5.513  -4.010  0.00  0.00    +0.126 A 
ATOM     16  C   UNL     1      -1.419  -6.687  -3.381  0.00  0.00    +0.033 A 
ATOM     17  C   UNL     1      -2.301  -7.509  -4.020  0.00  0.00    +0.012 A 
ATOM     18  C   UNL     1      -2.742  -7.143  -5.306  0.00  0.00    +0.000 A 
ATOM     19  C   UNL     1      -3.650  -7.941  -6.020  0.00  0.00    +0.010 A 
ATOM     20  C   UNL     1      -4.054  -7.555  -7.261  0.00  0.00    +0.001 A 
ATOM     21  C   UNL     1      -3.579  -6.376  -7.835  0.00  0.00    +0.002 A 
ATOM     22  C   UNL     1      -2.700  -5.578  -7.173  0.00  0.00    +0.028 A 
ATOM     23  C   UNL     1      -2.257  -5.942  -5.887  0.00  0.00    +0.072 A 
ATOM     24  N   UNL     1      -1.400  -5.176  -5.213  0.00  0.00    -0.242 NA
ENDBRANCH  11  15
BRANCH   1  26
ATOM     25  N   UNL     1      -0.053   0.706  -2.071  0.00  0.00    -0.308 N 
ATOM     26  C   UNL     1       0.022  -0.614  -2.336  0.00  0.00    +0.219 C 
ATOM     27  O   UNL     1      -0.466  -1.415  -1.567  0.00  0.00    -0.275 OA
ATOM     28  H   UNL     1       0.338   1.347  -2.686  0.00  0.00    +0.149 HD
BRANCH  25  30
ATOM     29  C   UNL     1      -2.228   1.288  -1.116  0.00  0.00    +0.033 C 
ATOM     30  C   UNL     1      -0.725   1.172  -0.856  0.00  0.00    +0.100 C 
BRANCH  30  31
ATOM     31  C   UNL     1      -0.177   2.521  -0.465  0.00  0.00    -0.027 A 
ATOM     32  C   UNL     1       0.094   3.465  -1.438  0.00  0.00    +0.006 A 
ATOM     33  C   UNL     1       0.596   4.702  -1.080  0.00  0.00    +0.015 A 
ATOM     34  C   UNL     1       0.827   4.995   0.252  0.00  0.00    +0.018 A 
ATOM     35  C   UNL     1       0.556   4.050   1.225  0.00  0.00    +0.015 A 
ATOM     36  C   UNL     1       0.049   2.815   0.866  0.00  0.00    +0.006 A 
ATOM     37 BR   UNL     1       1.514   6.687   0.742  0.00  0.00    -0.050 Br
ENDBRANCH  30  31
ENDBRANCH  25  30
ENDBRANCH   1  26
TORSDOF 4
