REMARK  Name = ZINC15904615
REMARK  9 active torsions:
REMARK  status: ('A' for Active; 'I' for Inactive)
REMARK    1  A    between atoms: C_1  and  C_2
REMARK    2  A    between atoms: C_5  and  C_31
REMARK    3  A    between atoms: C_6  and  O_8
REMARK    4  A    between atoms: O_8  and  C_9
REMARK    5  A    between atoms: C_9  and  C_10
REMARK    6  A    between atoms: C_10  and  C_11
REMARK    7  A    between atoms: N_13  and  C_14
REMARK    8  A    between atoms: C_18  and  S_20
REMARK    9  A    between atoms: S_20  and  N_23
REMARK                            x       y       z     vdW  Elec       q    Type
REMARK                         _______ _______ _______ _____ _____    ______ ____
ROOT
ATOM      1  C   UNL     1      -0.024  -1.957   8.382  0.00  0.00    +0.035 A 
ATOM      2  C   UNL     1      -0.144  -0.579   8.263  0.00  0.00    +0.023 A 
ATOM      3  C   UNL     1      -0.238   0.205   9.396  0.00  0.00    +0.004 A 
ATOM      4  C   UNL     1      -0.213  -0.382  10.648  0.00  0.00    +0.029 A 
ATOM      5  C   UNL     1      -0.092  -1.754  10.770  0.00  0.00    +0.114 A 
ATOM      6  C   UNL     1      -0.004  -2.544   9.640  0.00  0.00    +0.052 A 
ENDROOT
BRANCH   1   9
ATOM      7  C   UNL     1      -0.497  -3.976   7.214  0.00  0.00    +0.220 C 
ATOM      8  O   UNL     1      -1.019  -4.419   8.215  0.00  0.00    -0.275 OA
ATOM      9  N   UNL     1       0.072  -2.754   7.235  0.00  0.00    -0.285 N 
ATOM     10  H   UNL     1       0.548  -2.427   6.456  0.00  0.00    +0.155 HD
BRANCH   7  11
ATOM     11  C   UNL     1      -0.485  -4.791   5.947  0.00  0.00    +0.137 C 
BRANCH  11  12
ATOM     12  C   UNL     1      -1.190  -6.126   6.192  0.00  0.00    +0.238 C 
BRANCH  12  13
ATOM     13  O   UNL     1      -1.179  -6.899   4.991  0.00  0.00    -0.491 OA
BRANCH  13  19
ATOM     14  C   UNL     1      -3.578 -10.298   7.543  0.00  0.00    +0.044 C 
ATOM     15  C   UNL     1      -2.949  -9.812   6.262  0.00  0.00    -0.047 A 
ATOM     16  C   UNL     1      -2.972 -10.611   5.134  0.00  0.00    +0.004 A 
ATOM     17  C   UNL     1      -2.396 -10.168   3.958  0.00  0.00    +0.007 A 
ATOM     18  C   UNL     1      -1.794  -8.926   3.908  0.00  0.00    -0.009 A 
ATOM     19  C   UNL     1      -1.770  -8.122   5.038  0.00  0.00    +0.124 A 
ATOM     20  C   UNL     1      -2.354  -8.566   6.215  0.00  0.00    +0.049 A 
ATOM     21  C   UNL     1      -1.165  -8.444   2.626  0.00  0.00    +0.047 C 
ENDBRANCH  13  19
ENDBRANCH  12  13
ENDBRANCH  11  12
ENDBRANCH   7  11
ENDBRANCH   1   9
BRANCH   5  22
ATOM     22  S   UNL     1      -0.059  -2.496  12.367  0.00  0.00    +0.100 S 
ATOM     23  O   UNL     1       0.608  -3.742  12.223  0.00  0.00    -0.146 OA
ATOM     24  O   UNL     1       0.385  -1.494  13.272  0.00  0.00    -0.146 OA
BRANCH  22  25
ATOM     25  N   UNL     1      -1.626  -2.843  12.778  0.00  0.00    -0.118 NA
ATOM     26  C   UNL     1      -1.887  -3.400  13.916  0.00  0.00    +0.117 C 
ATOM     27  N   UNL     1      -0.864  -3.715  14.823  0.00  0.00    -0.331 N 
ATOM     28  C   UNL     1      -0.817  -2.966  16.044  0.00  0.00    +0.102 C 
ATOM     29  C   UNL     1      -1.646  -3.531  17.209  0.00  0.00    +0.019 C 
ATOM     30  C   UNL     1      -3.018  -4.039  16.701  0.00  0.00    +0.002 C 
ATOM     31  C   UNL     1      -3.631  -3.137  15.666  0.00  0.00    +0.008 C 
ATOM     32  C   UNL     1      -3.247  -3.715  14.301  0.00  0.00    +0.073 C 
ATOM     33  H   UNL     1      -0.215  -4.411  14.631  0.00  0.00    +0.147 HD
ENDBRANCH  22  25
ENDBRANCH   5  22
TORSDOF 7
