REMARK  Name = ZINC39293343
REMARK  6 active torsions:
REMARK  status: ('A' for Active; 'I' for Inactive)
REMARK    1  A    between atoms: C_1  and  O_2
REMARK    2  A    between atoms: O_2  and  C_3
REMARK    3  A    between atoms: C_17  and  S_21
REMARK    4  A    between atoms: N_18  and  C_19
REMARK    5  A    between atoms: S_21  and  C_22
REMARK    6  A    between atoms: C_25  and  O_28
REMARK                            x       y       z     vdW  Elec       q    Type
REMARK                         _______ _______ _______ _____ _____    ______ ____
ROOT
ATOM      1  C   UNL     1       0.613  -0.414  -1.233  0.00  0.00    +0.162 A 
ATOM      2  C   UNL     1       1.216   0.274  -2.283  0.00  0.00    +0.050 A 
ATOM      3  C   UNL     1       1.866  -0.379  -3.321  0.00  0.00    +0.009 A 
ATOM      4  C   UNL     1       1.911  -1.750  -3.351  0.00  0.00    -0.022 A 
ATOM      5  C   UNL     1       1.255  -2.446  -2.353  0.00  0.00    +0.016 A 
ATOM      6  C   UNL     1       0.659  -1.808  -1.258  0.00  0.00    +0.167 A 
ATOM      7  O   UNL     1       0.262  -2.726  -0.330  0.00  0.00    -0.484 OA
ATOM      8  C   UNL     1       0.077  -3.949  -1.006  0.00  0.00    +0.191 C 
ATOM      9  C   UNL     1       1.107  -3.914  -2.156  0.00  0.00    +0.056 C 
ATOM     10  C   UNL     1       2.469  -4.469  -1.721  0.00  0.00    +0.038 C 
ATOM     11  C   UNL     1       3.339  -4.616  -2.968  0.00  0.00    +0.108 C 
ATOM     12  N   UNL     1       3.648  -3.368  -3.642  0.00  0.00    -0.305 N 
ATOM     13  C   UNL     1       2.636  -2.590  -4.384  0.00  0.00    +0.142 C 
ATOM     14  C   UNL     1       4.929  -2.893  -3.585  0.00  0.00    +0.168 C 
ATOM     15  N   UNL     1       5.636  -3.028  -2.476  0.00  0.00    -0.151 NA
ATOM     16  C   UNL     1       0.509  -4.755  -3.236  0.00  0.00    -0.013 C 
ATOM     17  C   UNL     1       0.045  -5.922  -2.806  0.00  0.00    +0.001 C 
ATOM     18  C   UNL     1       0.148  -6.390  -1.390  0.00  0.00    +0.141 C 
ATOM     19  C   UNL     1       0.191  -5.279  -0.326  0.00  0.00    +0.081 C 
ENDROOT
BRANCH   1  21
ATOM     20  C   UNL     1       0.011   1.679  -0.277  0.00  0.00    +0.277 C 
ATOM     21  O   UNL     1       0.006   0.251  -0.214  0.00  0.00    -0.491 OA
ENDBRANCH   1  21
BRANCH  15  22
ATOM     22  C   UNL     1       5.138  -3.743  -1.438  0.00  0.00    +0.207 C 
ATOM     23  N   UNL     1       4.721  -4.342  -0.568  0.00  0.00    -0.169 NA
ENDBRANCH  15  22
BRANCH  14  24
ATOM     24  S   UNL     1       5.637  -2.100  -4.991  0.00  0.00    -0.093 S 
ATOM     25  C   UNL     1       7.308  -1.653  -4.447  0.00  0.00    +0.093 C 
ENDBRANCH  14  24
BRANCH  18  26
ATOM     26  O   UNL     1      -0.959  -7.253  -1.121  0.00  0.00    -0.388 OA
ATOM     27  H   UNL     1      -0.994  -8.035  -1.688  0.00  0.00    +0.210 HD
ENDBRANCH  18  26
TORSDOF 4
