REMARK  Name = ZINC34900238
REMARK  7 active torsions:
REMARK  status: ('A' for Active; 'I' for Inactive)
REMARK    1  A    between atoms: C_1  and  C_2
REMARK    2  A    between atoms: C_5  and  C_11
REMARK    3  A    between atoms: C_7  and  N_8
REMARK    4  A    between atoms: C_17  and  C_20
REMARK    5  A    between atoms: N_22  and  C_23
REMARK    6  A    between atoms: C_29  and  N_31
REMARK    7  A    between atoms: C_32  and  C_34
REMARK                            x       y       z     vdW  Elec       q    Type
REMARK                         _______ _______ _______ _____ _____    ______ ____
ROOT
ATOM      1  C   UNL     1       1.591  -7.568  -3.643  0.00  0.00    +0.218 C 
ATOM      2  O   UNL     1       1.367  -7.901  -4.788  0.00  0.00    -0.275 OA
ATOM      3  N   UNL     1       1.974  -8.488  -2.736  0.00  0.00    -0.310 N 
ATOM      4  H   UNL     1       2.154  -8.221  -1.821  0.00  0.00    +0.149 HD
ENDROOT
BRANCH   1  11
ATOM      5  C   UNL     1       0.262  -4.125  -0.577  0.00  0.00    +0.247 C 
ATOM      6  O   UNL     1       0.472  -4.894   0.340  0.00  0.00    -0.270 OA
ATOM      7  N   UNL     1       0.159  -4.590  -1.837  0.00  0.00    -0.297 N 
ATOM      8  C   UNL     1      -0.182  -3.686  -2.944  0.00  0.00    +0.108 C 
ATOM      9  C   UNL     1       0.879  -3.825  -4.040  0.00  0.00    +0.020 C 
ATOM     10  C   UNL     1       0.999  -5.296  -4.444  0.00  0.00    +0.016 C 
ATOM     11  C   UNL     1       1.441  -6.125  -3.236  0.00  0.00    +0.092 C 
ATOM     12  C   UNL     1       0.392  -6.011  -2.132  0.00  0.00    +0.120 C 
BRANCH   5  17
ATOM     13  C   UNL     1      -0.293   1.508   0.466  0.00  0.00    +0.046 C 
ATOM     14  C   UNL     1      -0.148   0.033   0.193  0.00  0.00    -0.020 A 
ATOM     15  C   UNL     1      -1.049  -0.606  -0.641  0.00  0.00    +0.006 A 
ATOM     16  C   UNL     1      -0.921  -1.955  -0.895  0.00  0.00    +0.013 A 
ATOM     17  C   UNL     1       0.120  -2.677  -0.309  0.00  0.00    +0.039 A 
ATOM     18  C   UNL     1       1.025  -2.027   0.530  0.00  0.00    +0.046 A 
ATOM     19  C   UNL     1       0.889  -0.676   0.772  0.00  0.00    +0.130 A 
BRANCH  19  20
ATOM     20  N   UNL     1       1.853   0.017   1.657  0.00  0.00    +0.057 N 
ATOM     21  O   UNL     1       2.208   1.143   1.400  0.00  0.00    -0.126 OA
ATOM     22  O   UNL     1       2.284  -0.544   2.638  0.00  0.00    -0.126 OA
ENDBRANCH  19  20
ENDBRANCH   5  17
ENDBRANCH   1  11
BRANCH   3  23
ATOM     23  C   UNL     1       2.120  -9.891  -3.132  0.00  0.00    +0.093 C 
ATOM     24  C   UNL     1       0.761 -10.588  -3.048  0.00  0.00    +0.024 C 
ATOM     25  C   UNL     1       0.913 -12.053  -3.462  0.00  0.00    +0.002 C 
ATOM     26  C   UNL     1       1.902 -12.748  -2.524  0.00  0.00    +0.002 C 
ATOM     27  C   UNL     1       3.261 -12.051  -2.607  0.00  0.00    +0.024 C 
ATOM     28  C   UNL     1       3.109 -10.586  -2.194  0.00  0.00    +0.093 C 
BRANCH  28  29
ATOM     29  N   UNL     1       4.410  -9.918  -2.274  0.00  0.00    -0.307 N 
ATOM     30  C   UNL     1       5.268  -9.987  -1.237  0.00  0.00    +0.244 C 
ATOM     31  O   UNL     1       4.963 -10.604  -0.235  0.00  0.00    -0.270 OA
ATOM     32  H   UNL     1       4.654  -9.426  -3.074  0.00  0.00    +0.149 HD
BRANCH  30  33
ATOM     33  C   UNL     1       6.581  -9.313  -1.318  0.00  0.00    +0.037 A 
ATOM     34  C   UNL     1       6.932  -8.600  -2.466  0.00  0.00    +0.016 A 
ATOM     35  C   UNL     1       8.158  -7.973  -2.536  0.00  0.00    +0.039 A 
ATOM     36  C   UNL     1       9.041  -8.051  -1.470  0.00  0.00    +0.123 A 
ATOM     37  C   UNL     1       8.697  -8.758  -0.328  0.00  0.00    +0.039 A 
ATOM     38  C   UNL     1       7.472  -9.383  -0.245  0.00  0.00    +0.016 A 
ATOM     39  F   UNL     1      10.242  -7.436  -1.544  0.00  0.00    -0.205 F 
ENDBRANCH  30  33
ENDBRANCH  28  29
ENDBRANCH   3  23
TORSDOF 6
