REMARK  Name = ZINC09166030
REMARK  5 active torsions:
REMARK  status: ('A' for Active; 'I' for Inactive)
REMARK    1  A    between atoms: C_1  and  N_50
REMARK    2  A    between atoms: C_3  and  C_25
REMARK    3  A    between atoms: C_5  and  C_18
REMARK    4  A    between atoms: C_18  and  C_20
REMARK    5  A    between atoms: C_29  and  N_31
REMARK                            x       y       z     vdW  Elec       q    Type
REMARK                         _______ _______ _______ _____ _____    ______ ____
ROOT
ATOM      1  C   UNL     1      -1.976   0.851  -2.233  0.00  0.00    -0.094 C 
ATOM      2  C   UNL     1      -2.837  -0.884  -0.756  0.00  0.00    -0.068 C 
ATOM      3  C   UNL     1      -3.447  -0.895   0.669  0.00  0.00    +0.013 C 
ATOM      4  C   UNL     1      -2.950   0.442   1.269  0.00  0.00    +0.069 C 
ATOM      5  C   UNL     1      -2.619   1.319   0.056  0.00  0.00    +0.051 C 
ATOM      6  C   UNL     1      -1.176   1.746   0.070  0.00  0.00    -0.026 A 
ATOM      7  C   UNL     1       0.015   1.053   0.061  0.00  0.00    +0.024 A 
ATOM      8  C   UNL     1       1.216   1.741   0.085  0.00  0.00    +0.041 A 
ATOM      9  C   UNL     1       1.216   3.124   0.123  0.00  0.00    +0.022 A 
ATOM     10  C   UNL     1       0.025   3.821   0.138  0.00  0.00    +0.025 A 
ATOM     11  C   UNL     1      -1.188   3.136   0.115  0.00  0.00    +0.036 A 
ATOM     12  N   UNL     1      -2.502   3.607   0.123  0.00  0.00    -0.286 N 
ATOM     13  C   UNL     1      -3.401   2.606   0.091  0.00  0.00    +0.212 C 
ATOM     14  O   UNL     1      -4.609   2.718   0.091  0.00  0.00    -0.277 OA
ATOM     15 CL   UNL     1       2.718   0.871   0.067  0.00  0.00    -0.084 Cl
ATOM     16  H   UNL     1      -2.740   4.547   0.149  0.00  0.00    +0.155 HD
ATOM     17  N   UNL     1      -2.934   0.533  -1.131  0.00  0.00    +0.391 N 
ATOM     18  H   UNL     1      -3.889   0.744  -1.444  0.00  0.00    -0.080 HD
ENDROOT
BRANCH   3  19
ATOM     19  C   UNL     1      -2.928  -2.066   1.462  0.00  0.00    -0.043 A 
ATOM     20  C   UNL     1      -1.569  -2.213   1.669  0.00  0.00    +0.004 A 
ATOM     21  C   UNL     1      -1.093  -3.284   2.402  0.00  0.00    +0.002 A 
ATOM     22  C   UNL     1      -1.976  -4.215   2.918  0.00  0.00    +0.033 A 
ATOM     23  C   UNL     1      -3.334  -4.071   2.706  0.00  0.00    +0.126 A 
ATOM     24  C   UNL     1      -3.811  -2.997   1.979  0.00  0.00    +0.036 A 
BRANCH  23  25
ATOM     25  N   UNL     1      -4.279  -5.068   3.259  0.00  0.00    +0.056 N 
ATOM     26  O   UNL     1      -5.476  -4.941   3.072  0.00  0.00    -0.126 OA
ATOM     27  O   UNL     1      -3.859  -6.015   3.900  0.00  0.00    -0.126 OA
ENDBRANCH  23  25
ENDBRANCH   3  19
BRANCH   4  28
ATOM     28  C   UNL     1      -4.035   1.081   2.097  0.00  0.00    +0.173 C 
ATOM     29  O   UNL     1      -5.200   0.807   1.887  0.00  0.00    -0.291 OA
BRANCH  28  30
ATOM     30  C   UNL     1      -3.698   1.998   3.117  0.00  0.00    +0.055 A 
ATOM     31  C   UNL     1      -4.536   2.691   3.985  0.00  0.00    +0.019 A 
ATOM     32  C   UNL     1      -3.939   3.528   4.891  0.00  0.00    +0.008 A 
ATOM     33  C   UNL     1      -2.583   3.640   4.899  0.00  0.00    +0.046 A 
ATOM     34  S   UNL     1      -2.087   2.563   3.634  0.00  0.00    -0.094 S 
ENDBRANCH  28  30
ENDBRANCH   4  28
TORSDOF 4
