REMARK  Name = ZINC05405200
REMARK  6 active torsions:
REMARK  status: ('A' for Active; 'I' for Inactive)
REMARK    1  A    between atoms: C_3  and  C_9
REMARK    2  A    between atoms: C_6  and  C_7
REMARK    3  A    between atoms: C_9  and  O_11
REMARK    4  A    between atoms: O_11  and  C_12
REMARK    5  A    between atoms: C_12  and  C_13
REMARK    6  A    between atoms: N_18  and  C_19
REMARK                            x       y       z     vdW  Elec       q    Type
REMARK                         _______ _______ _______ _____ _____    ______ ____
ROOT
ATOM      1  C   UNL     1      -8.580   3.023   0.059  0.00  0.00    +0.258 C 
ATOM      2  O   UNL     1      -8.405   1.823   0.052  0.00  0.00    -0.272 OA
ATOM      3  N   UNL     1      -9.832   3.521   0.068  0.00  0.00    -0.237 N 
ATOM      4  C   UNL     1     -10.890   2.686   0.069  0.00  0.00    +0.306 C 
ATOM      5  O   UNL     1     -10.714   1.483   0.061  0.00  0.00    -0.252 OA
ATOM      6  N   UNL     1     -12.142   3.184   0.077  0.00  0.00    -0.294 N 
ATOM      7  H   UNL     1      -9.972   4.481   0.074  0.00  0.00    +0.159 HD
ATOM      8  H   UNL     1     -12.282   4.144   0.083  0.00  0.00    +0.151 HD
ENDROOT
BRANCH   6   9
ATOM      9  C   UNL     1     -13.292   2.276   0.078  0.00  0.00    +0.037 C 
ATOM     10  C   UNL     1     -13.251   1.401  -1.176  0.00  0.00    +0.029 C 
ATOM     11  C   UNL     1     -14.451   0.452  -1.176  0.00  0.00    -0.008 C 
ATOM     12  C   UNL     1     -15.746   1.268  -1.165  0.00  0.00    +0.007 C 
ATOM     13  C   UNL     1     -15.787   2.143   0.089  0.00  0.00    -0.008 C 
ATOM     14  C   UNL     1     -14.586   3.092   0.088  0.00  0.00    +0.029 C 
ATOM     15  C   UNL     1     -15.734   1.254   1.333  0.00  0.00    +0.007 C 
ATOM     16  C   UNL     1     -14.440   0.439   1.323  0.00  0.00    -0.008 C 
ATOM     17  C   UNL     1     -14.399  -0.437   0.069  0.00  0.00    +0.007 C 
ATOM     18  C   UNL     1     -13.239   1.387   1.322  0.00  0.00    +0.029 C 
ENDBRANCH   6   9
BRANCH   1  19
ATOM     19  C   UNL     1      -7.397   3.957   0.059  0.00  0.00    +0.328 C 
BRANCH  19  20
ATOM     20  O   UNL     1      -6.169   3.183   0.049  0.00  0.00    -0.452 OA
BRANCH  20  21
ATOM     21  C   UNL     1      -5.012   3.872   0.047  0.00  0.00    +0.340 C 
ATOM     22  O   UNL     1      -5.028   5.087   0.054  0.00  0.00    -0.245 OA
BRANCH  21  25
ATOM     23  C   UNL     1      -2.501   1.081   0.014  0.00  0.00    +0.012 A 
ATOM     24  C   UNL     1      -3.702   1.754   0.030  0.00  0.00    +0.015 A 
ATOM     25  C   UNL     1      -3.721   3.150   0.037  0.00  0.00    +0.059 A 
ATOM     26  C   UNL     1      -2.521   3.865   0.035  0.00  0.00    +0.015 A 
ATOM     27  C   UNL     1      -1.319   3.193   0.026  0.00  0.00    +0.012 A 
ATOM     28  C   UNL     1      -1.299   1.795   0.018  0.00  0.00    +0.014 A 
BRANCH  28  29
ATOM     29  C   UNL     1      -0.013   1.076   0.008  0.00  0.00    +0.258 C 
ATOM     30  O   UNL     1       1.029   1.696   0.001  0.00  0.00    -0.296 OA
ENDBRANCH  28  29
ENDBRANCH  21  25
ENDBRANCH  20  21
ENDBRANCH  19  20
ENDBRANCH   1  19
TORSDOF 6
