REMARK  Name = ZINC04702791
REMARK  1 active torsions:
REMARK  status: ('A' for Active; 'I' for Inactive)
REMARK    1  A    between atoms: C_4  and  C_7
REMARK                            x       y       z     vdW  Elec       q    Type
REMARK                         _______ _______ _______ _____ _____    ______ ____
ROOT
ATOM      1  C   UNL     1       0.002  -0.004   0.002  0.00  0.00    +0.147 C 
ATOM      2  C   UNL     1       1.345  -0.534  -0.433  0.00  0.00    +0.039 C 
ATOM      3  C   UNL     1       2.431   0.268  -0.417  0.00  0.00    +0.019 C 
ATOM      4  C   UNL     1       3.786  -0.243  -0.834  0.00  0.00    +0.052 C 
ATOM      5  C   UNL     1       3.618  -1.337  -1.892  0.00  0.00    +0.014 C 
ATOM      6  C   UNL     1       2.748  -2.454  -1.305  0.00  0.00    +0.080 C 
ATOM      7  C   UNL     1       1.437  -1.871  -0.854  0.00  0.00    +0.163 C 
ATOM      8  O   UNL     1       0.442  -2.567  -0.853  0.00  0.00    -0.292 OA
ATOM      9  N   UNL     1       2.305   1.573  -0.019  0.00  0.00    -0.292 N 
ATOM     10  C   UNL     1       1.062   2.165   0.004  0.00  0.00    +0.164 C 
ATOM     11  N   UNL     1       0.967   3.540   0.019  0.00  0.00    -0.268 N 
ATOM     12  C   UNL     1      -0.277   4.147   0.041  0.00  0.00    +0.165 A 
ATOM     13  N   UNL     1      -1.465   3.589   0.044  0.00  0.00    -0.225 NA
ATOM     14  C   UNL     1      -2.606   4.312   0.070  0.00  0.00    +0.080 A 
ATOM     15  C   UNL     1      -3.939   3.840   0.081  0.00  0.00    +0.029 A 
ATOM     16  C   UNL     1      -4.992   4.716   0.102  0.00  0.00    +0.002 A 
ATOM     17  C   UNL     1      -4.793   6.089   0.114  0.00  0.00    +0.001 A 
ATOM     18  C   UNL     1      -3.502   6.586   0.104  0.00  0.00    +0.017 A 
ATOM     19  C   UNL     1      -2.441   5.716   0.083  0.00  0.00    +0.041 A 
ATOM     20  S   UNL     1      -0.673   5.889   0.063  0.00  0.00    -0.052 S 
ATOM     21  H   UNL     1       3.090   2.079   0.246  0.00  0.00    +0.154 HD
ATOM     22  H   UNL     1       1.771   4.082   0.014  0.00  0.00    +0.157 HD
ATOM     23  N   UNL     1      -0.095   1.496   0.011  0.00  0.00    -0.350 N 
ATOM     24  H   UNL     1      -1.000   1.980   0.022  0.00  0.00    +0.163 HD
ENDROOT
BRANCH   1  28
ATOM     25  C   UNL     1      -0.856  -1.435   3.934  0.00  0.00    +0.000 A 
ATOM     26  C   UNL     1      -1.392  -2.076   2.833  0.00  0.00    +0.000 A 
ATOM     27  C   UNL     1      -1.114  -1.613   1.561  0.00  0.00    +0.006 A 
ATOM     28  C   UNL     1      -0.301  -0.509   1.389  0.00  0.00    -0.021 A 
ATOM     29  C   UNL     1       0.239   0.130   2.490  0.00  0.00    +0.006 A 
ATOM     30  C   UNL     1      -0.043  -0.331   3.763  0.00  0.00    +0.000 A 
ENDBRANCH   1  28
TORSDOF 1
