REMARK  Name = ZINC63795773
REMARK  4 active torsions:
REMARK  status: ('A' for Active; 'I' for Inactive)
REMARK    1  A    between atoms: C_7  and  N_11
REMARK    2  A    between atoms: C_17  and  C_19
REMARK    3  A    between atoms: C_19  and  C_20
REMARK    4  A    between atoms: C_20  and  C_21
REMARK                            x       y       z     vdW  Elec       q    Type
REMARK                         _______ _______ _______ _____ _____    ______ ____
ROOT
ATOM      1  N   UNL     1       1.258  -2.673   1.395  0.00  0.00    -0.307 NA
ATOM      2  C   UNL     1       2.252  -2.052   2.280  0.00  0.00    +0.102 C 
ATOM      3  C   UNL     1       1.946  -2.431   3.733  0.00  0.00    +0.123 C 
ATOM      4  N   UNL     1       1.860  -3.896   3.825  0.00  0.00    -0.299 N 
ATOM      5  C   UNL     1       0.986  -4.603   2.877  0.00  0.00    +0.123 C 
ATOM      6  C   UNL     1       1.330  -4.138   1.458  0.00  0.00    +0.102 C 
ATOM      7  C   UNL     1       2.564  -4.573   4.754  0.00  0.00    +0.216 C 
ATOM      8  O   UNL     1       3.280  -3.974   5.528  0.00  0.00    -0.276 OA
ENDROOT
BRANCH   1  15
ATOM      9  C   UNL     1      -0.017   1.373   0.010  0.00  0.00    +0.000 A 
ATOM     10  C   UNL     1       1.161   2.100   0.002  0.00  0.00    +0.001 A 
ATOM     11  C   UNL     1       2.368   1.426  -0.021  0.00  0.00    +0.013 A 
ATOM     12  C   UNL     1       2.383   0.046  -0.033  0.00  0.00    -0.006 A 
ATOM     13  C   UNL     1       1.208  -0.704  -0.011  0.00  0.00    -0.034 A 
ATOM     14  C   UNL     1       0.002  -0.004   0.002  0.00  0.00    +0.004 A 
ATOM     15  C   UNL     1       1.412  -2.197   0.014  0.00  0.00    +0.045 C 
ATOM     16  N   UNL     1       2.747  -2.603  -0.482  0.00  0.00    +0.409 N 
ATOM     17  S   UNL     1       3.703  -1.143  -0.083  0.00  0.00    -0.188 S 
ATOM     18  H   UNL     1       3.091  -3.411   0.015  0.00  0.00    -0.066 HD
ATOM     19  H   UNL     1       2.732  -2.768  -1.477  0.00  0.00    -0.066 HD
ENDBRANCH   1  15
BRANCH   7  20
ATOM     20  C   UNL     1       2.461  -6.074   4.831  0.00  0.00    +0.105 C 
BRANCH  20  21
ATOM     21  C   UNL     1       3.353  -6.589   5.963  0.00  0.00    +0.105 C 
BRANCH  21  22
ATOM     22  C   UNL     1       3.250  -8.091   6.040  0.00  0.00    +0.219 C 
ATOM     23  O   UNL     1       2.534  -8.690   5.266  0.00  0.00    -0.275 OA
ATOM     24  N   UNL     1       3.953  -8.768   6.969  0.00  0.00    -0.263 N 
ATOM     25  C   UNL     1       3.858 -10.154   7.040  0.00  0.00    +0.187 A 
ATOM     26  N   UNL     1       3.149 -10.978   6.294  0.00  0.00    -0.126 NA
ATOM     27  N   UNL     1       3.164 -12.227   6.480  0.00  0.00    -0.148 NA
ATOM     28  C   UNL     1       3.911 -12.723   7.447  0.00  0.00    +0.183 A 
ATOM     29  S   UNL     1       4.626 -11.219   8.097  0.00  0.00    -0.039 S 
ATOM     30  H   UNL     1       4.526  -8.289   7.588  0.00  0.00    +0.157 HD
ENDBRANCH  21  22
ENDBRANCH  20  21
ENDBRANCH   7  20
TORSDOF 4
