REMARK  Name = ZINC15355728
REMARK  9 active torsions:
REMARK  status: ('A' for Active; 'I' for Inactive)
REMARK    1  A    between atoms: C_1  and  C_2
REMARK    2  A    between atoms: C_2  and  C_3
REMARK    3  A    between atoms: C_2  and  C_4
REMARK    4  A    between atoms: C_4  and  O_5
REMARK    5  A    between atoms: O_5  and  C_6
REMARK    6  A    between atoms: C_9  and  C_12
REMARK    7  A    between atoms: N_14  and  C_15
REMARK    8  A    between atoms: C_18  and  S_21
REMARK    9  A    between atoms: S_21  and  N_24
REMARK                            x       y       z     vdW  Elec       q    Type
REMARK                         _______ _______ _______ _____ _____    ______ ____
ROOT
ATOM      1  C   UNL     1      -7.694  -6.501  -0.346  0.00  0.00    +0.034 A 
ATOM      2  C   UNL     1      -8.836  -5.711  -0.339  0.00  0.00    +0.025 A 
ATOM      3  C   UNL     1     -10.082  -6.300  -0.431  0.00  0.00    +0.031 A 
ATOM      4  C   UNL     1     -10.193  -7.675  -0.529  0.00  0.00    +0.113 A 
ATOM      5  C   UNL     1      -9.057  -8.465  -0.537  0.00  0.00    +0.031 A 
ATOM      6  C   UNL     1      -7.808  -7.881  -0.452  0.00  0.00    +0.025 A 
ENDROOT
BRANCH   1   9
ATOM      7  C   UNL     1      -5.388  -6.435  -0.925  0.00  0.00    +0.248 C 
ATOM      8  O   UNL     1      -5.524  -7.473  -1.543  0.00  0.00    -0.270 OA
ATOM      9  N   UNL     1      -6.431  -5.908  -0.254  0.00  0.00    -0.282 N 
ATOM     10  H   UNL     1      -6.306  -5.117   0.293  0.00  0.00    +0.155 HD
BRANCH   7  14
ATOM     11  C   UNL     1      -1.624  -4.469  -0.883  0.00  0.00    +0.121 A 
ATOM     12  C   UNL     1      -1.778  -5.657  -1.590  0.00  0.00    +0.046 A 
ATOM     13  C   UNL     1      -2.997  -6.297  -1.606  0.00  0.00    +0.016 A 
ATOM     14  C   UNL     1      -4.080  -5.752  -0.910  0.00  0.00    +0.037 A 
ATOM     15  C   UNL     1      -3.921  -4.558  -0.201  0.00  0.00    +0.016 A 
ATOM     16  C   UNL     1      -2.697  -3.927  -0.186  0.00  0.00    +0.046 A 
BRANCH  11  17
ATOM     17  O   UNL     1      -0.421  -3.841  -0.870  0.00  0.00    -0.492 OA
BRANCH  17  18
ATOM     18  C   UNL     1       0.639  -4.454  -1.607  0.00  0.00    +0.232 C 
BRANCH  18  20
ATOM     19  C   UNL     1       3.072  -4.325  -2.159  0.00  0.00    +0.010 C 
ATOM     20  C   UNL     1       1.907  -3.608  -1.475  0.00  0.00    +0.020 C 
ATOM     21  C   UNL     1       1.685  -2.248  -2.139  0.00  0.00    +0.010 C 
ENDBRANCH  18  20
ENDBRANCH  17  18
ENDBRANCH  11  17
ENDBRANCH   7  14
ENDBRANCH   1   9
BRANCH   4  22
ATOM     22  S   UNL     1     -11.784  -8.423  -0.646  0.00  0.00    +0.100 S 
ATOM     23  O   UNL     1     -11.641  -9.757  -0.179  0.00  0.00    -0.146 OA
ATOM     24  O   UNL     1     -12.706  -7.508  -0.069  0.00  0.00    -0.146 OA
BRANCH  22  25
ATOM     25  N   UNL     1     -12.161  -8.523  -2.255  0.00  0.00    -0.118 NA
ATOM     26  C   UNL     1     -13.289  -9.038  -2.624  0.00  0.00    +0.117 C 
ATOM     27  C   UNL     1     -14.275  -9.550  -1.578  0.00  0.00    +0.073 C 
ATOM     28  C   UNL     1     -15.464  -8.612  -1.584  0.00  0.00    +0.008 C 
ATOM     29  C   UNL     1     -16.545  -9.007  -2.592  0.00  0.00    +0.002 C 
ATOM     30  C   UNL     1     -15.977  -9.437  -3.944  0.00  0.00    +0.019 C 
ATOM     31  C   UNL     1     -14.851  -8.549  -4.428  0.00  0.00    +0.102 C 
ATOM     32  N   UNL     1     -13.591  -9.118  -3.905  0.00  0.00    -0.331 N 
ATOM     33  H   UNL     1     -12.979  -9.558  -4.515  0.00  0.00    +0.147 HD
ENDBRANCH  22  25
ENDBRANCH   4  22
TORSDOF 7
