REMARK  Name = ZINC09365066
REMARK  9 active torsions:
REMARK  status: ('A' for Active; 'I' for Inactive)
REMARK    1  A    between atoms: C_1  and  C_2
REMARK    2  A    between atoms: C_5  and  C_29
REMARK    3  A    between atoms: C_6  and  N_8
REMARK    4  A    between atoms: C_9  and  C_11
REMARK    5  A    between atoms: C_11  and  S_12
REMARK    6  A    between atoms: S_12  and  C_13
REMARK    7  A    between atoms: C_19  and  C_21
REMARK    8  A    between atoms: C_23  and  C_28
REMARK    9  A    between atoms: C_25  and  C_27
REMARK                            x       y       z     vdW  Elec       q    Type
REMARK                         _______ _______ _______ _____ _____    ______ ____
ROOT
ATOM      1  C   UNL     1      -4.648   5.763   0.086  0.00  0.00    +0.160 A 
ATOM      2  N   UNL     1      -4.774   4.444   0.088  0.00  0.00    -0.133 NA
ATOM      3  N   UNL     1      -3.771   3.679   0.089  0.00  0.00    -0.125 NA
ATOM      4  C   UNL     1      -2.533   4.145   0.088  0.00  0.00    +0.189 A 
ATOM      5  S   UNL     1      -2.863   5.905   0.094  0.00  0.00    -0.024 S 
ATOM      6  N   UNL     1      -1.320   3.462   0.089  0.00  0.00    -0.259 N 
ATOM      7  C   UNL     1      -1.306   2.115   0.090  0.00  0.00    +0.250 C 
ATOM      8  O   UNL     1      -2.352   1.495   0.091  0.00  0.00    -0.270 OA
ATOM      9  H   UNL     1      -0.485   3.956   0.089  0.00  0.00    +0.157 HD
ENDROOT
BRANCH   7  10
ATOM     10  C   UNL     1      -0.018   1.389   0.091  0.00  0.00    +0.038 A 
ATOM     11  C   UNL     1       1.185   2.097   0.085  0.00  0.00    +0.016 A 
ATOM     12  C   UNL     1       2.384   1.414   0.081  0.00  0.00    -0.049 A 
ATOM     13  C   UNL     1       2.395   0.031   0.082  0.00  0.00    +0.006 A 
ATOM     14  C   UNL     1       1.206  -0.677   0.088  0.00  0.00    -0.049 A 
ATOM     15  C   UNL     1       0.001  -0.006   0.093  0.00  0.00    +0.016 A 
ATOM     16  C   UNL     1       1.228  -2.184   0.090  0.00  0.00    +0.044 C 
ATOM     17  C   UNL     1       3.684   2.177   0.075  0.00  0.00    +0.044 C 
ENDBRANCH   7  10
BRANCH   1  18
ATOM     18  S   UNL     1      -5.883   7.019   0.085  0.00  0.00    -0.088 S 
BRANCH  18  19
ATOM     19  C   UNL     1      -7.446   6.098   0.085  0.00  0.00    +0.172 C 
BRANCH  19  21
ATOM     20  N   UNL     1      -9.867   6.605   0.084  0.00  0.00    -0.285 N 
ATOM     21  C   UNL     1      -8.601   7.066   0.084  0.00  0.00    +0.227 C 
ATOM     22  O   UNL     1      -8.390   8.261   0.083  0.00  0.00    -0.275 OA
ATOM     23  H   UNL     1     -10.037   5.653   0.004  0.00  0.00    +0.155 HD
BRANCH  20  29
ATOM     24  C   UNL     1     -11.605  10.955   1.578  0.00  0.00    +0.044 C 
ATOM     25  C   UNL     1     -11.808   9.614   0.919  0.00  0.00    -0.049 A 
ATOM     26  C   UNL     1     -13.053   9.267   0.428  0.00  0.00    +0.004 A 
ATOM     27  C   UNL     1     -13.243   8.038  -0.177  0.00  0.00    +0.005 A 
ATOM     28  C   UNL     1     -12.189   7.154  -0.292  0.00  0.00    -0.029 A 
ATOM     29  C   UNL     1     -10.937   7.499   0.199  0.00  0.00    +0.037 A 
ATOM     30  C   UNL     1     -10.751   8.732   0.811  0.00  0.00    +0.027 A 
ATOM     31  C   UNL     1     -12.396   5.814  -0.952  0.00  0.00    +0.045 C 
ENDBRANCH  20  29
ENDBRANCH  19  21
ENDBRANCH  18  19
ENDBRANCH   1  18
TORSDOF 5
