REMARK  Name = ZINC40119753
REMARK  7 active torsions:
REMARK  status: ('A' for Active; 'I' for Inactive)
REMARK    1  A    between atoms: C_1  and  N_2
REMARK    2  A    between atoms: C_6  and  C_7
REMARK    3  A    between atoms: C_7  and  O_8
REMARK    4  A    between atoms: O_8  and  C_9
REMARK    5  A    between atoms: C_12  and  C_15
REMARK    6  A    between atoms: N_17  and  N_18
REMARK    7  A    between atoms: C_19  and  C_21
REMARK                            x       y       z     vdW  Elec       q    Type
REMARK                         _______ _______ _______ _____ _____    ______ ____
ROOT
ATOM      1  C   UNL     1      -2.025   1.445   8.287  0.00  0.00    +0.260 C 
ATOM      2  O   UNL     1      -1.058   1.688   8.983  0.00  0.00    -0.269 OA
ATOM      3  N   UNL     1      -3.268   1.579   8.791  0.00  0.00    -0.230 N 
ATOM      4  H   UNL     1      -4.040   1.385   8.236  0.00  0.00    +0.173 HD
ENDROOT
BRANCH   1   8
ATOM      5  C   UNL     1      -1.487   0.176   4.271  0.00  0.00    +0.121 A 
ATOM      6  C   UNL     1      -0.380   0.453   5.064  0.00  0.00    +0.046 A 
ATOM      7  C   UNL     1      -0.550   0.865   6.367  0.00  0.00    +0.016 A 
ATOM      8  C   UNL     1      -1.838   1.004   6.891  0.00  0.00    +0.038 A 
ATOM      9  C   UNL     1      -2.948   0.725   6.090  0.00  0.00    +0.016 A 
ATOM     10  C   UNL     1      -2.770   0.318   4.787  0.00  0.00    +0.046 A 
BRANCH   5  11
ATOM     11  O   UNL     1      -1.315  -0.229   2.987  0.00  0.00    -0.484 OA
BRANCH  11  12
ATOM     12  C   UNL     1       0.030  -0.354   2.521  0.00  0.00    +0.303 C 
BRANCH  12  18
ATOM     13  C   UNL     1      -0.018   1.461   0.010  0.00  0.00    +0.150 C 
ATOM     14  N   UNL     1       0.002  -0.004   0.002  0.00  0.00    -0.335 N 
ATOM     15  C   UNL     1       0.009  -0.810  -1.104  0.00  0.00    +0.107 A 
ATOM     16  C   UNL     1       0.029  -2.081  -0.660  0.00  0.00    +0.130 A 
ATOM     17  N   UNL     1       0.034  -2.052   0.681  0.00  0.00    -0.237 NA
ATOM     18  C   UNL     1       0.023  -0.811   1.085  0.00  0.00    +0.147 A 
ENDBRANCH  12  18
ENDBRANCH  11  12
ENDBRANCH   5  11
ENDBRANCH   1   8
BRANCH   3  19
ATOM     19  N   UNL     1      -3.445   1.997  10.116  0.00  0.00    -0.234 N 
ATOM     20  C   UNL     1      -4.688   2.131  10.620  0.00  0.00    +0.235 C 
ATOM     21  O   UNL     1      -5.653   1.889   9.926  0.00  0.00    -0.274 OA
ATOM     22  H   UNL     1      -2.674   2.191  10.671  0.00  0.00    +0.173 HD
BRANCH  20  23
ATOM     23  C   UNL     1      -4.879   2.581  12.046  0.00  0.00    +0.049 C 
ATOM     24  C   UNL     1      -4.203   1.585  12.990  0.00  0.00    +0.019 C 
ATOM     25  C   UNL     1      -4.396   2.042  14.437  0.00  0.00    -0.009 C 
ATOM     26  C   UNL     1      -5.891   2.110  14.754  0.00  0.00    +0.007 C 
ATOM     27  C   UNL     1      -6.568   3.106  13.810  0.00  0.00    -0.009 C 
ATOM     28  C   UNL     1      -6.374   2.650  12.363  0.00  0.00    +0.019 C 
ATOM     29  C   UNL     1      -5.943   4.490  13.996  0.00  0.00    +0.007 C 
ATOM     30  C   UNL     1      -4.448   4.422  13.679  0.00  0.00    -0.009 C 
ATOM     31  C   UNL     1      -3.771   3.426  14.623  0.00  0.00    +0.007 C 
ATOM     32  C   UNL     1      -4.254   3.965  12.232  0.00  0.00    +0.019 C 
ENDBRANCH  20  23
ENDBRANCH   3  19
TORSDOF 6
