REMARK  Name = ZINC67384354
REMARK  7 active torsions:
REMARK  status: ('A' for Active; 'I' for Inactive)
REMARK    1  A    between atoms: C_1  and  N_2
REMARK    2  A    between atoms: N_2  and  S_3
REMARK    3  A    between atoms: S_3  and  C_6
REMARK    4  A    between atoms: C_9  and  N_15
REMARK    5  A    between atoms: C_10  and  N_12
REMARK    6  A    between atoms: N_15  and  C_16
REMARK    7  A    between atoms: C_19  and  C_21
REMARK                            x       y       z     vdW  Elec       q    Type
REMARK                         _______ _______ _______ _____ _____    ______ ____
ROOT
ATOM      1  C   UNL     1      -2.470  -0.563  -1.424  0.00  0.00    +0.108 A 
ATOM      2  C   UNL     1      -3.121   0.639  -1.634  0.00  0.00    +0.030 A 
ATOM      3  C   UNL     1      -3.546   0.983  -2.901  0.00  0.00    +0.027 A 
ATOM      4  C   UNL     1      -3.320   0.121  -3.967  0.00  0.00    +0.058 A 
ATOM      5  C   UNL     1      -2.666  -1.086  -3.753  0.00  0.00    +0.149 A 
ATOM      6  C   UNL     1      -2.238  -1.422  -2.483  0.00  0.00    +0.063 A 
ENDROOT
BRANCH   1   7
ATOM      7  S   UNL     1      -1.928  -0.999   0.195  0.00  0.00    +0.058 S 
ATOM      8  O   UNL     1      -1.824  -2.416   0.222  0.00  0.00    -0.153 OA
ATOM      9  O   UNL     1      -2.747  -0.277   1.105  0.00  0.00    -0.153 OA
BRANCH   7  11
ATOM     10  C   UNL     1      -0.155   1.038   0.360  0.00  0.00    +0.127 C 
ATOM     11  N   UNL     1      -0.390  -0.408   0.372  0.00  0.00    -0.193 NA
ATOM     12  H   UNL     1       0.354  -1.020   0.484  0.00  0.00    +0.148 HD
ENDBRANCH   7  11
ENDBRANCH   1   7
BRANCH   5  13
ATOM     13  N   UNL     1      -2.422  -2.008  -4.884  0.00  0.00    +0.058 N 
ATOM     14  O   UNL     1      -3.254  -2.131  -5.753  0.00  0.00    -0.126 OA
ATOM     15  O   UNL     1      -1.392  -2.638  -4.940  0.00  0.00    -0.126 OA
ENDBRANCH   5  13
BRANCH   4  16
ATOM     16  N   UNL     1      -3.749   0.466  -5.250  0.00  0.00    -0.339 N 
ATOM     17  H   UNL     1      -3.511  -0.091  -6.008  0.00  0.00    +0.146 HD
BRANCH  16  18
ATOM     18  C   UNL     1      -4.560   1.669  -5.453  0.00  0.00    +0.078 C 
ATOM     19  C   UNL     1      -4.205   2.569  -6.638  0.00  0.00    +0.032 C 
ATOM     20  C   UNL     1      -5.470   1.709  -6.681  0.00  0.00    +0.041 C 
BRANCH  20  21
ATOM     21  C   UNL     1      -5.465   0.508  -7.591  0.00  0.00    -0.040 A 
ATOM     22  C   UNL     1      -4.291   0.111  -8.204  0.00  0.00    +0.004 A 
ATOM     23  C   UNL     1      -4.285  -0.991  -9.039  0.00  0.00    +0.003 A 
ATOM     24  C   UNL     1      -5.452  -1.697  -9.262  0.00  0.00    +0.038 A 
ATOM     25  C   UNL     1      -6.628  -1.300  -8.648  0.00  0.00    +0.124 A 
ATOM     26  C   UNL     1      -6.632  -0.200  -7.807  0.00  0.00    +0.042 A 
ATOM     27  F   UNL     1      -7.769  -1.989  -8.865  0.00  0.00    -0.205 F 
ENDBRANCH  20  21
ENDBRANCH  16  18
ENDBRANCH   4  16
TORSDOF 6
