REMARK  Name = ZINC13053521
REMARK  7 active torsions:
REMARK  status: ('A' for Active; 'I' for Inactive)
REMARK    1  A    between atoms: C_3  and  C_6
REMARK    2  A    between atoms: C_8  and  C_11
REMARK    3  A    between atoms: C_11  and  S_12
REMARK    4  A    between atoms: S_12  and  C_13
REMARK    5  A    between atoms: C_17  and  C_31
REMARK    6  A    between atoms: N_23  and  C_24
REMARK    7  A    between atoms: C_24  and  C_25
REMARK                            x       y       z     vdW  Elec       q    Type
REMARK                         _______ _______ _______ _____ _____    ______ ____
ROOT
ATOM      1  C   UNL     1       2.352   4.103   0.003  0.00  0.00    +0.173 A 
ATOM      2  N   UNL     1       1.221   3.442   0.009  0.00  0.00    -0.223 NA
ATOM      3  C   UNL     1       1.191   2.088   0.002  0.00  0.00    +0.080 A 
ATOM      4  C   UNL     1      -0.017   1.385   0.010  0.00  0.00    +0.043 A 
ATOM      5  C   UNL     1       0.002  -0.004   0.002  0.00  0.00    +0.065 A 
ATOM      6  C   UNL     1       1.219  -0.698  -0.013  0.00  0.00    +0.016 A 
ATOM      7  C   UNL     1       2.405  -0.022  -0.021  0.00  0.00    +0.016 A 
ATOM      8  C   UNL     1       2.409   1.373  -0.014  0.00  0.00    +0.065 A 
ATOM      9  C   UNL     1       3.664   2.141  -0.021  0.00  0.00    +0.262 A 
ATOM     10  O   UNL     1       4.746   1.583  -0.035  0.00  0.00    -0.267 OA
ATOM     11  N   UNL     1       3.572   3.491  -0.012  0.00  0.00    -0.285 N 
ENDROOT
BRANCH   5  12
ATOM     12  C   UNL     1      -1.272  -0.756   0.010  0.00  0.00    +0.387 C 
ATOM     13  O   UNL     1      -2.329  -0.159   0.023  0.00  0.00    -0.241 OA
ATOM     14  O   UNL     1      -1.260  -2.103   0.002  0.00  0.00    -0.241 OA
ENDBRANCH   5  12
BRANCH   1  15
ATOM     15  S   UNL     1       2.295   5.864   0.014  0.00  0.00    -0.081 S 
BRANCH  15  16
ATOM     16  C   UNL     1       0.504   6.121   0.032  0.00  0.00    +0.136 C 
BRANCH  16  19
ATOM     17  C   UNL     1      -0.200   9.660   0.657  0.00  0.00    +0.174 A 
ATOM     18  C   UNL     1       0.048   8.415   1.179  0.00  0.00    +0.077 A 
ATOM     19  C   UNL     1       0.208   7.599   0.043  0.00  0.00    +0.094 A 
ATOM     20  N   UNL     1       0.045   8.368  -0.996  0.00  0.00    -0.082 NA
ATOM     21  O   UNL     1      -0.181   9.513  -0.681  0.00  0.00    -0.354 OA
BRANCH  17  24
ATOM     22  C   UNL     1      -0.898  13.186   1.837  0.00  0.00    +0.008 A 
ATOM     23  C   UNL     1      -0.702  12.172   0.928  0.00  0.00    +0.019 A 
ATOM     24  C   UNL     1      -0.443  10.901   1.407  0.00  0.00    +0.057 A 
ATOM     25  S   UNL     1      -0.489  11.158   3.173  0.00  0.00    -0.093 S 
ATOM     26  C   UNL     1      -0.833  12.910   3.166  0.00  0.00    +0.046 A 
ENDBRANCH  17  24
ENDBRANCH  16  19
ENDBRANCH  15  16
ENDBRANCH   1  15
BRANCH  11  27
ATOM     27  C   UNL     1       4.792   4.303  -0.019  0.00  0.00    +0.159 C 
BRANCH  27  28
ATOM     28  C   UNL     1       5.204   4.593  -1.463  0.00  0.00    +0.138 C 
ATOM     29  C   UNL     1       6.550   5.349  -1.482  0.00  0.00    +0.035 C 
ATOM     30  C   UNL     1       6.335   6.375  -2.628  0.00  0.00    +0.031 C 
ATOM     31  C   UNL     1       4.825   6.683  -2.469  0.00  0.00    +0.160 C 
ATOM     32  O   UNL     1       4.226   5.434  -2.087  0.00  0.00    -0.375 OA
ENDBRANCH  27  28
ENDBRANCH  11  27
TORSDOF 7
