REMARK  Name = ZINC46395348
REMARK  12 active torsions:
REMARK  status: ('A' for Active; 'I' for Inactive)
REMARK    1  A    between atoms: C_1  and  C_2
REMARK    2  A    between atoms: C_2  and  C_4
REMARK    3  A    between atoms: C_2  and  N_17
REMARK    4  A    between atoms: N_6  and  C_7
REMARK    5  A    between atoms: N_6  and  C_10
REMARK    6  A    between atoms: C_7  and  C_8
REMARK    7  A    between atoms: C_10  and  C_11
REMARK    8  A    between atoms: C_18  and  O_20
REMARK    9  A    between atoms: O_20  and  C_21
REMARK   10  A    between atoms: C_21  and  C_22
REMARK   11  A    between atoms: C_21  and  C_23
REMARK   12  A    between atoms: C_21  and  C_24
REMARK                            x       y       z     vdW  Elec       q    Type
REMARK                         _______ _______ _______ _____ _____    ______ ____
ROOT
ATOM      1  C   UNL     1       0.530  -0.684  -1.460  0.00  0.00    +0.236 C 
ATOM      2  O   UNL     1       1.499  -1.411  -1.514  0.00  0.00    -0.274 OA
ATOM      3  N   UNL     1       0.076  -0.082  -2.577  0.00  0.00    -0.292 N 
ENDROOT
BRANCH   1   5
ATOM      4  C   UNL     1       0.255   0.903   0.426  0.00  0.00    +0.038 C 
ATOM      5  C   UNL     1      -0.167  -0.453  -0.144  0.00  0.00    +0.159 C 
BRANCH   5   6
ATOM      6  N   UNL     1       0.202  -1.514   0.797  0.00  0.00    -0.270 N 
ATOM      7  C   UNL     1      -0.624  -1.830   1.814  0.00  0.00    +0.401 C 
ATOM      8  O   UNL     1      -1.674  -1.235   1.951  0.00  0.00    -0.226 OA
ATOM      9  H   UNL     1       1.040  -1.989   0.687  0.00  0.00    +0.153 HD
BRANCH   7  10
ATOM     10  O   UNL     1      -0.285  -2.805   2.678  0.00  0.00    -0.445 OA
BRANCH  10  11
ATOM     11  C   UNL     1      -1.207  -3.087   3.732  0.00  0.00    +0.107 C 
ATOM     12  C   UNL     1      -2.549  -3.516   3.135  0.00  0.00    +0.055 C 
ATOM     13  C   UNL     1      -0.654  -4.215   4.606  0.00  0.00    +0.055 C 
ATOM     14  C   UNL     1      -1.406  -1.833   4.585  0.00  0.00    +0.055 C 
ENDBRANCH  10  11
ENDBRANCH   7  10
ENDBRANCH   5   6
ENDBRANCH   1   5
BRANCH   3  15
ATOM     15  C   UNL     1      -0.995   0.913  -2.490  0.00  0.00    +0.135 C 
BRANCH  15  16
ATOM     16  C   UNL     1      -0.395   2.295  -2.443  0.00  0.00    -0.016 C 
ATOM     17  C   UNL     1      -0.772   3.202  -3.310  0.00  0.00    +0.005 C 
ENDBRANCH  15  16
ENDBRANCH   3  15
BRANCH   3  18
ATOM     18  C   UNL     1       0.655  -0.422  -3.879  0.00  0.00    +0.143 C 
BRANCH  18  19
ATOM     19  C   UNL     1      -0.114  -1.567  -4.487  0.00  0.00    -0.030 A 
ATOM     20  C   UNL     1       0.268  -2.870  -4.229  0.00  0.00    +0.005 A 
ATOM     21  C   UNL     1      -0.437  -3.920  -4.787  0.00  0.00    +0.000 A 
ATOM     22  C   UNL     1      -1.525  -3.667  -5.602  0.00  0.00    +0.000 A 
ATOM     23  C   UNL     1      -1.907  -2.363  -5.858  0.00  0.00    +0.000 A 
ATOM     24  C   UNL     1      -1.204  -1.313  -5.297  0.00  0.00    +0.005 A 
ENDBRANCH  18  19
ENDBRANCH   3  18
TORSDOF 8
