REMARK  Name = ZINC15744278
REMARK  6 active torsions:
REMARK  status: ('A' for Active; 'I' for Inactive)
REMARK    1  A    between atoms: C_3  and  N_21
REMARK    2  A    between atoms: C_6  and  N_7
REMARK    3  A    between atoms: C_8  and  C_10
REMARK    4  A    between atoms: C_10  and  C_11
REMARK    5  A    between atoms: N_21  and  S_22
REMARK    6  A    between atoms: S_22  and  C_25
REMARK                            x       y       z     vdW  Elec       q    Type
REMARK                         _______ _______ _______ _____ _____    ______ ____
ROOT
ATOM      1  C   UNL     1       4.952  -1.492  -3.966  0.00  0.00    +0.025 A 
ATOM      2  C   UNL     1       5.307  -1.461  -5.300  0.00  0.00    +0.026 A 
ATOM      3  C   UNL     1       6.467  -2.097  -5.723  0.00  0.00    +0.048 A 
ATOM      4  C   UNL     1       7.271  -2.760  -4.805  0.00  0.00    +0.026 A 
ATOM      5  C   UNL     1       6.917  -2.786  -3.471  0.00  0.00    +0.025 A 
ATOM      6  C   UNL     1       5.758  -2.149  -3.047  0.00  0.00    +0.034 A 
ENDROOT
BRANCH   6   7
ATOM      7  N   UNL     1       5.400  -2.176  -1.692  0.00  0.00    -0.285 N 
ATOM      8  C   UNL     1       6.354  -2.133  -0.742  0.00  0.00    +0.222 C 
ATOM      9  O   UNL     1       7.525  -2.157  -1.056  0.00  0.00    -0.275 OA
ATOM     10  H   UNL     1       4.465  -2.225  -1.439  0.00  0.00    +0.155 HD
BRANCH   8  11
ATOM     11  C   UNL     1       5.966  -2.055   0.713  0.00  0.00    +0.131 C 
BRANCH  11  12
ATOM     12  C   UNL     1       7.210  -2.019   1.563  0.00  0.00    -0.035 A 
ATOM     13  C   UNL     1       7.787  -0.807   1.891  0.00  0.00    +0.008 A 
ATOM     14  C   UNL     1       8.928  -0.770   2.669  0.00  0.00    +0.050 A 
ATOM     15  C   UNL     1       9.497  -1.950   3.124  0.00  0.00    +0.162 A 
ATOM     16  C   UNL     1       8.915  -3.169   2.798  0.00  0.00    +0.162 A 
ATOM     17  C   UNL     1       7.770  -3.199   2.015  0.00  0.00    +0.053 A 
ATOM     18  O   UNL     1       9.452  -4.338   3.241  0.00  0.00    -0.485 OA
ATOM     19  C   UNL     1      10.805  -4.290   3.707  0.00  0.00    +0.270 C 
ATOM     20  C   UNL     1      10.950  -3.075   4.634  0.00  0.00    +0.270 C 
ATOM     21  O   UNL     1      10.626  -1.899   3.883  0.00  0.00    -0.485 OA
ENDBRANCH  11  12
ENDBRANCH   8  11
ENDBRANCH   6   7
BRANCH   3  22
ATOM     22  N   UNL     1       6.824  -2.071  -7.076  0.00  0.00    -0.216 N 
ATOM     23  H   UNL     1       7.740  -1.878  -7.332  0.00  0.00    +0.174 HD
BRANCH  22  24
ATOM     24  S   UNL     1       5.685  -2.371  -8.239  0.00  0.00    +0.072 S 
ATOM     25  O   UNL     1       4.580  -1.525  -7.953  0.00  0.00    -0.150 OA
ATOM     26  O   UNL     1       6.363  -2.342  -9.488  0.00  0.00    -0.150 OA
BRANCH  24  27
ATOM     27  C   UNL     1       5.127  -4.026  -8.008  0.00  0.00    +0.111 A 
ATOM     28  C   UNL     1       5.826  -5.076  -8.573  0.00  0.00    +0.032 A 
ATOM     29  C   UNL     1       5.393  -6.376  -8.388  0.00  0.00    +0.043 A 
ATOM     30  C   UNL     1       4.252  -6.626  -7.646  0.00  0.00    +0.159 A 
ATOM     31  C   UNL     1       3.547  -5.572  -7.084  0.00  0.00    +0.160 A 
ATOM     32  C   UNL     1       3.987  -4.272  -7.266  0.00  0.00    +0.070 A 
ATOM     33  F   UNL     1       2.433  -5.814  -6.358  0.00  0.00    -0.202 F 
ATOM     34  F   UNL     1       3.825  -7.895  -7.469  0.00  0.00    -0.202 F 
ENDBRANCH  24  27
ENDBRANCH  22  24
ENDBRANCH   3  22
TORSDOF 6
