REMARK  Name = ZINC04933475
REMARK  13 active torsions:
REMARK  status: ('A' for Active; 'I' for Inactive)
REMARK    1  A    between atoms: C_1  and  C_2
REMARK    2  A    between atoms: C_2  and  C_3
REMARK    3  A    between atoms: C_2  and  C_4
REMARK    4  A    between atoms: C_4  and  N_5
REMARK    5  A    between atoms: N_5  and  C_6
REMARK    6  A    between atoms: C_6  and  C_7
REMARK    7  A    between atoms: C_7  and  C_8
REMARK    8  A    between atoms: C_7  and  C_9
REMARK    9  A    between atoms: C_10  and  C_12
REMARK   10  A    between atoms: C_12  and  N_13
REMARK   11  A    between atoms: N_13  and  C_14
REMARK   12  A    between atoms: N_13  and  S_15
REMARK   13  A    between atoms: S_15  and  C_18
REMARK                            x       y       z     vdW  Elec       q    Type
REMARK                         _______ _______ _______ _____ _____    ______ ____
ROOT
ATOM      1  S   UNL     1       1.156   7.469   0.386  0.00  0.00    +0.061 S 
ATOM      2  O   UNL     1       2.095   7.876  -0.600  0.00  0.00    -0.153 OA
ATOM      3  O   UNL     1      -0.222   7.807   0.311  0.00  0.00    -0.153 OA
ENDROOT
BRANCH   1   4
ATOM      4  C   UNL     1       1.240   5.711   0.467  0.00  0.00    +0.106 A 
ATOM      5  C   UNL     1       2.388   5.056   0.060  0.00  0.00    +0.030 A 
ATOM      6  C   UNL     1       2.458   3.678   0.121  0.00  0.00    +0.025 A 
ATOM      7  C   UNL     1       1.373   2.950   0.593  0.00  0.00    +0.037 A 
ATOM      8  C   UNL     1       0.222   3.611   1.001  0.00  0.00    -0.024 A 
ATOM      9  C   UNL     1       0.158   4.989   0.936  0.00  0.00    +0.034 A 
ATOM     10  C   UNL     1      -0.955   2.822   1.513  0.00  0.00    +0.046 C 
ATOM     11  C   UNL     1      -1.039   1.489   0.762  0.00  0.00    +0.101 C 
ATOM     12  C   UNL     1       0.311   0.825   0.752  0.00  0.00    +0.218 C 
ATOM     13  O   UNL     1       0.385  -0.384   0.824  0.00  0.00    -0.275 OA
ATOM     14  N   UNL     1       1.437   1.555   0.658  0.00  0.00    -0.285 N 
ATOM     15  H   UNL     1       2.299   1.111   0.636  0.00  0.00    +0.155 HD
ENDBRANCH   1   4
BRANCH   1  16
ATOM     16  N   UNL     1       1.708   8.053   1.834  0.00  0.00    -0.171 NA
ATOM     17  C   UNL     1       0.772   8.275   2.939  0.00  0.00    +0.132 C 
BRANCH  16  18
ATOM     18  C   UNL     1       3.132   8.346   2.011  0.00  0.00    +0.205 C 
BRANCH  18  20
ATOM     19  N   UNL     1       4.607  10.331   1.942  0.00  0.00    -0.300 N 
ATOM     20  C   UNL     1       3.382   9.806   1.737  0.00  0.00    +0.231 C 
ATOM     21  O   UNL     1       2.481  10.510   1.331  0.00  0.00    -0.274 OA
BRANCH  19  22
ATOM     22  C   UNL     1       5.723   9.460   2.318  0.00  0.00    +0.110 C 
BRANCH  22  24
ATOM     23  C   UNL     1       7.774   8.307   1.477  0.00  0.00    +0.009 C 
ATOM     24  C   UNL     1       6.527   9.094   1.069  0.00  0.00    +0.000 C 
ATOM     25  C   UNL     1       5.665   8.238   0.139  0.00  0.00    +0.009 C 
ENDBRANCH  22  24
ENDBRANCH  19  22
BRANCH  19  26
ATOM     26  C   UNL     1       4.821  11.772   1.790  0.00  0.00    +0.110 C 
BRANCH  26  27
ATOM     27  C   UNL     1       4.579  12.468   3.131  0.00  0.00    +0.000 C 
ATOM     28  C   UNL     1       5.630  12.007   4.143  0.00  0.00    +0.009 C 
ATOM     29  C   UNL     1       4.680  13.983   2.945  0.00  0.00    +0.009 C 
ENDBRANCH  26  27
ENDBRANCH  19  26
ENDBRANCH  18  20
ENDBRANCH  16  18
ENDBRANCH   1  16
TORSDOF 8
