REMARK  Name = ZINC40173517
REMARK  12 active torsions:
REMARK  status: ('A' for Active; 'I' for Inactive)
REMARK    1  A    between atoms: C_1  and  C_2
REMARK    2  A    between atoms: C_2  and  C_3
REMARK    3  A    between atoms: C_3  and  C_5
REMARK    4  A    between atoms: C_3  and  N_27
REMARK    5  A    between atoms: N_7  and  C_8
REMARK    6  A    between atoms: C_9  and  C_23
REMARK    7  A    between atoms: C_10  and  C_13
REMARK    8  A    between atoms: C_23  and  O_25
REMARK    9  A    between atoms: O_25  and  C_26
REMARK   10  A    between atoms: C_31  and  S_32
REMARK   11  A    between atoms: S_32  and  C_33
REMARK   12  A    between atoms: C_33  and  C_34
REMARK                            x       y       z     vdW  Elec       q    Type
REMARK                         _______ _______ _______ _____ _____    ______ ____
ROOT
ATOM      1  C   UNL     1      -2.040  -0.353  -1.360  0.00  0.00    +0.241 C 
ATOM      2  O   UNL     1      -2.452  -1.265  -2.045  0.00  0.00    -0.273 OA
ATOM      3  N   UNL     1      -2.166   0.920  -1.786  0.00  0.00    -0.278 N 
ATOM      4  H   UNL     1      -1.903   1.653  -1.208  0.00  0.00    +0.155 HD
ENDROOT
BRANCH   3   5
ATOM      5  C   UNL     1      -2.671   1.181  -3.050  0.00  0.00    +0.086 A 
ATOM      6  C   UNL     1      -2.862   2.415  -3.650  0.00  0.00    +0.095 A 
ATOM      7  C   UNL     1      -3.411   2.405  -4.995  0.00  0.00    +0.005 A 
ATOM      8  C   UNL     1      -3.673   1.176  -5.509  0.00  0.00    +0.056 A 
ATOM      9  S   UNL     1      -3.180   0.073  -4.202  0.00  0.00    -0.080 S 
BRANCH   7  10
ATOM     10  C   UNL     1      -3.668   3.652  -5.755  0.00  0.00    -0.013 A 
ATOM     11  C   UNL     1      -4.377   4.697  -5.164  0.00  0.00    +0.012 A 
ATOM     12  C   UNL     1      -4.616   5.856  -5.874  0.00  0.00    +0.050 A 
ATOM     13  C   UNL     1      -4.152   5.987  -7.175  0.00  0.00    +0.162 A 
ATOM     14  C   UNL     1      -3.441   4.949  -7.769  0.00  0.00    +0.163 A 
ATOM     15  C   UNL     1      -3.196   3.785  -7.059  0.00  0.00    +0.058 A 
ATOM     16  O   UNL     1      -2.971   5.065  -9.041  0.00  0.00    -0.485 OA
ATOM     17  C   UNL     1      -3.550   6.095  -9.850  0.00  0.00    +0.270 C 
ATOM     18  C   UNL     1      -3.602   7.385  -9.019  0.00  0.00    +0.270 C 
ATOM     19  O   UNL     1      -4.402   7.138  -7.858  0.00  0.00    -0.485 OA
ENDBRANCH   7  10
BRANCH   6  20
ATOM     20  C   UNL     1      -2.530   3.664  -2.965  0.00  0.00    +0.342 C 
ATOM     21  O   UNL     1      -1.417   4.142  -3.077  0.00  0.00    -0.245 OA
BRANCH  20  22
ATOM     22  O   UNL     1      -3.457   4.285  -2.208  0.00  0.00    -0.464 OA
ATOM     23  C   UNL     1      -3.064   5.500  -1.567  0.00  0.00    +0.280 C 
ENDBRANCH  20  22
ENDBRANCH   6  20
ENDBRANCH   3   5
BRANCH   1  24
ATOM     24  C   UNL     1      -1.389  -0.642  -0.033  0.00  0.00    +0.178 C 
BRANCH  24  25
ATOM     25  N   UNL     1      -1.287  -2.091   0.156  0.00  0.00    -0.279 N 
ATOM     26  C   UNL     1      -0.608  -2.960  -0.649  0.00  0.00    +0.216 A 
ATOM     27  N   UNL     1      -0.749  -4.166  -0.155  0.00  0.00    -0.113 NA
ATOM     28  N   UNL     1      -1.540  -4.071   0.997  0.00  0.00    -0.121 NA
ATOM     29  C   UNL     1      -1.852  -2.810   1.173  0.00  0.00    +0.194 A 
ATOM     30  N   UNL     1       0.108  -2.625  -1.791  0.00  0.00    -0.328 N 
ATOM     31  H   UNL     1       0.156  -1.700  -2.080  0.00  0.00    +0.145 HD
ATOM     32  H   UNL     1       0.561  -3.316  -2.300  0.00  0.00    +0.145 HD
BRANCH  29  33
ATOM     33  S   UNL     1      -2.829  -2.157   2.485  0.00  0.00    -0.071 S 
BRANCH  33  34
ATOM     34  C   UNL     1      -3.262  -3.613   3.477  0.00  0.00    +0.195 C 
BRANCH  34  35
ATOM     35  C   UNL     1      -4.090  -3.199   4.621  0.00  0.00    +0.074 C 
ATOM     36  N   UNL     1      -4.729  -2.880   5.505  0.00  0.00    -0.196 NA
ENDBRANCH  34  35
ENDBRANCH  33  34
ENDBRANCH  29  33
ENDBRANCH  24  25
BRANCH  24  38
ATOM     37  C   UNL     1       0.619  -0.197   1.387  0.00  0.00    +0.006 C 
ATOM     38  C   UNL     1       0.011  -0.025  -0.007  0.00  0.00    +0.031 C 
ENDBRANCH  24  38
ENDBRANCH   1  24
TORSDOF 10
