REMARK  Name = ZINC06194585
REMARK  7 active torsions:
REMARK  status: ('A' for Active; 'I' for Inactive)
REMARK    1  A    between atoms: C_6  and  S_7
REMARK    2  A    between atoms: S_7  and  N_10
REMARK    3  A    between atoms: N_10  and  C_11
REMARK    4  A    between atoms: C_11  and  C_13
REMARK    5  A    between atoms: C_11  and  C_16
REMARK    6  A    between atoms: C_13  and  C_14
REMARK    7  A    between atoms: C_18  and  N_23
REMARK                            x       y       z     vdW  Elec       q    Type
REMARK                         _______ _______ _______ _____ _____    ______ ____
ROOT
ATOM      1  C   UNL     1      -2.457   1.032   0.076  0.00  0.00    +0.119 C 
ENDROOT
BRANCH   1   2
ATOM      2  C   UNL     1      -3.670   1.923   0.161  0.00  0.00    -0.008 A 
ATOM      3  C   UNL     1      -4.452   2.134  -0.959  0.00  0.00    +0.039 A 
ATOM      4  C   UNL     1      -5.567   2.947  -0.880  0.00  0.00    +0.127 A 
ATOM      5  C   UNL     1      -5.895   3.558   0.316  0.00  0.00    +0.034 A 
ATOM      6  C   UNL     1      -5.111   3.351   1.435  0.00  0.00    +0.022 A 
ATOM      7  C   UNL     1      -3.997   2.533   1.358  0.00  0.00    +0.046 A 
ATOM      8 CL   UNL     1      -3.011   2.274   2.763  0.00  0.00    -0.083 Cl
BRANCH   4   9
ATOM      9  N   UNL     1      -6.407   3.169  -2.079  0.00  0.00    +0.056 N 
ATOM     10  O   UNL     1      -7.387   3.889  -2.011  0.00  0.00    -0.126 OA
ATOM     11  O   UNL     1      -6.118   2.631  -3.133  0.00  0.00    -0.126 OA
ENDBRANCH   4   9
ENDBRANCH   1   2
BRANCH   1  12
ATOM     12  N   UNL     1      -2.578   0.152  -1.089  0.00  0.00    -0.182 NA
ATOM     13  H   UNL     1      -2.987   0.481  -1.905  0.00  0.00    +0.149 HD
BRANCH  12  14
ATOM     14  S   UNL     1      -2.015  -1.403  -1.014  0.00  0.00    +0.059 S 
ATOM     15  O   UNL     1      -2.318  -2.006  -2.265  0.00  0.00    -0.153 OA
ATOM     16  O   UNL     1      -0.690  -1.332  -0.505  0.00  0.00    -0.153 OA
BRANCH  14  22
ATOM     17  C   UNL     1      -2.567  -2.259   1.518  0.00  0.00    +0.030 A 
ATOM     18  C   UNL     1      -3.323  -2.916   2.471  0.00  0.00    +0.022 A 
ATOM     19  C   UNL     1      -4.484  -3.571   2.100  0.00  0.00    +0.041 A 
ATOM     20  C   UNL     1      -4.889  -3.564   0.778  0.00  0.00    +0.022 A 
ATOM     21  C   UNL     1      -4.135  -2.902  -0.173  0.00  0.00    +0.030 A 
ATOM     22  C   UNL     1      -2.976  -2.247   0.198  0.00  0.00    +0.105 A 
ATOM     23 CL   UNL     1      -5.430  -4.402   3.295  0.00  0.00    -0.084 Cl
ENDBRANCH  14  22
ENDBRANCH  12  14
ENDBRANCH   1  12
BRANCH   1  24
ATOM     24  C   UNL     1      -1.200   1.893  -0.064  0.00  0.00    +0.150 C 
BRANCH  24  25
ATOM     25  C   UNL     1      -1.258   2.661  -1.360  0.00  0.00    +0.358 C 
ATOM     26  O   UNL     1      -2.149   2.448  -2.148  0.00  0.00    -0.246 OA
ATOM     27  O   UNL     1      -0.324   3.584  -1.635  0.00  0.00    -0.246 OA
ENDBRANCH  24  25
ENDBRANCH   1  24
TORSDOF 7
