REMARK  Name = ZINC64502729
REMARK  10 active torsions:
REMARK  status: ('A' for Active; 'I' for Inactive)
REMARK    1  A    between atoms: C_1  and  C_2
REMARK    2  A    between atoms: C_8  and  C_11
REMARK    3  A    between atoms: C_11  and  C_12
REMARK    4  A    between atoms: C_12  and  N_13
REMARK    5  A    between atoms: C_14  and  C_16
REMARK    6  A    between atoms: C_19  and  N_22
REMARK    7  A    between atoms: C_23  and  C_25
REMARK    8  A    between atoms: C_29  and  C_32
REMARK    9  A    between atoms: C_32  and  O_33
REMARK   10  A    between atoms: O_33  and  C_34
REMARK                            x       y       z     vdW  Elec       q    Type
REMARK                         _______ _______ _______ _____ _____    ______ ____
ROOT
ATOM      1  C   UNL     1      -2.526  -2.358   7.755  0.00  0.00    +0.037 A 
ATOM      2  C   UNL     1      -1.318  -2.289   8.455  0.00  0.00    +0.015 A 
ATOM      3  C   UNL     1      -1.322  -2.045   9.810  0.00  0.00    +0.024 A 
ATOM      4  C   UNL     1      -2.527  -1.868  10.483  0.00  0.00    +0.034 A 
ATOM      5  C   UNL     1      -3.731  -1.937   9.789  0.00  0.00    +0.024 A 
ATOM      6  C   UNL     1      -3.734  -2.174   8.433  0.00  0.00    +0.015 A 
ENDROOT
BRANCH   1   8
ATOM      7  N   UNL     1      -1.359  -2.796   5.650  0.00  0.00    -0.311 N 
ATOM      8  C   UNL     1      -2.525  -2.619   6.303  0.00  0.00    +0.244 C 
ATOM      9  O   UNL     1      -3.576  -2.674   5.694  0.00  0.00    -0.270 OA
ATOM     10  H   UNL     1      -0.520  -2.752   6.136  0.00  0.00    +0.149 HD
BRANCH   7  11
ATOM     11  C   UNL     1      -1.358  -3.055   4.208  0.00  0.00    +0.109 C 
BRANCH  11  12
ATOM     12  C   UNL     1       0.083  -3.217   3.720  0.00  0.00    +0.052 C 
BRANCH  12  20
ATOM     13  C   UNL     1       0.750   1.028   0.083  0.00  0.00    +0.044 C 
ATOM     14  C   UNL     1       0.547  -0.466   0.077  0.00  0.00    -0.050 A 
ATOM     15  C   UNL     1       0.485  -1.142  -1.149  0.00  0.00    +0.005 A 
ATOM     16  C   UNL     1       0.305  -2.477  -1.238  0.00  0.00    +0.026 A 
ATOM     17  C   UNL     1       0.170  -3.263  -0.061  0.00  0.00    +0.043 A 
ATOM     18  N   UNL     1      -0.011  -4.550   0.113  0.00  0.00    -0.380 N 
ATOM     19  C   UNL     1      -0.083  -4.822   1.553  0.00  0.00    +0.144 C 
ATOM     20  C   UNL     1       0.083  -3.483   2.237  0.00  0.00    -0.040 C 
ATOM     21  C   UNL     1       0.232  -2.573   1.247  0.00  0.00    -0.001 A 
ATOM     22  C   UNL     1       0.435  -1.119   1.256  0.00  0.00    +0.013 A 
ATOM     23  H   UNL     1      -0.084  -5.212  -0.592  0.00  0.00    +0.160 HD
ENDBRANCH  12  20
ENDBRANCH  11  12
ENDBRANCH   7  11
ENDBRANCH   1   8
BRANCH   4  24
ATOM     24  N   UNL     1      -2.528  -1.623  11.855  0.00  0.00    -0.283 N 
ATOM     25  C   UNL     1      -1.526  -0.914  12.414  0.00  0.00    +0.254 C 
ATOM     26  O   UNL     1      -0.676  -0.408  11.711  0.00  0.00    -0.272 OA
ATOM     27  H   UNL     1      -3.249  -1.962  12.409  0.00  0.00    +0.155 HD
BRANCH  25  28
ATOM     28  C   UNL     1      -1.463  -0.749  13.910  0.00  0.00    +0.272 C 
ATOM     29  N   UNL     1      -2.463   0.233  14.387  0.00  0.00    -0.167 NA
ATOM     30  N   UNL     1      -2.144   1.123  15.151  0.00  0.00    -0.174 NA
ATOM     31  C   UNL     1      -0.746   1.248  15.624  0.00  0.00    +0.213 C 
ATOM     32  S   UNL     1       0.090   0.111  14.428  0.00  0.00    -0.093 S 
BRANCH  31  33
ATOM     33  C   UNL     1      -0.235   2.683  15.481  0.00  0.00    +0.199 C 
BRANCH  33  34
ATOM     34  O   UNL     1      -0.318   3.084  14.112  0.00  0.00    -0.380 OA
ATOM     35  C   UNL     1       0.138   4.416  13.868  0.00  0.00    +0.194 C 
ENDBRANCH  33  34
ENDBRANCH  31  33
ENDBRANCH  25  28
ENDBRANCH   4  24
TORSDOF 8
