REMARK  Name = ZINC39674694
REMARK  7 active torsions:
REMARK  status: ('A' for Active; 'I' for Inactive)
REMARK    1  A    between atoms: C_1  and  C_2
REMARK    2  A    between atoms: C_4  and  C_14
REMARK    3  A    between atoms: C_7  and  C_12
REMARK    4  A    between atoms: C_14  and  C_15
REMARK    5  A    between atoms: C_15  and  N_16
REMARK    6  A    between atoms: C_17  and  C_19
REMARK    7  A    between atoms: C_30  and  C_32
REMARK                            x       y       z     vdW  Elec       q    Type
REMARK                         _______ _______ _______ _____ _____    ______ ____
ROOT
ATOM      1  C   UNL     1      -7.423  -0.892  -2.961  0.00  0.00    +0.100 C 
ATOM      2  C   UNL     1      -6.721  -1.568  -4.160  0.00  0.00    +0.121 C 
ATOM      3  N   UNL     1      -7.255  -2.950  -4.175  0.00  0.00    -0.296 N 
ATOM      4  C   UNL     1      -8.690  -2.796  -3.837  0.00  0.00    +0.115 C 
ATOM      5  C   UNL     1      -8.716  -1.698  -2.754  0.00  0.00    -0.004 C 
ATOM      6  C   UNL     1      -9.935  -0.800  -2.943  0.00  0.00    -0.010 C 
ATOM      7  C   UNL     1     -11.207  -1.610  -2.675  0.00  0.00    -0.082 C 
ATOM      8  N   UNL     1     -11.172  -2.141  -1.307  0.00  0.00    +0.379 N 
ATOM      9  C   UNL     1     -10.051  -3.077  -1.162  0.00  0.00    -0.082 C 
ATOM     10  C   UNL     1      -8.730  -2.329  -1.365  0.00  0.00    -0.010 C 
ATOM     11  C   UNL     1      -6.586  -4.091  -4.438  0.00  0.00    +0.247 C 
ATOM     12  O   UNL     1      -5.379  -4.069  -4.576  0.00  0.00    -0.270 OA
ATOM     13  H   UNL     1     -11.060  -1.379  -0.655  0.00  0.00    -0.086 HD
ATOM     14  H   UNL     1     -12.038  -2.622  -1.113  0.00  0.00    -0.086 HD
ENDROOT
BRANCH  11  15
ATOM     15  C   UNL     1      -7.322  -5.368  -4.558  0.00  0.00    +0.037 A 
ATOM     16  C   UNL     1      -8.690  -5.365  -4.835  0.00  0.00    +0.013 A 
ATOM     17  C   UNL     1      -9.370  -6.561  -4.946  0.00  0.00    +0.001 A 
ATOM     18  C   UNL     1      -8.699  -7.760  -4.783  0.00  0.00    +0.000 A 
ATOM     19  C   UNL     1      -7.343  -7.769  -4.508  0.00  0.00    +0.001 A 
ATOM     20  C   UNL     1      -6.650  -6.581  -4.401  0.00  0.00    +0.013 A 
ENDBRANCH  11  15
BRANCH   1  22
ATOM     21  N   UNL     1      -6.715  -0.077  -0.735  0.00  0.00    -0.315 N 
ATOM     22  C   UNL     1      -6.554  -0.970  -1.732  0.00  0.00    +0.218 C 
ATOM     23  O   UNL     1      -5.711  -1.837  -1.640  0.00  0.00    -0.275 OA
ATOM     24  H   UNL     1      -7.390   0.616  -0.808  0.00  0.00    +0.149 HD
BRANCH  21  25
ATOM     25  C   UNL     1      -5.870  -0.153   0.460  0.00  0.00    +0.108 C 
BRANCH  25  26
ATOM     26  C   UNL     1      -6.255   0.967   1.428  0.00  0.00    +0.052 C 
BRANCH  26  29
ATOM     27  C   UNL     1      -6.804   1.725   4.531  0.00  0.00    +0.035 C 
ATOM     28  C   UNL     1      -5.430   1.801   3.861  0.00  0.00    +0.103 C 
ATOM     29  C   UNL     1      -5.386   0.888   2.657  0.00  0.00    -0.037 C 
ATOM     30  C   UNL     1      -4.405  -0.017   2.907  0.00  0.00    +0.000 A 
ATOM     31  C   UNL     1      -3.910  -1.110   2.149  0.00  0.00    +0.028 A 
ATOM     32  C   UNL     1      -2.887  -1.885   2.644  0.00  0.00    +0.052 A 
ATOM     33  C   UNL     1      -2.290  -1.610   3.947  0.00  0.00    +0.021 A 
ATOM     34  C   UNL     1      -2.720  -0.585   4.711  0.00  0.00    +0.027 A 
ATOM     35  C   UNL     1      -3.809   0.273   4.230  0.00  0.00    +0.043 A 
ATOM     36  N   UNL     1      -4.394   1.313   4.777  0.00  0.00    -0.378 N 
ATOM     37  H   UNL     1      -4.177   1.695   5.641  0.00  0.00    +0.160 HD
BRANCH  32  38
ATOM     38  C   UNL     1      -2.400  -2.984   1.866  0.00  0.00    +0.099 C 
ATOM     39  N   UNL     1      -2.013  -3.856   1.249  0.00  0.00    -0.191 NA
ENDBRANCH  32  38
ENDBRANCH  26  29
ENDBRANCH  25  26
ENDBRANCH  21  25
ENDBRANCH   1  22
TORSDOF 6
