REMARK  Name = ZINC12473533
REMARK  10 active torsions:
REMARK  status: ('A' for Active; 'I' for Inactive)
REMARK    1  A    between atoms: C_1  and  C_2
REMARK    2  A    between atoms: C_5  and  N_8
REMARK    3  A    between atoms: C_9  and  C_11
REMARK    4  A    between atoms: C_11  and  S_12
REMARK    5  A    between atoms: S_12  and  C_14
REMARK    6  A    between atoms: C_14  and  C_15
REMARK    7  A    between atoms: N_17  and  C_18
REMARK    8  A    between atoms: N_17  and  C_28
REMARK    9  A    between atoms: C_18  and  C_19
REMARK   10  A    between atoms: N_21  and  C_22
REMARK                            x       y       z     vdW  Elec       q    Type
REMARK                         _______ _______ _______ _____ _____    ______ ____
ROOT
ATOM      1  C   UNL     1       4.778   0.021  -0.145  0.00  0.00    +0.233 C 
ATOM      2  O   UNL     1       5.823  -0.578  -0.294  0.00  0.00    -0.274 OA
ATOM      3  N   UNL     1       3.628  -0.662   0.017  0.00  0.00    -0.262 N 
ENDROOT
BRANCH   3   4
ATOM      4  C   UNL     1       2.410   0.026   0.101  0.00  0.00    +0.040 A 
ATOM      5  C   UNL     1       1.911   0.692  -1.010  0.00  0.00    +0.027 A 
ATOM      6  C   UNL     1       0.711   1.372  -0.927  0.00  0.00    +0.051 A 
ATOM      7  C   UNL     1       0.003   1.393   0.265  0.00  0.00    +0.162 A 
ATOM      8  C   UNL     1       0.499   0.725   1.378  0.00  0.00    +0.164 A 
ATOM      9  C   UNL     1       1.703   0.043   1.295  0.00  0.00    +0.073 A 
ATOM     10  O   UNL     1      -0.187   0.726   2.554  0.00  0.00    -0.485 OA
ATOM     11  C   UNL     1      -1.200   1.726   2.708  0.00  0.00    +0.270 C 
ATOM     12  C   UNL     1      -2.041   1.759   1.425  0.00  0.00    +0.270 C 
ATOM     13  O   UNL     1      -1.174   2.075   0.330  0.00  0.00    -0.485 OA
ENDBRANCH   3   4
BRANCH   1  14
ATOM     14  C   UNL     1       4.767   1.528  -0.142  0.00  0.00    +0.200 C 
BRANCH  14  15
ATOM     15  S   UNL     1       6.444   2.146  -0.451  0.00  0.00    +0.040 S 
ATOM     16  O   UNL     1       6.868   1.738  -1.744  0.00  0.00    -0.256 OA
BRANCH  15  17
ATOM     17  C   UNL     1       6.260   3.950  -0.416  0.00  0.00    +0.200 C 
BRANCH  17  19
ATOM     18  N   UNL     1       7.706   5.940  -0.681  0.00  0.00    -0.285 N 
ATOM     19  C   UNL     1       7.599   4.596  -0.662  0.00  0.00    +0.230 C 
ATOM     20  O   UNL     1       8.581   3.907  -0.844  0.00  0.00    -0.274 OA
ATOM     21  H   UNL     1       6.911   6.490  -0.606  0.00  0.00    +0.155 HD
BRANCH  18  26
ATOM     22  C   UNL     1      12.804   8.373  -1.197  0.00  0.00    +0.044 C 
ATOM     23  C   UNL     1      11.450   7.727  -1.060  0.00  0.00    -0.050 A 
ATOM     24  C   UNL     1      11.181   6.543  -1.721  0.00  0.00    +0.005 A 
ATOM     25  C   UNL     1       9.940   5.948  -1.598  0.00  0.00    +0.023 A 
ATOM     26  C   UNL     1       8.963   6.540  -0.808  0.00  0.00    +0.033 A 
ATOM     27  C   UNL     1       9.235   7.732  -0.150  0.00  0.00    +0.023 A 
ATOM     28  C   UNL     1      10.479   8.319  -0.272  0.00  0.00    +0.005 A 
ENDBRANCH  18  26
ENDBRANCH  17  19
ENDBRANCH  15  17
ENDBRANCH  14  15
ENDBRANCH   1  14
BRANCH   3  29
ATOM     29  C   UNL     1       3.650  -2.124   0.106  0.00  0.00    +0.209 C 
BRANCH  29  30
ATOM     30  C   UNL     1       3.511  -2.713  -1.274  0.00  0.00    +0.231 C 
ATOM     31  O   UNL     1       3.403  -1.984  -2.237  0.00  0.00    -0.274 OA
ATOM     32  N   UNL     1       3.505  -4.051  -1.439  0.00  0.00    -0.311 N 
ATOM     33  H   UNL     1       3.591  -4.635  -0.669  0.00  0.00    +0.149 HD
BRANCH  32  34
ATOM     34  C   UNL     1       3.370  -4.624  -2.780  0.00  0.00    +0.073 C 
ATOM     35  C   UNL     1       1.887  -4.720  -3.146  0.00  0.00    +0.022 C 
ATOM     36  C   UNL     1       1.746  -5.318  -4.548  0.00  0.00    +0.002 C 
ATOM     37  C   UNL     1       2.369  -6.716  -4.571  0.00  0.00    +0.000 C 
ATOM     38  C   UNL     1       3.852  -6.619  -4.205  0.00  0.00    +0.002 C 
ATOM     39  C   UNL     1       3.993  -6.021  -2.804  0.00  0.00    +0.022 C 
ENDBRANCH  32  34
ENDBRANCH  29  30
ENDBRANCH   3  29
TORSDOF 9
