REMARK  Name = ZINC49806558
REMARK  1 active torsions:
REMARK  status: ('A' for Active; 'I' for Inactive)
REMARK    1  A    between atoms: C_6  and  N_7
REMARK                            x       y       z     vdW  Elec       q    Type
REMARK                         _______ _______ _______ _____ _____    ______ ____
ROOT
ATOM      1  C   UNL     1      -0.017   1.395   0.010  0.00  0.00    +0.027 A 
ATOM      2  C   UNL     1       1.141   2.159   0.003  0.00  0.00    +0.049 A 
ATOM      3  C   UNL     1       2.381   1.558  -0.012  0.00  0.00    +0.142 A 
ATOM      4  C   UNL     1       2.395   0.158  -0.020  0.00  0.00    +0.084 A 
ATOM      5  C   UNL     1       1.246  -0.613  -0.013  0.00  0.00    +0.007 A 
ATOM      6  C   UNL     1       0.002  -0.004   0.002  0.00  0.00    +0.030 A 
ATOM      7  C   UNL     1       1.724  -2.031  -0.026  0.00  0.00    +0.135 C 
ATOM      8  C   UNL     1       3.244  -1.919  -0.041  0.00  0.00    +0.224 C 
ATOM      9  O   UNL     1       4.031  -2.843  -0.056  0.00  0.00    -0.275 OA
ATOM     10  N   UNL     1       3.554  -0.617  -0.036  0.00  0.00    -0.264 N 
ATOM     11  C   UNL     1       4.865   0.057  -0.043  0.00  0.00    +0.154 C 
ATOM     12  C   UNL     1       4.671   1.457  -0.642  0.00  0.00    +0.248 C 
ATOM     13  O   UNL     1       3.592   2.166  -0.020  0.00  0.00    -0.489 OA
ENDROOT
BRANCH   6  14
ATOM     14  N   UNL     1      -1.180  -0.753   0.010  0.00  0.00    -0.358 N 
ATOM     15  H   UNL     1      -2.039  -0.303   0.021  0.00  0.00    +0.142 HD
ATOM     16  H   UNL     1      -1.140  -1.722   0.004  0.00  0.00    +0.142 HD
ENDBRANCH   6  14
TORSDOF 1
