REMARK  Name = ZINC08962188
REMARK  9 active torsions:
REMARK  status: ('A' for Active; 'I' for Inactive)
REMARK    1  A    between atoms: C_1  and  C_2
REMARK    2  A    between atoms: C_2  and  C_3
REMARK    3  A    between atoms: C_10  and  N_16
REMARK    4  A    between atoms: N_16  and  S_17
REMARK    5  A    between atoms: S_17  and  C_20
REMARK    6  A    between atoms: C_23  and  N_26
REMARK    7  A    between atoms: C_27  and  C_29
REMARK    8  A    between atoms: C_29  and  C_30
REMARK    9  A    between atoms: C_29  and  C_31
REMARK                            x       y       z     vdW  Elec       q    Type
REMARK                         _______ _______ _______ _____ _____    ______ ____
ROOT
ATOM      1  N   UNL     1      -0.961   1.887   1.235  0.00  0.00    -0.216 N 
ATOM      2  H   UNL     1      -0.757   2.702   1.720  0.00  0.00    +0.174 HD
ENDROOT
BRANCH   1   9
ATOM      3  C   UNL     1      -6.135   0.697   4.103  0.00  0.00    +0.110 C 
ATOM      4  C   UNL     1      -6.600  -0.285   3.036  0.00  0.00    +0.251 C 
ATOM      5  O   UNL     1      -5.510  -1.011   2.482  0.00  0.00    -0.489 OA
ATOM      6  C   UNL     1      -4.394  -0.308   2.163  0.00  0.00    +0.133 A 
ATOM      7  C   UNL     1      -4.077  -0.035   0.843  0.00  0.00    +0.048 A 
ATOM      8  C   UNL     1      -2.945   0.695   0.541  0.00  0.00    +0.028 A 
ATOM      9  C   UNL     1      -2.109   1.151   1.555  0.00  0.00    +0.049 A 
ATOM     10  C   UNL     1      -2.412   0.885   2.880  0.00  0.00    +0.041 A 
ATOM     11  C   UNL     1      -3.556   0.152   3.191  0.00  0.00    +0.080 A 
ATOM     12  C   UNL     1      -3.906  -0.156   4.590  0.00  0.00    +0.248 C 
ATOM     13  O   UNL     1      -3.070  -0.599   5.354  0.00  0.00    -0.270 OA
ATOM     14  N   UNL     1      -5.175   0.063   5.009  0.00  0.00    -0.305 N 
ATOM     15  H   UNL     1      -5.447  -0.198   5.903  0.00  0.00    +0.149 HD
BRANCH   3  17
ATOM     16  C   UNL     1      -4.945   2.858   4.497  0.00  0.00    +0.006 C 
ATOM     17  C   UNL     1      -5.471   1.898   3.428  0.00  0.00    +0.022 C 
ENDBRANCH   3  17
ENDBRANCH   1   9
BRANCH   1  18
ATOM     18  S   UNL     1       0.047   1.366   0.030  0.00  0.00    +0.072 S 
ATOM     19  O   UNL     1       1.160   2.250   0.021  0.00  0.00    -0.150 OA
ATOM     20  O   UNL     1      -0.765   1.151  -1.116  0.00  0.00    -0.150 OA
BRANCH  18  21
ATOM     21  C   UNL     1       0.663  -0.213   0.513  0.00  0.00    +0.109 A 
ATOM     22  C   UNL     1       1.883  -0.310   1.157  0.00  0.00    +0.030 A 
ATOM     23  C   UNL     1       2.366  -1.546   1.541  0.00  0.00    +0.025 A 
ATOM     24  C   UNL     1       1.632  -2.692   1.269  0.00  0.00    +0.034 A 
ATOM     25  C   UNL     1       0.410  -2.592   0.617  0.00  0.00    +0.025 A 
ATOM     26  C   UNL     1      -0.071  -1.353   0.241  0.00  0.00    +0.030 A 
BRANCH  24  27
ATOM     27  N   UNL     1       2.121  -3.946   1.652  0.00  0.00    -0.285 N 
ATOM     28  C   UNL     1       1.893  -5.024   0.876  0.00  0.00    +0.220 C 
ATOM     29  O   UNL     1       1.190  -4.925  -0.107  0.00  0.00    -0.275 OA
ATOM     30  H   UNL     1       2.625  -4.039   2.476  0.00  0.00    +0.155 HD
BRANCH  28  31
ATOM     31  C   UNL     1       2.511  -6.352   1.231  0.00  0.00    +0.069 C 
ATOM     32  C   UNL     1       2.028  -6.785   2.617  0.00  0.00    +0.017 C 
ATOM     33  C   UNL     1       2.096  -7.400   0.196  0.00  0.00    +0.017 C 
ENDBRANCH  28  31
ENDBRANCH  24  27
ENDBRANCH  18  21
ENDBRANCH   1  18
TORSDOF 6
