REMARK  Name = ZINC35483584
REMARK  2 active torsions:
REMARK  status: ('A' for Active; 'I' for Inactive)
REMARK    1  A    between atoms: N_7  and  C_8
REMARK    2  A    between atoms: C_8  and  C_9
REMARK                            x       y       z     vdW  Elec       q    Type
REMARK                         _______ _______ _______ _____ _____    ______ ____
ROOT
ATOM      1  C   UNL     1      -0.016   1.353   0.009  0.00  0.00    +0.204 A 
ATOM      2  N   UNL     1       1.059   2.078   0.003  0.00  0.00    -0.217 NA
ATOM      3  C   UNL     1       2.301   1.519  -0.012  0.00  0.00    +0.176 A 
ATOM      4  C   UNL     1       2.351   0.113  -0.020  0.00  0.00    +0.124 A 
ATOM      5  C   UNL     1       1.193  -0.653  -0.013  0.00  0.00    +0.270 A 
ATOM      6  O   UNL     1       1.245  -1.872  -0.020  0.00  0.00    -0.266 OA
ATOM      7  N   UNL     1       0.002  -0.004   0.002  0.00  0.00    -0.289 N 
ATOM      8  S   UNL     1       4.094  -0.201  -0.038  0.00  0.00    -0.045 S 
ATOM      9  C   UNL     1       4.617   1.400  -0.035  0.00  0.00    +0.164 A 
ATOM     10  N   UNL     1       3.502   2.099  -0.020  0.00  0.00    -0.205 NA
ATOM     11  N   UNL     1       5.912   1.870  -0.044  0.00  0.00    -0.310 N 
ATOM     12  C   UNL     1       7.046   0.936  -0.066  0.00  0.00    +0.107 C 
ATOM     13  C   UNL     1       7.961   1.300  -1.241  0.00  0.00    +0.019 C 
ATOM     14  C   UNL     1       8.361   2.773  -1.134  0.00  0.00    +0.003 C 
ATOM     15  C   UNL     1       7.109   3.650  -1.208  0.00  0.00    +0.019 C 
ATOM     16  C   UNL     1       6.184   3.313  -0.039  0.00  0.00    +0.107 C 
ENDROOT
BRANCH   7  17
ATOM     17  C   UNL     1      -1.252  -0.761   0.010  0.00  0.00    +0.221 C 
BRANCH  17  18
ATOM     18  C   UNL     1      -1.696  -1.013  -1.408  0.00  0.00    +0.230 C 
ATOM     19  O   UNL     1      -1.030  -0.601  -2.334  0.00  0.00    -0.274 OA
ATOM     20  N   UNL     1      -2.833  -1.696  -1.647  0.00  0.00    -0.328 N 
ATOM     21  H   UNL     1      -3.366  -2.025  -0.907  0.00  0.00    +0.145 HD
ATOM     22  H   UNL     1      -3.118  -1.858  -2.560  0.00  0.00    +0.145 HD
ENDBRANCH  17  18
ENDBRANCH   7  17
TORSDOF 2
