REMARK  Name = ZINC22419221
REMARK  8 active torsions:
REMARK  status: ('A' for Active; 'I' for Inactive)
REMARK    1  A    between atoms: C_1  and  C_2
REMARK    2  A    between atoms: C_5  and  N_9
REMARK    3  A    between atoms: C_7  and  C_8
REMARK    4  A    between atoms: C_13  and  C_15
REMARK    5  A    between atoms: C_15  and  S_16
REMARK    6  A    between atoms: S_16  and  C_17
REMARK    7  A    between atoms: N_25  and  C_33
REMARK    8  A    between atoms: C_28  and  C_30
REMARK                            x       y       z     vdW  Elec       q    Type
REMARK                         _______ _______ _______ _____ _____    ______ ____
ROOT
ATOM      1  C   UNL     1       2.028  -3.020  -0.992  0.00  0.00    +0.115 A 
ATOM      2  C   UNL     1       1.899  -1.623  -1.009  0.00  0.00    +0.114 A 
ATOM      3  C   UNL     1       0.597  -0.948  -1.037  0.00  0.00    +0.266 A 
ATOM      4  O   UNL     1      -0.438  -1.586  -1.045  0.00  0.00    -0.267 OA
ATOM      5  N   UNL     1       0.582   0.404  -1.053  0.00  0.00    -0.274 N 
ATOM      6  H   UNL     1      -0.377   0.942  -1.074  0.00  0.00    +0.173 HD
ATOM      7  C   UNL     1       1.722   1.112  -1.044  0.00  0.00    +0.331 A 
ATOM      8  O   UNL     1       1.653   2.325  -1.060  0.00  0.00    -0.246 OA
ATOM      9  N   UNL     1       2.938   0.537  -1.019  0.00  0.00    -0.275 N 
ATOM     10  C   UNL     1       3.065  -0.835  -1.001  0.00  0.00    +0.155 A 
ATOM     11  N   UNL     1       4.245  -1.440  -0.976  0.00  0.00    -0.214 NA
ATOM     12  C   UNL     1       4.322  -2.758  -0.960  0.00  0.00    +0.136 A 
ATOM     13  N   UNL     1       3.258  -3.535  -0.967  0.00  0.00    -0.225 NA
ENDROOT
BRANCH  12  14
ATOM     14  C   UNL     1       5.685  -3.400  -0.933  0.00  0.00    +0.057 C 
ATOM     15  C   UNL     1       5.755  -4.917  -1.118  0.00  0.00    +0.012 C 
ATOM     16  C   UNL     1       6.017  -4.301   0.258  0.00  0.00    +0.012 C 
ENDBRANCH  12  14
BRANCH   9  17
ATOM     17  C   UNL     1       4.138   1.378  -1.011  0.00  0.00    +0.094 C 
ATOM     18  C   UNL     1       5.229   1.041   0.007  0.00  0.00    +0.027 C 
ATOM     19  C   UNL     1       4.357   2.283   0.203  0.00  0.00    +0.027 C 
ENDBRANCH   9  17
BRANCH   1  20
ATOM     20  S   UNL     1       0.607  -4.063  -1.000  0.00  0.00    -0.096 S 
BRANCH  20  21
ATOM     21  C   UNL     1       1.409  -5.685  -0.970  0.00  0.00    +0.172 C 
BRANCH  21  26
ATOM     22  N   UNL     1       0.148 -10.324  -0.935  0.00  0.00    -0.269 N 
ATOM     23  C   UNL     1      -0.218  -9.027  -0.955  0.00  0.00    +0.310 C 
ATOM     24  O   UNL     1      -1.396  -8.728  -0.976  0.00  0.00    -0.252 OA
ATOM     25  N   UNL     1       0.723  -8.062  -0.953  0.00  0.00    -0.239 N 
ATOM     26  C   UNL     1       0.357  -6.765  -0.973  0.00  0.00    +0.231 C 
ATOM     27  O   UNL     1      -0.818  -6.466  -0.993  0.00  0.00    -0.274 OA
ATOM     28  H   UNL     1       1.211 -10.597  -1.004  0.00  0.00    +0.156 HD
ATOM     29  H   UNL     1       1.789  -8.333  -0.934  0.00  0.00    +0.159 HD
BRANCH  22  34
ATOM     30  C   UNL     1      -3.797 -14.377  -0.494  0.00  0.00    +0.044 C 
ATOM     31  C   UNL     1      -2.749 -13.301  -0.611  0.00  0.00    -0.047 A 
ATOM     32  C   UNL     1      -2.939 -12.082   0.015  0.00  0.00    +0.005 A 
ATOM     33  C   UNL     1      -1.978 -11.096  -0.085  0.00  0.00    +0.023 A 
ATOM     34  C   UNL     1      -0.825 -11.324  -0.826  0.00  0.00    +0.035 A 
ATOM     35  C   UNL     1      -0.638 -12.548  -1.454  0.00  0.00    +0.027 A 
ATOM     36  C   UNL     1      -1.601 -13.533  -1.345  0.00  0.00    -0.046 A 
ATOM     37  C   UNL     1      -1.399 -14.862  -2.026  0.00  0.00    +0.044 C 
ENDBRANCH  22  34
ENDBRANCH  21  26
ENDBRANCH  20  21
ENDBRANCH   1  20
TORSDOF 6
