REMARK  Name = ZINC13038546
REMARK  8 active torsions:
REMARK  status: ('A' for Active; 'I' for Inactive)
REMARK    1  A    between atoms: C_1  and  C_2
REMARK    2  A    between atoms: C_9  and  C_11
REMARK    3  A    between atoms: N_13  and  N_14
REMARK    4  A    between atoms: N_14  and  S_15
REMARK    5  A    between atoms: S_15  and  C_18
REMARK    6  A    between atoms: C_21  and  C_24
REMARK    7  A    between atoms: N_26  and  C_27
REMARK    8  A    between atoms: C_27  and  C_28
REMARK                            x       y       z     vdW  Elec       q    Type
REMARK                         _______ _______ _______ _____ _____    ______ ____
ROOT
ATOM      1  S   UNL     1      -2.364   1.343  -1.154  0.00  0.00    +0.074 S 
ATOM      2  O   UNL     1      -3.530   2.071  -0.795  0.00  0.00    -0.152 OA
ATOM      3  O   UNL     1      -1.711   1.518  -2.404  0.00  0.00    -0.152 OA
ENDROOT
BRANCH   1   4
ATOM      4  C   UNL     1      -2.781  -0.365  -1.040  0.00  0.00    +0.107 A 
ATOM      5  C   UNL     1      -2.072  -1.299  -1.775  0.00  0.00    +0.029 A 
ATOM      6  C   UNL     1      -2.391  -2.638  -1.686  0.00  0.00    +0.015 A 
ATOM      7  C   UNL     1      -3.438  -3.050  -0.860  0.00  0.00    +0.037 A 
ATOM      8  C   UNL     1      -4.153  -2.102  -0.126  0.00  0.00    +0.015 A 
ATOM      9  C   UNL     1      -3.821  -0.767  -0.220  0.00  0.00    +0.029 A 
BRANCH   7  10
ATOM     10  C   UNL     1      -3.789  -4.483  -0.764  0.00  0.00    +0.244 C 
ATOM     11  O   UNL     1      -4.702  -4.838  -0.044  0.00  0.00    -0.270 OA
ATOM     12  N   UNL     1      -3.097  -5.395  -1.475  0.00  0.00    -0.303 N 
ATOM     13  H   UNL     1      -2.369  -5.111  -2.050  0.00  0.00    +0.149 HD
BRANCH  12  14
ATOM     14  C   UNL     1      -3.444  -6.815  -1.380  0.00  0.00    +0.217 C 
BRANCH  14  15
ATOM     15  C   UNL     1      -2.512  -7.629  -2.279  0.00  0.00    +0.405 C 
ATOM     16  F   UNL     1      -1.188  -7.445  -1.868  0.00  0.00    -0.169 F 
ATOM     17  F   UNL     1      -2.844  -8.985  -2.188  0.00  0.00    -0.169 F 
ATOM     18  F   UNL     1      -2.652  -7.203  -3.604  0.00  0.00    -0.169 F 
ENDBRANCH  14  15
ENDBRANCH  12  14
ENDBRANCH   7  10
ENDBRANCH   1   4
BRANCH   1  19
ATOM     19  N   UNL     1      -1.234   1.650   0.017  0.00  0.00    -0.108 NA
ATOM     20  H   UNL     1      -1.419   2.303   0.709  0.00  0.00    +0.172 HD
BRANCH  19  23
ATOM     21  C   UNL     1       1.147   1.655   0.000  0.00  0.00    +0.265 C 
ATOM     22  O   UNL     1       1.130   2.872   0.007  0.00  0.00    -0.268 OA
ATOM     23  N   UNL     1      -0.011   0.966   0.007  0.00  0.00    -0.227 N 
ATOM     24  H   UNL     1       0.002  -0.004   0.002  0.00  0.00    +0.171 HD
BRANCH  21  32
ATOM     25  C   UNL     1       8.580   0.215   0.226  0.00  0.00    +0.008 C 
ATOM     26  C   UNL     1       7.107  -0.162   0.398  0.00  0.00    -0.009 C 
ATOM     27  C   UNL     1       6.798  -1.401  -0.447  0.00  0.00    +0.009 C 
ATOM     28  C   UNL     1       5.407  -1.926  -0.061  0.00  0.00    +0.043 C 
ATOM     29  C   UNL     1       4.454  -0.771  -0.045  0.00  0.00    -0.006 A 
ATOM     30  C   UNL     1       4.770   0.558  -0.040  0.00  0.00    -0.036 A 
ATOM     31  C   UNL     1       3.711   1.451  -0.031  0.00  0.00    +0.024 A 
ATOM     32  C   UNL     1       2.426   0.940  -0.016  0.00  0.00    +0.076 A 
ATOM     33  S   UNL     1       2.732  -0.818  -0.029  0.00  0.00    -0.088 S 
ATOM     34  C   UNL     1       6.229   1.007  -0.050  0.00  0.00    +0.039 C 
ENDBRANCH  21  32
ENDBRANCH  19  23
ENDBRANCH   1  19
TORSDOF 7
