REMARK  Name = ZINC13365149
REMARK  9 active torsions:
REMARK  status: ('A' for Active; 'I' for Inactive)
REMARK    1  A    between atoms: C_1  and  C_2
REMARK    2  A    between atoms: C_2  and  C_3
REMARK    3  A    between atoms: C_2  and  C_4
REMARK    4  A    between atoms: C_4  and  C_5
REMARK    5  A    between atoms: C_5  and  N_6
REMARK    6  A    between atoms: C_16  and  S_17
REMARK    7  A    between atoms: S_17  and  C_18
REMARK    8  A    between atoms: C_18  and  C_19
REMARK    9  A    between atoms: C_27  and  C_31
REMARK                            x       y       z     vdW  Elec       q    Type
REMARK                         _______ _______ _______ _____ _____    ______ ____
ROOT
ATOM      1  S   UNL     1       1.904   1.785   3.617  0.00  0.00    -0.080 S 
ENDROOT
BRANCH   1  12
ATOM      2  N   UNL     1       0.667  -0.609   3.684  0.00  0.00    -0.287 N 
ATOM      3  C   UNL     1       0.402  -1.845   4.166  0.00  0.00    +0.262 A 
ATOM      4  O   UNL     1      -0.418  -2.569   3.632  0.00  0.00    -0.267 OA
ATOM      5  C   UNL     1       1.141  -2.281   5.359  0.00  0.00    +0.065 A 
ATOM      6  C   UNL     1       0.941  -3.537   5.932  0.00  0.00    +0.015 A 
ATOM      7  C   UNL     1       1.657  -3.893   7.041  0.00  0.00    +0.001 A 
ATOM      8  C   UNL     1       2.579  -3.018   7.602  0.00  0.00    +0.002 A 
ATOM      9  C   UNL     1       2.795  -1.782   7.061  0.00  0.00    +0.028 A 
ATOM     10  C   UNL     1       2.079  -1.389   5.926  0.00  0.00    +0.079 A 
ATOM     11  N   UNL     1       2.262  -0.179   5.359  0.00  0.00    -0.223 NA
ATOM     12  C   UNL     1       1.595   0.187   4.293  0.00  0.00    +0.173 A 
BRANCH   2  13
ATOM     13  C   UNL     1      -0.042  -0.124   2.497  0.00  0.00    +0.127 C 
BRANCH  13  14
ATOM     14  C   UNL     1       0.742  -0.511   1.242  0.00  0.00    +0.025 C 
BRANCH  14  16
ATOM     15  C   UNL     1      -0.019   1.526   0.010  0.00  0.00    +0.007 C 
ATOM     16  C   UNL     1       0.002  -0.004   0.002  0.00  0.00    -0.016 C 
ATOM     17  C   UNL     1       0.718  -0.497  -1.257  0.00  0.00    +0.007 C 
ENDBRANCH  14  16
ENDBRANCH  13  14
ENDBRANCH   2  13
ENDBRANCH   1  12
BRANCH   1  18
ATOM     18  C   UNL     1       3.173   2.485   4.707  0.00  0.00    +0.151 C 
BRANCH  18  19
ATOM     19  C   UNL     1       3.534   3.869   4.234  0.00  0.00    +0.121 A 
ATOM     20  N   UNL     1       4.478   4.560   4.924  0.00  0.00    -0.310 N 
ATOM     21  H   UNL     1       4.899   4.156   5.699  0.00  0.00    +0.170 HD
ATOM     22  C   UNL     1       4.838   5.807   4.540  0.00  0.00    +0.259 A 
ATOM     23  O   UNL     1       5.683   6.437   5.149  0.00  0.00    -0.267 OA
ATOM     24  C   UNL     1       4.167   6.372   3.357  0.00  0.00    +0.065 A 
ATOM     25  C   UNL     1       4.467   7.647   2.881  0.00  0.00    +0.016 A 
ATOM     26  C   UNL     1       3.821   8.132   1.780  0.00  0.00    +0.016 A 
ATOM     27  C   UNL     1       2.857   7.359   1.121  0.00  0.00    +0.065 A 
ATOM     28  C   UNL     1       2.542   6.084   1.580  0.00  0.00    +0.043 A 
ATOM     29  C   UNL     1       3.197   5.579   2.705  0.00  0.00    +0.079 A 
ATOM     30  N   UNL     1       2.929   4.339   3.186  0.00  0.00    -0.233 NA
BRANCH  27  31
ATOM     31  C   UNL     1       2.168   7.901  -0.069  0.00  0.00    +0.387 C 
ATOM     32  O   UNL     1       2.441   9.021  -0.476  0.00  0.00    -0.241 OA
ATOM     33  O   UNL     1       1.326   7.229  -0.647  0.00  0.00    -0.241 OA
ENDBRANCH  27  31
ENDBRANCH  18  19
ENDBRANCH   1  18
TORSDOF 7
