REMARK  Name = ZINC12494295
REMARK  7 active torsions:
REMARK  status: ('A' for Active; 'I' for Inactive)
REMARK    1  A    between atoms: C_4  and  C_7
REMARK    2  A    between atoms: C_10  and  C_13
REMARK    3  A    between atoms: N_15  and  C_16
REMARK    4  A    between atoms: C_16  and  N_18
REMARK    5  A    between atoms: N_18  and  C_19
REMARK    6  A    between atoms: C_22  and  S_25
REMARK    7  A    between atoms: S_25  and  N_28
REMARK                            x       y       z     vdW  Elec       q    Type
REMARK                         _______ _______ _______ _____ _____    ______ ____
ROOT
ATOM      1  N   UNL     1       7.420  -4.340  -0.085  0.00  0.00    -0.297 N 
ATOM      2  H   UNL     1       7.256  -3.584  -0.671  0.00  0.00    +0.154 HD
ENDROOT
BRANCH   1   3
ATOM      3  C   UNL     1       8.685  -4.936  -0.049  0.00  0.00    +0.033 A 
ATOM      4  C   UNL     1       9.825  -4.146   0.015  0.00  0.00    +0.025 A 
ATOM      5  C   UNL     1      11.072  -4.737   0.055  0.00  0.00    +0.030 A 
ATOM      6  C   UNL     1      11.187  -6.115   0.022  0.00  0.00    +0.109 A 
ATOM      7  C   UNL     1      10.054  -6.905  -0.046  0.00  0.00    +0.030 A 
ATOM      8  C   UNL     1       8.803  -6.319  -0.082  0.00  0.00    +0.025 A 
BRANCH   6   9
ATOM      9  S   UNL     1      12.780  -6.866   0.068  0.00  0.00    +0.075 S 
ATOM     10  O   UNL     1      13.654  -5.928   0.681  0.00  0.00    -0.150 OA
ATOM     11  O   UNL     1      12.595  -8.180   0.575  0.00  0.00    -0.150 OA
BRANCH   9  12
ATOM     12  N   UNL     1      13.288  -7.031  -1.500  0.00  0.00    -0.202 N 
ATOM     13  C   UNL     1      14.056  -6.029  -2.243  0.00  0.00    +0.136 C 
ATOM     14  C   UNL     1      14.279  -6.643  -3.635  0.00  0.00    +0.058 C 
ATOM     15  C   UNL     1      13.597  -7.991  -3.569  0.00  0.00    -0.023 A 
ATOM     16  C   UNL     1      13.053  -8.148  -2.303  0.00  0.00    +0.054 A 
ATOM     17  C   UNL     1      12.361  -9.323  -2.004  0.00  0.00    +0.025 A 
ATOM     18  C   UNL     1      12.233 -10.315  -2.953  0.00  0.00    +0.002 A 
ATOM     19  C   UNL     1      12.785 -10.151  -4.210  0.00  0.00    +0.000 A 
ATOM     20  C   UNL     1      13.467  -8.988  -4.516  0.00  0.00    +0.005 A 
ENDBRANCH   9  12
ENDBRANCH   6   9
ENDBRANCH   1   3
BRANCH   1  21
ATOM     21  C   UNL     1       6.428  -4.816   0.694  0.00  0.00    +0.141 C 
ATOM     22  S   UNL     1       6.684  -6.215   1.646  0.00  0.00    -0.018 S 
BRANCH  21  25
ATOM     23  C   UNL     1       4.243  -4.666   1.501  0.00  0.00    +0.250 C 
ATOM     24  O   UNL     1       4.424  -5.659   2.177  0.00  0.00    -0.270 OA
ATOM     25  N   UNL     1       5.235  -4.190   0.723  0.00  0.00    -0.264 N 
ATOM     26  H   UNL     1       5.090  -3.397   0.183  0.00  0.00    +0.157 HD
BRANCH  23  30
ATOM     27  C   UNL     1       0.481  -2.692   1.593  0.00  0.00    -0.018 A 
ATOM     28  C   UNL     1       1.505  -2.202   0.782  0.00  0.00    +0.009 A 
ATOM     29  C   UNL     1       2.726  -2.837   0.756  0.00  0.00    +0.013 A 
ATOM     30  C   UNL     1       2.936  -3.980   1.533  0.00  0.00    +0.037 A 
ATOM     31  C   UNL     1       1.907  -4.473   2.340  0.00  0.00    +0.013 A 
ATOM     32  C   UNL     1       0.689  -3.832   2.369  0.00  0.00    +0.009 A 
BRANCH  27  36
ATOM     33  C   UNL     1      -3.283  -0.718   1.684  0.00  0.00    +0.000 A 
ATOM     34  C   UNL     1      -2.265  -0.224   0.888  0.00  0.00    +0.001 A 
ATOM     35  C   UNL     1      -1.043  -0.863   0.850  0.00  0.00    +0.008 A 
ATOM     36  C   UNL     1      -0.832  -2.003   1.625  0.00  0.00    -0.018 A 
ATOM     37  C   UNL     1      -1.860  -2.493   2.429  0.00  0.00    +0.008 A 
ATOM     38  C   UNL     1      -3.079  -1.849   2.454  0.00  0.00    +0.001 A 
ENDBRANCH  27  36
ENDBRANCH  23  30
ENDBRANCH  21  25
ENDBRANCH   1  21
TORSDOF 7
