REMARK  Name = ZINC46864565
REMARK  7 active torsions:
REMARK  status: ('A' for Active; 'I' for Inactive)
REMARK    1  A    between atoms: C_1  and  C_2
REMARK    2  A    between atoms: C_5  and  C_7
REMARK    3  A    between atoms: C_9  and  C_12
REMARK    4  A    between atoms: C_12  and  C_13
REMARK    5  A    between atoms: N_15  and  C_16
REMARK    6  A    between atoms: C_19  and  N_22
REMARK    7  A    between atoms: C_23  and  C_25
REMARK                            x       y       z     vdW  Elec       q    Type
REMARK                         _______ _______ _______ _____ _____    ______ ____
ROOT
ATOM      1  C   UNL     1       7.729  -3.441  -0.247  0.00  0.00    +0.223 C 
ATOM      2  O   UNL     1       8.778  -2.839  -0.162  0.00  0.00    -0.275 OA
ATOM      3  N   UNL     1       6.999  -3.367  -1.377  0.00  0.00    -0.285 N 
ATOM      4  H   UNL     1       6.194  -3.901  -1.471  0.00  0.00    +0.155 HD
ENDROOT
BRANCH   3   5
ATOM      5  C   UNL     1       7.402  -2.519  -2.417  0.00  0.00    +0.034 A 
ATOM      6  C   UNL     1       6.450  -1.862  -3.186  0.00  0.00    +0.025 A 
ATOM      7  C   UNL     1       6.848  -1.027  -4.210  0.00  0.00    +0.025 A 
ATOM      8  C   UNL     1       8.199  -0.844  -4.472  0.00  0.00    +0.034 A 
ATOM      9  C   UNL     1       9.151  -1.501  -3.704  0.00  0.00    +0.025 A 
ATOM     10  C   UNL     1       8.753  -2.332  -2.675  0.00  0.00    +0.025 A 
BRANCH   8  11
ATOM     11  N   UNL     1       8.602   0.004  -5.512  0.00  0.00    -0.283 N 
ATOM     12  C   UNL     1       9.698  -0.295  -6.238  0.00  0.00    +0.246 C 
ATOM     13  O   UNL     1      10.383  -1.250  -5.938  0.00  0.00    -0.273 OA
ATOM     14  H   UNL     1       8.093   0.805  -5.710  0.00  0.00    +0.155 HD
BRANCH  12  15
ATOM     15  C   UNL     1      10.073   0.559  -7.422  0.00  0.00    +0.204 C 
ATOM     16  C   UNL     1       8.990   0.442  -8.516  0.00  0.00    +0.043 C 
ATOM     17  C   UNL     1       9.837   0.417  -9.817  0.00  0.00    +0.031 C 
ATOM     18  C   UNL     1      11.096  -0.345  -9.334  0.00  0.00    +0.161 C 
ATOM     19  O   UNL     1      11.308   0.098  -7.982  0.00  0.00    -0.367 OA
ENDBRANCH  12  15
ENDBRANCH   8  11
ENDBRANCH   3   5
BRANCH   1  20
ATOM     20  C   UNL     1       7.241  -4.272   0.912  0.00  0.00    +0.152 C 
BRANCH  20  23
ATOM     21  C   UNL     1      10.385  -4.428   2.819  0.00  0.00    +0.144 A 
ATOM     22  N   UNL     1       9.492  -4.495   1.838  0.00  0.00    -0.240 NA
ATOM     23  C   UNL     1       8.233  -4.187   2.044  0.00  0.00    +0.058 A 
ATOM     24  C   UNL     1       7.824  -3.792   3.278  0.00  0.00    +0.071 A 
ATOM     25  S   UNL     1       9.364  -3.883   4.182  0.00  0.00    -0.072 S 
BRANCH  21  30
ATOM     26  C   UNL     1      14.919  -5.763   1.147  0.00  0.00    +0.086 C 
ATOM     27  C   UNL     1      13.814  -5.311   2.067  0.00  0.00    +0.103 A 
ATOM     28  C   UNL     1      13.951  -5.015   3.374  0.00  0.00    +0.045 A 
ATOM     29  C   UNL     1      12.681  -4.639   3.849  0.00  0.00    +0.052 A 
ATOM     30  C   UNL     1      11.825  -4.727   2.792  0.00  0.00    +0.160 A 
ATOM     31  O   UNL     1      12.530  -5.131   1.717  0.00  0.00    -0.458 OA
ENDBRANCH  21  30
ENDBRANCH  20  23
ENDBRANCH   1  20
TORSDOF 6
