REMARK  Name = ZINC20684330
REMARK  9 active torsions:
REMARK  status: ('A' for Active; 'I' for Inactive)
REMARK    1  A    between atoms: C_1  and  C_2
REMARK    2  A    between atoms: C_2  and  N_3
REMARK    3  A    between atoms: N_3  and  C_4
REMARK    4  A    between atoms: N_3  and  C_23
REMARK    5  A    between atoms: C_4  and  C_5
REMARK    6  A    between atoms: C_11  and  C_16
REMARK    7  A    between atoms: C_23  and  C_24
REMARK    8  A    between atoms: N_26  and  C_27
REMARK    9  A    between atoms: C_32  and  C_33
REMARK                            x       y       z     vdW  Elec       q    Type
REMARK                         _______ _______ _______ _____ _____    ______ ____
ROOT
ATOM      1  C   UNL     1       2.459   4.082  -0.200  0.00  0.00    -0.003 C 
ENDROOT
BRANCH   1   2
ATOM      2  C   UNL     1       1.119   3.464  -0.503  0.00  0.00    +0.094 A 
ATOM      3  N   UNL     1       1.060   2.180  -0.941  0.00  0.00    -0.312 N 
ATOM      4  H   UNL     1       1.986   1.600  -1.071  0.00  0.00    +0.170 HD
ATOM      5  C   UNL     1      -0.116   1.590  -1.222  0.00  0.00    +0.260 A 
ATOM      6  O   UNL     1      -0.152   0.436  -1.615  0.00  0.00    -0.267 OA
ATOM      7  C   UNL     1      -1.325   2.340  -1.060  0.00  0.00    +0.080 A 
ATOM      8  C   UNL     1      -2.704   1.928  -1.289  0.00  0.00    +0.004 A 
ATOM      9  C   UNL     1      -3.698   2.819  -1.057  0.00  0.00    +0.056 A 
ATOM     10  S   UNL     1      -2.827   4.273  -0.505  0.00  0.00    -0.076 S 
ATOM     11  C   UNL     1      -1.166   3.657  -0.598  0.00  0.00    +0.116 A 
ATOM     12  N   UNL     1       0.033   4.172  -0.340  0.00  0.00    -0.229 NA
BRANCH   8  13
ATOM     13  C   UNL     1      -3.014   0.561  -1.774  0.00  0.00    -0.016 A 
ATOM     14  C   UNL     1      -2.347   0.045  -2.883  0.00  0.00    +0.011 A 
ATOM     15  C   UNL     1      -2.634  -1.230  -3.327  0.00  0.00    +0.039 A 
ATOM     16  C   UNL     1      -3.592  -1.992  -2.679  0.00  0.00    +0.123 A 
ATOM     17  C   UNL     1      -4.261  -1.481  -1.578  0.00  0.00    +0.039 A 
ATOM     18  C   UNL     1      -3.977  -0.210  -1.124  0.00  0.00    +0.011 A 
ATOM     19  F   UNL     1      -3.875  -3.237  -3.120  0.00  0.00    -0.205 F 
ENDBRANCH   8  13
ENDBRANCH   1   2
BRANCH   1  20
ATOM     20  N   UNL     1       2.268   5.466   0.254  0.00  0.00    +0.390 N 
ATOM     21  H   UNL     1       1.641   5.982  -0.488  0.00  0.00    -0.081 HD
BRANCH  20  23
ATOM     22  C   UNL     1       2.357   4.705   2.580  0.00  0.00    -0.017 C 
ATOM     23  C   UNL     1       1.565   5.505   1.544  0.00  0.00    -0.081 C 
ENDBRANCH  20  23
BRANCH  20  24
ATOM     24  C   UNL     1       3.551   6.177   0.332  0.00  0.00    +0.019 C 
BRANCH  24  25
ATOM     25  C   UNL     1       3.301   7.661   0.404  0.00  0.00    +0.201 C 
ATOM     26  O   UNL     1       2.172   8.092   0.289  0.00  0.00    -0.278 OA
ATOM     27  N   UNL     1       4.330   8.510   0.595  0.00  0.00    -0.287 N 
ATOM     28  H   UNL     1       5.361   8.128   0.615  0.00  0.00    +0.155 HD
BRANCH  27  29
ATOM     29  C   UNL     1       4.086   9.877   0.769  0.00  0.00    +0.038 A 
ATOM     30  C   UNL     1       2.962  10.461   0.199  0.00  0.00    +0.043 A 
ATOM     31  C   UNL     1       2.722  11.810   0.378  0.00  0.00    +0.043 A 
ATOM     32  C   UNL     1       3.606  12.581   1.113  0.00  0.00    +0.020 A 
ATOM     33  C   UNL     1       4.728  12.002   1.676  0.00  0.00    +0.006 A 
ATOM     34  C   UNL     1       4.971  10.653   1.506  0.00  0.00    -0.029 A 
ATOM     35  C   UNL     1       6.194  10.023   2.121  0.00  0.00    +0.045 C 
ATOM     36 CL   UNL     1       1.314  12.541  -0.327  0.00  0.00    -0.083 Cl
ENDBRANCH  27  29
ENDBRANCH  24  25
ENDBRANCH  20  24
ENDBRANCH   1  20
TORSDOF 7
