REMARK  Name = ZINC39664702
REMARK  12 active torsions:
REMARK  status: ('A' for Active; 'I' for Inactive)
REMARK    1  A    between atoms: C_1  and  C_2
REMARK    2  A    between atoms: C_2  and  C_3
REMARK    3  A    between atoms: C_3  and  C_4
REMARK    4  A    between atoms: C_3  and  C_6
REMARK    5  A    between atoms: C_4  and  C_5
REMARK    6  A    between atoms: C_10  and  C_19
REMARK    7  A    between atoms: N_21  and  C_22
REMARK    8  A    between atoms: C_22  and  C_24
REMARK    9  A    between atoms: C_22  and  C_28
REMARK   10  A    between atoms: C_24  and  N_25
REMARK   11  A    between atoms: N_25  and  C_26
REMARK   12  A    between atoms: N_25  and  C_27
REMARK                            x       y       z     vdW  Elec       q    Type
REMARK                         _______ _______ _______ _____ _____    ______ ____
ROOT
ATOM      1  C   UNL     1       1.005  -2.097  -0.026  0.00  0.00    +0.219 C 
ATOM      2  O   UNL     1       1.110  -2.104  -1.234  0.00  0.00    -0.275 OA
ATOM      3  N   UNL     1       1.650  -3.022   0.712  0.00  0.00    -0.300 N 
ATOM      4  C   UNL     1       1.705  -3.129   2.189  0.00  0.00    +0.121 C 
ATOM      5  C   UNL     1       1.614  -4.645   2.474  0.00  0.00    +0.100 C 
ATOM      6  C   UNL     1       2.116  -5.318   1.185  0.00  0.00    -0.004 C 
ATOM      7  C   UNL     1       2.460  -4.166   0.229  0.00  0.00    +0.115 C 
ATOM      8  C   UNL     1       1.017  -6.187   0.580  0.00  0.00    -0.010 C 
ATOM      9  C   UNL     1       1.558  -6.889  -0.668  0.00  0.00    -0.082 C 
ATOM     10  N   UNL     1       2.717  -7.713  -0.305  0.00  0.00    +0.379 N 
ATOM     11  C   UNL     1       3.804  -6.859   0.189  0.00  0.00    -0.082 C 
ATOM     12  C   UNL     1       3.358  -6.155   1.474  0.00  0.00    -0.010 C 
ATOM     13  H   UNL     1       2.451  -8.367   0.416  0.00  0.00    -0.086 HD
ATOM     14  H   UNL     1       3.034  -8.222  -1.117  0.00  0.00    -0.086 HD
ENDROOT
BRANCH   5  15
ATOM     15  C   UNL     1       0.188  -5.042   2.754  0.00  0.00    +0.219 C 
ATOM     16  O   UNL     1      -0.642  -4.987   1.871  0.00  0.00    -0.275 OA
ATOM     17  N   UNL     1      -0.167  -5.457   3.987  0.00  0.00    -0.310 N 
ATOM     18  H   UNL     1       0.481  -5.441   4.709  0.00  0.00    +0.149 HD
BRANCH  17  19
ATOM     19  C   UNL     1      -1.529  -5.934   4.235  0.00  0.00    +0.087 C 
BRANCH  19  20
ATOM     20  C   UNL     1      -1.639  -7.380   3.824  0.00  0.00    -0.029 A 
ATOM     21  C   UNL     1      -0.604  -8.256   4.095  0.00  0.00    +0.005 A 
ATOM     22  C   UNL     1      -0.705  -9.582   3.718  0.00  0.00    +0.000 A 
ATOM     23  C   UNL     1      -1.839 -10.032   3.069  0.00  0.00    +0.000 A 
ATOM     24  C   UNL     1      -2.874  -9.156   2.798  0.00  0.00    +0.000 A 
ATOM     25  C   UNL     1      -2.775  -7.831   3.180  0.00  0.00    +0.005 A 
ENDBRANCH  19  20
BRANCH  19  26
ATOM     26  C   UNL     1      -1.852  -5.803   5.725  0.00  0.00    -0.052 C 
BRANCH  26  27
ATOM     27  N   UNL     1      -3.299  -5.952   5.928  0.00  0.00    +0.377 N 
ATOM     28  C   UNL     1      -3.576  -6.138   7.359  0.00  0.00    -0.097 C 
ATOM     29  C   UNL     1      -3.988  -4.747   5.448  0.00  0.00    -0.097 C 
ATOM     30  H   UNL     1      -3.629  -6.756   5.415  0.00  0.00    -0.083 HD
ENDBRANCH  26  27
ENDBRANCH  19  26
ENDBRANCH  17  19
ENDBRANCH   5  15
BRANCH   1  31
ATOM     31  C   UNL     1       0.154  -1.053   0.651  0.00  0.00    +0.075 C 
BRANCH  31  33
ATOM     32  C   UNL     1      -0.935   1.178   0.372  0.00  0.00    +0.004 C 
ATOM     33  C   UNL     1      -0.178   0.059  -0.346  0.00  0.00    +0.009 C 
ENDBRANCH  31  33
BRANCH  31  34
ATOM     34  C   UNL     1      -1.143  -1.696   1.147  0.00  0.00    +0.009 C 
ATOM     35  C   UNL     1      -0.941  -2.216   2.572  0.00  0.00    +0.004 C 
ENDBRANCH  31  34
ENDBRANCH   1  31
TORSDOF 8
