REMARK  Name = ZINC38981009
REMARK  8 active torsions:
REMARK  status: ('A' for Active; 'I' for Inactive)
REMARK    1  A    between atoms: C_1  and  C_2
REMARK    2  A    between atoms: C_2  and  C_3
REMARK    3  A    between atoms: C_7  and  N_9
REMARK    4  A    between atoms: N_9  and  C_10
REMARK    5  A    between atoms: N_13  and  S_14
REMARK    6  A    between atoms: S_14  and  C_17
REMARK    7  A    between atoms: C_20  and  C_24
REMARK    8  A    between atoms: C_21  and  C_23
REMARK                            x       y       z     vdW  Elec       q    Type
REMARK                         _______ _______ _______ _____ _____    ______ ____
ROOT
ATOM      1  C   UNL     1       4.766  -1.952  -3.510  0.00  0.00    +0.237 C 
ATOM      2  C   UNL     1       5.540  -3.166  -3.050  0.00  0.00    +0.192 C 
ATOM      3  N   UNL     1       4.933  -4.149  -2.454  0.00  0.00    -0.110 NA
ATOM      4  N   UNL     1       6.865  -3.214  -3.265  0.00  0.00    -0.226 NA
ATOM      5  C   UNL     1       7.502  -2.231  -3.866  0.00  0.00    +0.089 A 
ATOM      6  C   UNL     1       8.902  -2.316  -4.077  0.00  0.00    +0.030 A 
ATOM      7  C   UNL     1       9.562  -1.311  -4.693  0.00  0.00    +0.002 A 
ATOM      8  C   UNL     1       8.919  -0.149  -5.151  0.00  0.00    +0.002 A 
ATOM      9  C   UNL     1       7.589   0.034  -5.001  0.00  0.00    +0.027 A 
ATOM     10  C   UNL     1       6.798  -1.015  -4.340  0.00  0.00    +0.063 A 
ATOM     11  N   UNL     1       5.512  -0.874  -4.178  0.00  0.00    -0.359 N 
ATOM     12  H   UNL     1       5.058  -0.076  -4.491  0.00  0.00    +0.162 HD
ENDROOT
BRANCH   3  13
ATOM     13  S   UNL     1       5.793  -5.473  -1.954  0.00  0.00    +0.100 S 
ATOM     14  O   UNL     1       6.268  -6.116  -3.129  0.00  0.00    -0.146 OA
ATOM     15  O   UNL     1       6.665  -5.026  -0.925  0.00  0.00    -0.146 OA
BRANCH  13  16
ATOM     16  C   UNL     1       4.651  -6.582  -1.200  0.00  0.00    +0.113 A 
ATOM     17  C   UNL     1       4.389  -6.489   0.155  0.00  0.00    +0.029 A 
ATOM     18  C   UNL     1       3.493  -7.360   0.747  0.00  0.00    +0.005 A 
ATOM     19  C   UNL     1       2.858  -8.322  -0.016  0.00  0.00    -0.047 A 
ATOM     20  C   UNL     1       3.118  -8.414  -1.370  0.00  0.00    -0.046 A 
ATOM     21  C   UNL     1       4.012  -7.541  -1.963  0.00  0.00    +0.032 A 
ATOM     22  C   UNL     1       2.426  -9.464  -2.201  0.00  0.00    +0.044 C 
ATOM     23  C   UNL     1       1.881  -9.271   0.630  0.00  0.00    +0.044 C 
ENDBRANCH  13  16
ENDBRANCH   3  13
BRANCH   1  24
ATOM     24  N   UNL     1       4.099  -1.375  -2.340  0.00  0.00    -0.318 N 
ATOM     25  H   UNL     1       4.610  -1.180  -1.538  0.00  0.00    +0.148 HD
BRANCH  24  30
ATOM     26  C   UNL     1       0.675  -0.960  -3.606  0.00  0.00    -0.046 A 
ATOM     27  C   UNL     1       0.015  -0.575  -2.452  0.00  0.00    +0.004 A 
ATOM     28  C   UNL     1       0.709  -0.455  -1.262  0.00  0.00    +0.002 A 
ATOM     29  C   UNL     1       2.064  -0.720  -1.222  0.00  0.00    +0.023 A 
ATOM     30  C   UNL     1       2.729  -1.107  -2.377  0.00  0.00    +0.029 A 
ATOM     31  C   UNL     1       2.028  -1.231  -3.570  0.00  0.00    +0.026 A 
BRANCH  26  33
ATOM     32  C   UNL     1      -0.628  -2.513  -5.034  0.00  0.00    +0.009 C 
ATOM     33  C   UNL     1      -0.085  -1.089  -4.900  0.00  0.00    +0.032 C 
ENDBRANCH  26  33
ENDBRANCH  24  30
ENDBRANCH   1  24
TORSDOF 5
