REMARK  Name = ZINC01897433
REMARK  10 active torsions:
REMARK  status: ('A' for Active; 'I' for Inactive)
REMARK    1  A    between atoms: C_1  and  C_2
REMARK    2  A    between atoms: C_5  and  N_8
REMARK    3  A    between atoms: C_9  and  C_11
REMARK    4  A    between atoms: C_11  and  S_12
REMARK    5  A    between atoms: S_12  and  C_13
REMARK    6  A    between atoms: C_18  and  S_31
REMARK    7  A    between atoms: C_27  and  C_29
REMARK    8  A    between atoms: C_27  and  C_30
REMARK    9  A    between atoms: S_31  and  C_32
REMARK   10  A    between atoms: C_32  and  C_33
REMARK                            x       y       z     vdW  Elec       q    Type
REMARK                         _______ _______ _______ _____ _____    ______ ____
ROOT
ATOM      1  C   UNL     1       0.593  -8.709   2.636  0.00  0.00    +0.198 A 
ATOM      2  N   UNL     1       0.603  -9.373   1.504  0.00  0.00    -0.122 NA
ATOM      3  N   UNL     1       0.726 -10.636   1.727  0.00  0.00    -0.128 NA
ATOM      4  C   UNL     1       0.802 -10.850   3.018  0.00  0.00    +0.174 A 
ATOM      5  N   UNL     1       0.724  -9.625   3.644  0.00  0.00    -0.248 N 
ATOM      6  C   UNL     1       0.781  -9.538   5.010  0.00  0.00    +0.178 A 
ATOM      7  N   UNL     1       0.914 -10.611   5.755  0.00  0.00    -0.216 NA
ATOM      8  C   UNL     1       1.001 -11.832   5.234  0.00  0.00    +0.115 A 
ATOM      9  C   UNL     1       0.948 -12.063   3.851  0.00  0.00    +0.056 A 
ATOM     10  C   UNL     1       1.058 -13.456   3.433  0.00  0.00    -0.019 A 
ATOM     11  C   UNL     1       1.185 -14.384   4.409  0.00  0.00    +0.021 A 
ATOM     12  S   UNL     1       1.183 -13.461   5.919  0.00  0.00    -0.071 S 
ATOM     13  C   UNL     1       1.311 -15.863   4.215  0.00  0.00    +0.203 C 
ATOM     14  O   UNL     1       0.960 -16.161   2.854  0.00  0.00    -0.368 OA
ATOM     15  C   UNL     1       1.611 -15.318   1.899  0.00  0.00    +0.068 C 
ATOM     16  C   UNL     1       1.040 -13.899   1.972  0.00  0.00    +0.071 C 
ATOM     17  C   UNL     1       1.393 -15.881   0.493  0.00  0.00    +0.041 C 
ATOM     18  C   UNL     1       3.111 -15.276   2.199  0.00  0.00    +0.041 C 
ENDROOT
BRANCH   1  19
ATOM     19  S   UNL     1       0.446  -6.963   2.823  0.00  0.00    -0.076 S 
BRANCH  19  20
ATOM     20  C   UNL     1       0.309  -6.349   1.121  0.00  0.00    +0.173 C 
BRANCH  20  22
ATOM     21  N   UNL     1       0.059  -4.170  -0.021  0.00  0.00    -0.285 N 
ATOM     22  C   UNL     1       0.175  -4.848   1.138  0.00  0.00    +0.227 C 
ATOM     23  O   UNL     1       0.173  -4.251   2.193  0.00  0.00    -0.275 OA
ATOM     24  H   UNL     1      -0.017  -4.651  -0.860  0.00  0.00    +0.155 HD
BRANCH  21  29
ATOM     25  C   UNL     1       0.008   1.503   0.007  0.00  0.00    +0.044 C 
ATOM     26  C   UNL     1       0.022  -0.004  -0.001  0.00  0.00    -0.050 A 
ATOM     27  C   UNL     1       0.777  -0.692   0.931  0.00  0.00    +0.005 A 
ATOM     28  C   UNL     1       0.791  -2.073   0.927  0.00  0.00    +0.023 A 
ATOM     29  C   UNL     1       0.046  -2.771  -0.014  0.00  0.00    +0.033 A 
ATOM     30  C   UNL     1      -0.712  -2.077  -0.948  0.00  0.00    +0.023 A 
ATOM     31  C   UNL     1      -0.726  -0.696  -0.936  0.00  0.00    +0.005 A 
ENDBRANCH  21  29
ENDBRANCH  20  22
ENDBRANCH  19  20
ENDBRANCH   1  19
BRANCH   6  32
ATOM     32  S   UNL     1       0.674  -7.958   5.780  0.00  0.00    -0.083 S 
BRANCH  32  33
ATOM     33  C   UNL     1       0.791  -8.325   7.553  0.00  0.00    +0.112 C 
BRANCH  33  34
ATOM     34  C   UNL     1       0.712  -7.041   8.338  0.00  0.00    -0.037 A 
ATOM     35  C   UNL     1       1.866  -6.341   8.637  0.00  0.00    +0.004 A 
ATOM     36  C   UNL     1       1.793  -5.164   9.357  0.00  0.00    +0.000 A 
ATOM     37  C   UNL     1       0.566  -4.686   9.779  0.00  0.00    +0.000 A 
ATOM     38  C   UNL     1      -0.588  -5.386   9.479  0.00  0.00    +0.000 A 
ATOM     39  C   UNL     1      -0.516  -6.561   8.755  0.00  0.00    +0.004 A 
ENDBRANCH  33  34
ENDBRANCH  32  33
ENDBRANCH   6  32
TORSDOF 7
