REMARK  Name = ZINC00229879
REMARK  2 active torsions:
REMARK  status: ('A' for Active; 'I' for Inactive)
REMARK    1  A    between atoms: C_1  and  C_2
REMARK    2  A    between atoms: C_5  and  C_10
REMARK                            x       y       z     vdW  Elec       q    Type
REMARK                         _______ _______ _______ _____ _____    ______ ____
ROOT
ATOM      1  C   UNL     1       0.002  -0.004   0.002  0.00  0.00    +0.054 A 
ATOM      2  C   UNL     1      -0.016   1.350   0.009  0.00  0.00    +0.072 A 
ATOM      3  S   UNL     1       1.734   1.707  -0.005  0.00  0.00    -0.061 S 
ATOM      4  C   UNL     1       2.300   0.065  -0.020  0.00  0.00    +0.156 A 
ATOM      5  N   UNL     1       1.171  -0.618  -0.012  0.00  0.00    -0.230 NA
ATOM      6  N   UNL     1       3.603  -0.408  -0.034  0.00  0.00    -0.338 N 
ATOM      7  H   UNL     1       3.772  -1.363  -0.041  0.00  0.00    +0.144 HD
ATOM      8  H   UNL     1       4.345   0.217  -0.038  0.00  0.00    +0.144 HD
ENDROOT
BRANCH   1  12
ATOM      9  C   UNL     1      -3.706  -1.764  -2.817  0.00  0.00    +0.038 C 
ATOM     10  C   UNL     1      -3.149  -1.669  -1.396  0.00  0.00    +0.116 C 
ATOM     11  C   UNL     1      -1.805  -0.936  -1.422  0.00  0.00    +0.041 C 
ATOM     12  C   UNL     1      -1.282  -0.792   0.011  0.00  0.00    +0.043 C 
ATOM     13  C   UNL     1      -2.329  -0.057   0.853  0.00  0.00    +0.038 C 
ATOM     14  C   UNL     1      -3.653  -0.824   0.791  0.00  0.00    +0.161 C 
ATOM     15  O   UNL     1      -4.067  -0.949  -0.571  0.00  0.00    -0.377 OA
ENDBRANCH   1  12
TORSDOF 1
