REMARK  Name = ZINC51122929
REMARK  4 active torsions:
REMARK  status: ('A' for Active; 'I' for Inactive)
REMARK    1  A    between atoms: C_3  and  N_9
REMARK    2  A    between atoms: C_10  and  C_12
REMARK    3  A    between atoms: C_16  and  N_18
REMARK    4  A    between atoms: N_18  and  N_19
REMARK                            x       y       z     vdW  Elec       q    Type
REMARK                         _______ _______ _______ _____ _____    ______ ____
ROOT
ATOM      1  N   UNL     1       3.584   2.128  -0.021  0.00  0.00    -0.279 N 
ATOM      2  C   UNL     1       3.567   3.472  -0.116  0.00  0.00    +0.268 C 
ATOM      3  O   UNL     1       2.509   4.069  -0.103  0.00  0.00    -0.268 OA
ATOM      4  H   UNL     1       4.429   1.657   0.049  0.00  0.00    +0.155 HD
ENDROOT
BRANCH   1   7
ATOM      5  C   UNL     1       0.065   1.244  -0.621  0.00  0.00    +0.040 A 
ATOM      6  C   UNL     1       1.250   1.953  -0.619  0.00  0.00    +0.027 A 
ATOM      7  C   UNL     1       2.382   1.411  -0.024  0.00  0.00    +0.052 A 
ATOM      8  C   UNL     1       2.318   0.155   0.568  0.00  0.00    +0.065 A 
ATOM      9  C   UNL     1       1.131  -0.551   0.563  0.00  0.00    +0.060 A 
ATOM     10  C   UNL     1       0.004  -0.007  -0.031  0.00  0.00    +0.125 A 
ATOM     11  F   UNL     1      -1.157  -0.698  -0.035  0.00  0.00    -0.205 F 
ATOM     12 CL   UNL     1       3.731  -0.527   1.311  0.00  0.00    -0.082 Cl
ENDBRANCH   1   7
BRANCH   2  13
ATOM     13  C   UNL     1       4.838   4.221  -0.236  0.00  0.00    +0.146 A 
ATOM     14  C   UNL     1       4.814   5.611  -0.328  0.00  0.00    +0.072 A 
ATOM     15  C   UNL     1       6.013   6.304  -0.440  0.00  0.00    +0.026 A 
ATOM     16  C   UNL     1       7.194   5.584  -0.456  0.00  0.00    +0.046 A 
ATOM     17  C   UNL     1       7.147   4.193  -0.360  0.00  0.00    +0.133 A 
ATOM     18  N   UNL     1       5.992   3.562  -0.250  0.00  0.00    -0.225 NA
ATOM     19 CL   UNL     1       3.304   6.467  -0.303  0.00  0.00    -0.081 Cl
BRANCH  17  20
ATOM     20  N   UNL     1       8.330   3.463  -0.377  0.00  0.00    -0.268 N 
ATOM     21  H   UNL     1       9.182   3.921  -0.454  0.00  0.00    +0.167 HD
BRANCH  20  22
ATOM     22  N   UNL     1       8.294   2.101  -0.283  0.00  0.00    -0.255 NA
ATOM     23  H   UNL     1       9.224   1.712  -0.308  0.00  0.00    +0.140 HD
ATOM     24  H   UNL     1       7.802   1.808   0.548  0.00  0.00    +0.140 HD
ENDBRANCH  20  22
ENDBRANCH  17  20
ENDBRANCH   2  13
TORSDOF 4
