REMARK  Name = ZINC02274339
REMARK  6 active torsions:
REMARK  status: ('A' for Active; 'I' for Inactive)
REMARK    1  A    between atoms: C_5  and  C_7
REMARK    2  A    between atoms: N_9  and  C_10
REMARK    3  A    between atoms: C_10  and  N_12
REMARK    4  A    between atoms: N_12  and  C_13
REMARK    5  A    between atoms: C_17  and  N_19
REMARK    6  A    between atoms: C_20  and  C_22
REMARK                            x       y       z     vdW  Elec       q    Type
REMARK                         _______ _______ _______ _____ _____    ______ ____
ROOT
ATOM      1  C   UNL     1      -0.019   0.018   0.119  0.00  0.00    +0.034 A 
ATOM      2  C   UNL     1      -0.045   1.397  -0.055  0.00  0.00    +0.023 A 
ATOM      3  C   UNL     1       1.137   2.112  -0.086  0.00  0.00    +0.004 A 
ATOM      4  C   UNL     1       2.347   1.460   0.057  0.00  0.00    +0.023 A 
ATOM      5  C   UNL     1       2.379   0.083   0.231  0.00  0.00    +0.035 A 
ATOM      6  C   UNL     1       1.194  -0.639   0.262  0.00  0.00    +0.046 A 
ENDROOT
BRANCH   5   7
ATOM      7  N   UNL     1       3.604  -0.577   0.375  0.00  0.00    -0.281 N 
ATOM      8  C   UNL     1       3.757  -1.826  -0.106  0.00  0.00    +0.250 C 
ATOM      9  O   UNL     1       2.867  -2.342  -0.754  0.00  0.00    -0.270 OA
ATOM     10  H   UNL     1       4.343  -0.134   0.821  0.00  0.00    +0.155 HD
BRANCH   8  11
ATOM     11  C   UNL     1       5.007  -2.569   0.154  0.00  0.00    +0.055 A 
ATOM     12  C   UNL     1       6.032  -1.979   0.898  0.00  0.00    +0.016 A 
ATOM     13  C   UNL     1       7.196  -2.678   1.137  0.00  0.00    +0.021 A 
ATOM     14  C   UNL     1       7.352  -3.962   0.642  0.00  0.00    +0.042 A 
ATOM     15  C   UNL     1       6.341  -4.553  -0.096  0.00  0.00    +0.040 A 
ATOM     16  C   UNL     1       5.167  -3.867  -0.338  0.00  0.00    +0.054 A 
ATOM     17 CL   UNL     1       3.897  -4.612  -1.258  0.00  0.00    -0.083 Cl
ATOM     18 CL   UNL     1       8.821  -4.834   0.948  0.00  0.00    -0.083 Cl
ENDBRANCH   8  11
ENDBRANCH   5   7
BRANCH   1  19
ATOM     19  N   UNL     1      -1.216  -0.705   0.150  0.00  0.00    -0.297 N 
ATOM     20  H   UNL     1      -1.907  -0.528  -0.507  0.00  0.00    +0.154 HD
BRANCH  19  21
ATOM     21  C   UNL     1      -1.409  -1.649   1.093  0.00  0.00    +0.141 C 
ATOM     22  S   UNL     1      -0.151  -2.033   2.189  0.00  0.00    -0.018 S 
BRANCH  21  25
ATOM     23  C   UNL     1      -2.784  -3.232   2.117  0.00  0.00    +0.252 C 
ATOM     24  O   UNL     1      -1.891  -3.505   2.895  0.00  0.00    -0.270 OA
ATOM     25  N   UNL     1      -2.592  -2.289   1.174  0.00  0.00    -0.263 N 
ATOM     26  H   UNL     1      -3.305  -2.071   0.553  0.00  0.00    +0.157 HD
BRANCH  23  31
ATOM     27  C   UNL     1      -6.317  -4.281   1.401  0.00  0.00    +0.001 A 
ATOM     28  C   UNL     1      -6.513  -5.251   2.371  0.00  0.00    +0.003 A 
ATOM     29  C   UNL     1      -5.501  -5.566   3.258  0.00  0.00    +0.039 A 
ATOM     30  C   UNL     1      -4.284  -4.913   3.183  0.00  0.00    +0.135 A 
ATOM     31  C   UNL     1      -4.080  -3.934   2.205  0.00  0.00    +0.072 A 
ATOM     32  C   UNL     1      -5.111  -3.619   1.317  0.00  0.00    +0.016 A 
ATOM     33  F   UNL     1      -3.295  -5.221   4.050  0.00  0.00    -0.205 F 
ENDBRANCH  23  31
ENDBRANCH  21  25
ENDBRANCH  19  21
ENDBRANCH   1  19
TORSDOF 6
