REMARK  Name = ZINC21241595
REMARK  7 active torsions:
REMARK  status: ('A' for Active; 'I' for Inactive)
REMARK    1  A    between atoms: C_1  and  C_2
REMARK    2  A    between atoms: C_2  and  C_3
REMARK    3  A    between atoms: C_2  and  O_4
REMARK    4  A    between atoms: O_4  and  C_5
REMARK    5  A    between atoms: C_8  and  C_11
REMARK    6  A    between atoms: C_16  and  C_26
REMARK    7  A    between atoms: C_29  and  C_32
REMARK                            x       y       z     vdW  Elec       q    Type
REMARK                         _______ _______ _______ _____ _____    ______ ____
ROOT
ATOM      1  C   UNL     1      -4.733   6.642  -1.629  0.00  0.00    +0.032 C 
ATOM      2  C   UNL     1      -3.868   5.526  -1.045  0.00  0.00    +0.059 C 
ATOM      3  C   UNL     1      -2.397   5.890  -1.174  0.00  0.00    +0.017 C 
ATOM      4  C   UNL     1      -1.966   6.616  -2.217  0.00  0.00    +0.036 C 
ATOM      5  C   UNL     1      -0.535   7.024  -2.483  0.00  0.00    +0.136 C 
ATOM      6  N   UNL     1       0.366   6.798  -1.373  0.00  0.00    -0.331 N 
ATOM      7  C   UNL     1       0.638   5.510  -0.918  0.00  0.00    +0.049 A 
ATOM      8  C   UNL     1       1.896   4.945  -1.058  0.00  0.00    +0.025 A 
ATOM      9  C   UNL     1       2.106   3.640  -0.648  0.00  0.00    +0.002 A 
ATOM     10  C   UNL     1       1.068   2.898  -0.115  0.00  0.00    +0.002 A 
ATOM     11  C   UNL     1      -0.191   3.458   0.025  0.00  0.00    +0.025 A 
ATOM     12  C   UNL     1      -0.394   4.773  -0.356  0.00  0.00    +0.052 A 
ATOM     13  N   UNL     1      -1.610   5.422  -0.171  0.00  0.00    -0.316 N 
ATOM     14  C   UNL     1      -2.881   7.077  -3.193  0.00  0.00    +0.163 C 
ATOM     15  O   UNL     1      -2.460   7.720  -4.135  0.00  0.00    -0.292 OA
ATOM     16  C   UNL     1      -4.352   6.802  -3.106  0.00  0.00    +0.088 C 
ATOM     17  H   UNL     1       0.849   7.652  -0.875  0.00  0.00    +0.147 HD
ATOM     18  H   UNL     1      -1.923   5.545   0.876  0.00  0.00    +0.152 HD
ENDROOT
BRANCH   1  22
ATOM     19  C   UNL     1      -8.863   5.593  -1.303  0.00  0.00    +0.121 A 
ATOM     20  C   UNL     1      -8.393   6.757  -0.714  0.00  0.00    +0.046 A 
ATOM     21  C   UNL     1      -7.057   7.094  -0.820  0.00  0.00    +0.007 A 
ATOM     22  C   UNL     1      -6.189   6.272  -1.514  0.00  0.00    -0.043 A 
ATOM     23  C   UNL     1      -6.656   5.114  -2.108  0.00  0.00    +0.007 A 
ATOM     24  C   UNL     1      -7.989   4.769  -1.999  0.00  0.00    +0.046 A 
BRANCH  19  25
ATOM     25  O   UNL     1     -10.176   5.259  -1.199  0.00  0.00    -0.489 OA
BRANCH  25  27
ATOM     26  C   UNL     1     -11.455   7.307  -1.303  0.00  0.00    +0.051 C 
ATOM     27  C   UNL     1     -11.008   6.131  -0.432  0.00  0.00    +0.167 C 
ATOM     28  C   UNL     1     -12.237   5.363   0.058  0.00  0.00    +0.051 C 
ENDBRANCH  25  27
ENDBRANCH  19  25
ENDBRANCH   1  22
BRANCH   5  29
ATOM     29  C   UNL     1      -0.033   6.247  -3.673  0.00  0.00    -0.023 A 
ATOM     30  C   UNL     1       0.315   6.910  -4.835  0.00  0.00    +0.006 A 
ATOM     31  C   UNL     1       0.780   6.198  -5.924  0.00  0.00    +0.013 A 
ATOM     32  C   UNL     1       0.888   4.821  -5.855  0.00  0.00    +0.055 A 
ATOM     33  C   UNL     1       0.535   4.157  -4.695  0.00  0.00    +0.013 A 
ATOM     34  C   UNL     1       0.074   4.870  -3.604  0.00  0.00    +0.006 A 
BRANCH  32  35
ATOM     35  C   UNL     1       1.391   4.044  -7.044  0.00  0.00    +0.417 C 
ATOM     36  F   UNL     1       0.310   3.684  -7.857  0.00  0.00    -0.166 F 
ATOM     37  F   UNL     1       2.281   4.837  -7.777  0.00  0.00    -0.166 F 
ATOM     38  F   UNL     1       2.048   2.890  -6.604  0.00  0.00    -0.166 F 
ENDBRANCH  32  35
ENDBRANCH   5  29
TORSDOF 5
