REMARK  Name = ZINC35938774
REMARK  9 active torsions:
REMARK  status: ('A' for Active; 'I' for Inactive)
REMARK    1  A    between atoms: C_1  and  C_2
REMARK    2  A    between atoms: C_2  and  C_3
REMARK    3  A    between atoms: C_3  and  C_5
REMARK    4  A    between atoms: C_3  and  C_11
REMARK    5  A    between atoms: C_19  and  C_21
REMARK    6  A    between atoms: C_21  and  C_23
REMARK    7  A    between atoms: C_21  and  N_24
REMARK    8  A    between atoms: C_32  and  C_34
REMARK    9  A    between atoms: C_39  and  C_40
REMARK                            x       y       z     vdW  Elec       q    Type
REMARK                         _______ _______ _______ _____ _____    ______ ____
ROOT
ATOM      1  C   UNL     1      -1.169   2.262   1.052  0.00  0.00    +0.223 C 
ATOM      2  O   UNL     1      -1.548   1.122   0.882  0.00  0.00    -0.275 OA
ATOM      3  N   UNL     1      -1.452   3.210   0.137  0.00  0.00    -0.298 N 
ATOM      4  C   UNL     1      -1.077   4.612   0.371  0.00  0.00    +0.127 C 
ATOM      5  C   UNL     1      -0.226   5.095  -0.809  0.00  0.00    +0.126 C 
ATOM      6  N   UNL     1      -0.915   4.746  -2.059  0.00  0.00    -0.300 N 
ATOM      7  C   UNL     1      -1.290   3.344  -2.294  0.00  0.00    +0.126 C 
ATOM      8  C   UNL     1      -2.136   2.860  -1.116  0.00  0.00    +0.127 C 
ATOM      9  C   UNL     1      -1.198   5.694  -2.974  0.00  0.00    +0.202 C 
ATOM     10  O   UNL     1      -0.802   6.829  -2.814  0.00  0.00    -0.277 OA
ENDROOT
BRANCH   9  11
ATOM     11  C   UNL     1      -2.006   5.343  -4.197  0.00  0.00    +0.018 C 
ATOM     12  C   UNL     1      -3.485   5.236  -3.817  0.00  0.00    -0.004 C 
BRANCH  11  13
ATOM     13  N   UNL     1      -1.837   6.391  -5.213  0.00  0.00    +0.395 N 
ATOM     14  C   UNL     1      -2.269   7.679  -4.656  0.00  0.00    -0.071 C 
ATOM     15  C   UNL     1      -2.406   8.696  -5.802  0.00  0.00    +0.024 C 
ATOM     16  C   UNL     1      -1.174   8.596  -6.642  0.00  0.00    -0.010 A 
ATOM     17  C   UNL     1      -0.244   7.601  -6.598  0.00  0.00    -0.047 A 
ATOM     18  C   UNL     1       0.832   7.718  -7.474  0.00  0.00    +0.010 A 
ATOM     19  C   UNL     1       0.911   8.777  -8.312  0.00  0.00    +0.045 A 
ATOM     20  S   UNL     1      -0.569   9.688  -7.896  0.00  0.00    -0.101 S 
ATOM     21  C   UNL     1      -0.427   6.445  -5.620  0.00  0.00    -0.005 C 
ATOM     22  H   UNL     1      -2.406   6.169  -6.016  0.00  0.00    -0.079 HD
BRANCH  21  23
ATOM     23  C   UNL     1      -0.045   5.151  -6.290  0.00  0.00    -0.054 A 
ATOM     24  C   UNL     1      -1.000   4.413  -6.965  0.00  0.00    +0.002 A 
ATOM     25  C   UNL     1      -0.649   3.226  -7.580  0.00  0.00    +0.000 A 
ATOM     26  C   UNL     1       0.657   2.776  -7.521  0.00  0.00    +0.000 A 
ATOM     27  C   UNL     1       1.612   3.514  -6.847  0.00  0.00    +0.003 A 
ATOM     28  C   UNL     1       1.262   4.704  -6.236  0.00  0.00    -0.049 A 
ATOM     29  C   UNL     1       2.304   5.511  -5.506  0.00  0.00    +0.044 C 
ENDBRANCH  21  23
ENDBRANCH  11  13
ENDBRANCH   9  11
BRANCH   1  30
ATOM     30  C   UNL     1      -0.382   2.618   2.287  0.00  0.00    +0.105 C 
BRANCH  30  31
ATOM     31  C   UNL     1      -1.323   3.102   3.360  0.00  0.00    -0.036 A 
ATOM     32  C   UNL     1      -2.319   2.269   3.833  0.00  0.00    +0.004 A 
ATOM     33  C   UNL     1      -3.182   2.714   4.818  0.00  0.00    +0.000 A 
ATOM     34  C   UNL     1      -3.048   3.991   5.329  0.00  0.00    +0.000 A 
ATOM     35  C   UNL     1      -2.051   4.824   4.856  0.00  0.00    +0.000 A 
ATOM     36  C   UNL     1      -1.185   4.378   3.875  0.00  0.00    +0.004 A 
ENDBRANCH  30  31
BRANCH  30  38
ATOM     37  C   UNL     1       1.436   0.986   1.765  0.00  0.00    +0.005 C 
ATOM     38  C   UNL     1       0.369   1.382   2.787  0.00  0.00    +0.014 C 
ENDBRANCH  30  38
ENDBRANCH   1  30
TORSDOF 6
