REMARK  Name = ZINC13686509
REMARK  13 active torsions:
REMARK  status: ('A' for Active; 'I' for Inactive)
REMARK    1  A    between atoms: C_1  and  C_2
REMARK    2  A    between atoms: C_2  and  C_3
REMARK    3  A    between atoms: C_3  and  C_5
REMARK    4  A    between atoms: C_3  and  N_21
REMARK    5  A    between atoms: N_7  and  C_8
REMARK    6  A    between atoms: C_13  and  C_14
REMARK    7  A    between atoms: N_16  and  C_17
REMARK    8  A    between atoms: C_17  and  C_18
REMARK    9  A    between atoms: C_17  and  C_19
REMARK   10  A    between atoms: C_17  and  C_20
REMARK   11  A    between atoms: N_21  and  C_22
REMARK   12  A    between atoms: N_21  and  S_29
REMARK   13  A    between atoms: S_29  and  C_32
REMARK                            x       y       z     vdW  Elec       q    Type
REMARK                         _______ _______ _______ _____ _____    ______ ____
ROOT
ATOM      1  C   UNL     1      -5.130   3.323  -0.026  0.00  0.00    +0.239 C 
ATOM      2  O   UNL     1      -5.917   2.718   0.670  0.00  0.00    -0.273 OA
ATOM      3  N   UNL     1      -4.184   2.653  -0.713  0.00  0.00    -0.283 N 
ATOM      4  H   UNL     1      -3.508   3.141  -1.210  0.00  0.00    +0.155 HD
ENDROOT
BRANCH   3   5
ATOM      5  C   UNL     1      -4.175   1.260  -0.709  0.00  0.00    +0.046 A 
ATOM      6  C   UNL     1      -5.370   0.556  -0.643  0.00  0.00    +0.024 A 
ATOM      7  C   UNL     1      -5.360  -0.824  -0.640  0.00  0.00    +0.002 A 
ATOM      8  C   UNL     1      -4.161  -1.517  -0.703  0.00  0.00    +0.001 A 
ATOM      9  C   UNL     1      -2.966  -0.834  -0.774  0.00  0.00    +0.015 A 
ATOM     10  C   UNL     1      -2.960   0.563  -0.772  0.00  0.00    +0.058 A 
BRANCH  10  11
ATOM     11  C   UNL     1      -1.684   1.300  -0.843  0.00  0.00    +0.246 C 
ATOM     12  O   UNL     1      -1.687   2.513  -0.924  0.00  0.00    -0.270 OA
ATOM     13  N   UNL     1      -0.516   0.628  -0.818  0.00  0.00    -0.307 N 
ATOM     14  H   UNL     1      -0.514  -0.340  -0.752  0.00  0.00    +0.150 HD
BRANCH  13  15
ATOM     15  C   UNL     1       0.751   1.359  -0.894  0.00  0.00    +0.026 C 
ATOM     16  C   UNL     1       0.857   2.321   0.292  0.00  0.00    +0.031 C 
ATOM     17  C   UNL     1       1.916   0.368  -0.852  0.00  0.00    +0.031 C 
ATOM     18  C   UNL     1       0.804   2.154  -2.201  0.00  0.00    +0.031 C 
ENDBRANCH  13  15
ENDBRANCH  10  11
ENDBRANCH   3   5
BRANCH   1  19
ATOM     19  C   UNL     1      -5.210   4.825  -0.123  0.00  0.00    +0.183 C 
BRANCH  19  21
ATOM     20  C   UNL     1      -4.096   6.971   0.505  0.00  0.00    +0.006 C 
ATOM     21  C   UNL     1      -4.046   5.449   0.648  0.00  0.00    +0.030 C 
ENDBRANCH  19  21
BRANCH  19  22
ATOM     22  N   UNL     1      -6.478   5.285   0.450  0.00  0.00    -0.196 N 
BRANCH  22  23
ATOM     23  C   UNL     1      -6.773   5.026   1.792  0.00  0.00    +0.052 A 
ATOM     24  C   UNL     1      -6.075   5.684   2.797  0.00  0.00    +0.027 A 
ATOM     25  C   UNL     1      -6.372   5.430   4.122  0.00  0.00    +0.040 A 
ATOM     26  C   UNL     1      -7.356   4.513   4.449  0.00  0.00    +0.124 A 
ATOM     27  C   UNL     1      -8.049   3.852   3.449  0.00  0.00    +0.040 A 
ATOM     28  C   UNL     1      -7.759   4.106   2.123  0.00  0.00    +0.027 A 
ATOM     29  F   UNL     1      -7.641   4.263   5.746  0.00  0.00    -0.205 F 
ENDBRANCH  22  23
BRANCH  22  30
ATOM     30  S   UNL     1      -7.561   6.111  -0.491  0.00  0.00    +0.043 S 
ATOM     31  O   UNL     1      -8.282   6.929   0.419  0.00  0.00    -0.155 OA
ATOM     32  O   UNL     1      -6.776   6.692  -1.523  0.00  0.00    -0.155 OA
ATOM     33  C   UNL     1      -8.650   4.833  -1.179  0.00  0.00    +0.218 C 
ENDBRANCH  22  30
ENDBRANCH  19  22
ENDBRANCH   1  19
TORSDOF 8
