REMARK  Name = ZINC11340830
REMARK  7 active torsions:
REMARK  status: ('A' for Active; 'I' for Inactive)
REMARK    1  A    between atoms: C_1  and  C_2
REMARK    2  A    between atoms: C_5  and  N_18
REMARK    3  A    between atoms: C_7  and  S_8
REMARK    4  A    between atoms: S_8  and  N_11
REMARK    5  A    between atoms: C_19  and  C_21
REMARK    6  A    between atoms: C_21  and  S_22
REMARK    7  A    between atoms: S_22  and  C_23
REMARK                            x       y       z     vdW  Elec       q    Type
REMARK                         _______ _______ _______ _____ _____    ______ ____
ROOT
ATOM      1  C   UNL     1       0.086   1.310   0.262  0.00  0.00    +0.046 C 
ATOM      2  C   UNL     1       0.263  -0.176   0.436  0.00  0.00    -0.024 A 
ATOM      3  C   UNL     1       0.506  -0.976  -0.666  0.00  0.00    +0.007 A 
ATOM      4  C   UNL     1       0.669  -2.338  -0.509  0.00  0.00    +0.023 A 
ATOM      5  C   UNL     1       0.589  -2.905   0.757  0.00  0.00    +0.035 A 
ATOM      6  C   UNL     1       0.345  -2.099   1.861  0.00  0.00    +0.052 A 
ATOM      7  C   UNL     1       0.188  -0.736   1.698  0.00  0.00    +0.110 A 
ENDROOT
BRANCH   5   8
ATOM      8  N   UNL     1       0.753  -4.285   0.919  0.00  0.00    -0.285 N 
ATOM      9  C   UNL     1       1.579  -4.966   0.100  0.00  0.00    +0.227 C 
ATOM     10  O   UNL     1       2.255  -4.371  -0.712  0.00  0.00    -0.275 OA
ATOM     11  H   UNL     1       0.272  -4.752   1.620  0.00  0.00    +0.155 HD
BRANCH   9  12
ATOM     12  C   UNL     1       1.664  -6.468   0.195  0.00  0.00    +0.173 C 
BRANCH  12  13
ATOM     13  S   UNL     1       2.853  -7.085  -1.029  0.00  0.00    -0.077 S 
BRANCH  13  14
ATOM     14  C   UNL     1       2.838  -8.831  -0.795  0.00  0.00    +0.184 A 
ATOM     15  H   UNL     1       4.195  -9.546  -2.203  0.00  0.00    +0.191 HD
ATOM     16  N   UNL     1       2.110  -9.490   0.082  0.00  0.00    -0.209 NA
ATOM     17  C   UNL     1       2.355 -10.796  -0.022  0.00  0.00    +0.245 A 
ATOM     18  N   UNL     1       3.239 -10.993  -0.963  0.00  0.00    -0.160 NA
ATOM     19  N   UNL     1       3.567  -9.732  -1.488  0.00  0.00    -0.254 N 
ENDBRANCH  13  14
ENDBRANCH  12  13
ENDBRANCH   9  12
ENDBRANCH   5   8
BRANCH   7  20
ATOM     20  S   UNL     1      -0.114   0.288   3.099  0.00  0.00    +0.061 S 
ATOM     21  O   UNL     1      -1.229   1.106   2.771  0.00  0.00    -0.153 OA
ATOM     22  O   UNL     1      -0.103  -0.565   4.236  0.00  0.00    -0.153 OA
BRANCH  20  23
ATOM     23  N   UNL     1       1.187   1.301   3.255  0.00  0.00    -0.177 NA
ATOM     24  C   UNL     1       2.373   0.809   3.919  0.00  0.00    +0.109 C 
ATOM     25  C   UNL     1       2.271   1.086   5.439  0.00  0.00    +0.017 C 
ATOM     26  C   UNL     1       2.419   2.525   5.706  0.00  0.00    +0.001 C 
ATOM     27  C   UNL     1       1.327   3.394   5.090  0.00  0.00    +0.001 C 
ATOM     28  C   UNL     1       1.692   3.718   3.662  0.00  0.00    +0.017 C 
ATOM     29  C   UNL     1       1.089   2.668   2.705  0.00  0.00    +0.109 C 
ENDBRANCH  20  23
ENDBRANCH   7  20
TORSDOF 6
