REMARK  Name = ZINC64604199
REMARK  9 active torsions:
REMARK  status: ('A' for Active; 'I' for Inactive)
REMARK    1  A    between atoms: C_1  and  C_2
REMARK    2  A    between atoms: C_7  and  S_12
REMARK    3  A    between atoms: S_12  and  C_13
REMARK    4  A    between atoms: C_13  and  C_14
REMARK    5  A    between atoms: C_16  and  C_19
REMARK    6  A    between atoms: C_19  and  C_20
REMARK    7  A    between atoms: C_20  and  C_21
REMARK    8  A    between atoms: N_23  and  C_24
REMARK    9  A    between atoms: C_28  and  C_30
REMARK                            x       y       z     vdW  Elec       q    Type
REMARK                         _______ _______ _______ _____ _____    ______ ____
ROOT
ATOM      1  C   UNL     1       4.232  -4.786   1.818  0.00  0.00    +0.182 A 
ATOM      2  N   UNL     1       4.916  -4.606   2.953  0.00  0.00    -0.195 NA
ATOM      3  C   UNL     1       6.015  -5.306   2.930  0.00  0.00    +0.228 A 
ATOM      4  O   UNL     1       6.069  -5.964   1.765  0.00  0.00    -0.338 OA
ATOM      5  N   UNL     1       4.890  -5.613   1.056  0.00  0.00    -0.060 NA
ENDROOT
BRANCH   1   6
ATOM      6  C   UNL     1       2.913  -4.142   1.478  0.00  0.00    +0.152 C 
BRANCH   6   7
ATOM      7  S   UNL     1       1.557  -5.199   2.055  0.00  0.00    -0.107 S 
BRANCH   7  14
ATOM      8  C   UNL     1       0.001   1.543   0.041  0.00  0.00    +0.044 C 
ATOM      9  C   UNL     1       0.013   0.036   0.033  0.00  0.00    -0.048 A 
ATOM     10  C   UNL     1       0.006  -0.633  -1.204  0.00  0.00    +0.005 A 
ATOM     11  C   UNL     1       0.015  -1.978  -1.303  0.00  0.00    +0.028 A 
ATOM     12  C   UNL     1       0.033  -2.795  -0.082  0.00  0.00    +0.061 A 
ATOM     13  N   UNL     1       0.044  -4.080   0.123  0.00  0.00    -0.355 N 
ATOM     14  C   UNL     1       0.060  -4.295   1.575  0.00  0.00    +0.236 C 
ATOM     15  N   UNL     1       0.056  -2.961   2.191  0.00  0.00    -0.355 N 
ATOM     16  C   UNL     1       0.041  -2.086   1.228  0.00  0.00    +0.061 A 
ATOM     17  C   UNL     1       0.034  -0.617   1.212  0.00  0.00    +0.030 A 
ATOM     18  H   UNL     1       0.043  -4.770  -0.559  0.00  0.00    +0.162 HD
ATOM     19  H   UNL     1       0.064  -2.768   3.142  0.00  0.00    +0.162 HD
ENDBRANCH   7  14
ENDBRANCH   6   7
ENDBRANCH   1   6
BRANCH   3  20
ATOM     20  C   UNL     1       7.048  -5.366   4.026  0.00  0.00    +0.108 C 
BRANCH  20  21
ATOM     21  C   UNL     1       6.700  -6.499   4.993  0.00  0.00    +0.105 C 
BRANCH  21  22
ATOM     22  C   UNL     1       7.733  -6.559   6.089  0.00  0.00    +0.218 C 
ATOM     23  O   UNL     1       8.656  -5.772   6.096  0.00  0.00    -0.275 OA
ATOM     24  N   UNL     1       7.631  -7.486   7.062  0.00  0.00    -0.285 N 
ATOM     25  H   UNL     1       6.858  -8.071   7.095  0.00  0.00    +0.155 HD
BRANCH  24  26
ATOM     26  C   UNL     1       8.640  -7.605   8.025  0.00  0.00    +0.034 A 
ATOM     27  C   UNL     1       8.978  -8.855   8.527  0.00  0.00    +0.024 A 
ATOM     28  C   UNL     1       9.974  -8.969   9.476  0.00  0.00    +0.017 A 
ATOM     29  C   UNL     1      10.635  -7.840   9.928  0.00  0.00    +0.021 A 
ATOM     30  C   UNL     1      10.300  -6.594   9.429  0.00  0.00    -0.035 A 
ATOM     31  C   UNL     1       9.308  -6.474   8.475  0.00  0.00    +0.027 A 
ATOM     32  C   UNL     1      11.021  -5.366   9.922  0.00  0.00    +0.045 C 
ATOM     33 BR   UNL     1      11.998  -8.000  11.229  0.00  0.00    -0.050 Br
ENDBRANCH  24  26
ENDBRANCH  21  22
ENDBRANCH  20  21
ENDBRANCH   3  20
TORSDOF 7
