REMARK  Name = ZINC38971560
REMARK  6 active torsions:
REMARK  status: ('A' for Active; 'I' for Inactive)
REMARK    1  A    between atoms: C_1  and  C_2
REMARK    2  A    between atoms: C_6  and  S_8
REMARK    3  A    between atoms: S_8  and  N_11
REMARK    4  A    between atoms: C_13  and  N_23
REMARK    5  A    between atoms: N_23  and  C_24
REMARK    6  A    between atoms: C_28  and  C_30
REMARK                            x       y       z     vdW  Elec       q    Type
REMARK                         _______ _______ _______ _____ _____    ______ ____
ROOT
ATOM      1  N   UNL     1       1.668  -2.718   3.020  0.00  0.00    -0.110 NA
ATOM      2  C   UNL     1       1.881  -3.555   3.992  0.00  0.00    +0.192 C 
ATOM      3  C   UNL     1       3.291  -3.948   4.370  0.00  0.00    +0.237 C 
ATOM      4  N   UNL     1       3.465  -4.899   5.480  0.00  0.00    -0.359 N 
ATOM      5  C   UNL     1       2.401  -5.354   6.081  0.00  0.00    +0.063 A 
ATOM      6  C   UNL     1       2.520  -6.306   7.196  0.00  0.00    +0.027 A 
ATOM      7  C   UNL     1       1.395  -6.755   7.794  0.00  0.00    +0.002 A 
ATOM      8  C   UNL     1       0.120  -6.337   7.379  0.00  0.00    +0.002 A 
ATOM      9  C   UNL     1      -0.069  -5.466   6.364  0.00  0.00    +0.030 A 
ATOM     10  C   UNL     1       1.042  -4.930   5.664  0.00  0.00    +0.089 A 
ATOM     11  N   UNL     1       0.852  -4.077   4.678  0.00  0.00    -0.226 NA
ATOM     12  H   UNL     1       4.350  -5.181   5.758  0.00  0.00    +0.162 HD
ENDROOT
BRANCH   1  13
ATOM     13  S   UNL     1       0.119  -2.290   2.620  0.00  0.00    +0.100 S 
ATOM     14  O   UNL     1      -0.400  -1.563   3.726  0.00  0.00    -0.146 OA
ATOM     15  O   UNL     1      -0.509  -3.461   2.116  0.00  0.00    -0.146 OA
BRANCH  13  21
ATOM     16  C   UNL     1       0.495   2.571   0.735  0.00  0.00    +0.044 C 
ATOM     17  C   UNL     1       0.394   1.091   0.467  0.00  0.00    -0.049 A 
ATOM     18  C   UNL     1       0.383   0.624  -0.834  0.00  0.00    +0.003 A 
ATOM     19  C   UNL     1       0.291  -0.733  -1.080  0.00  0.00    +0.002 A 
ATOM     20  C   UNL     1       0.210  -1.623  -0.025  0.00  0.00    +0.029 A 
ATOM     21  C   UNL     1       0.222  -1.156   1.276  0.00  0.00    +0.113 A 
ATOM     22  C   UNL     1       0.319   0.201   1.522  0.00  0.00    +0.032 A 
ENDBRANCH  13  21
ENDBRANCH   1  13
BRANCH   3  23
ATOM     23  N   UNL     1       4.020  -2.725   4.713  0.00  0.00    -0.318 N 
ATOM     24  H   UNL     1       3.599  -2.048   5.266  0.00  0.00    +0.148 HD
BRANCH  23  25
ATOM     25  C   UNL     1       5.322  -2.533   4.242  0.00  0.00    +0.030 A 
ATOM     26  C   UNL     1       5.960  -1.314   4.438  0.00  0.00    +0.024 A 
ATOM     27  C   UNL     1       7.247  -1.127   3.973  0.00  0.00    +0.022 A 
ATOM     28  C   UNL     1       7.901  -2.152   3.312  0.00  0.00    +0.053 A 
ATOM     29  C   UNL     1       7.268  -3.367   3.116  0.00  0.00    +0.075 A 
ATOM     30  C   UNL     1       5.983  -3.561   3.584  0.00  0.00    +0.036 A 
ATOM     31 CL   UNL     1       9.518  -1.914   2.728  0.00  0.00    -0.083 Cl
BRANCH  29  32
ATOM     32  C   UNL     1       7.983  -4.481   2.396  0.00  0.00    +0.419 C 
ATOM     33  F   UNL     1       7.147  -5.600   2.320  0.00  0.00    -0.166 F 
ATOM     34  F   UNL     1       8.319  -4.061   1.104  0.00  0.00    -0.166 F 
ATOM     35  F   UNL     1       9.148  -4.816   3.095  0.00  0.00    -0.166 F 
ENDBRANCH  29  32
ENDBRANCH  23  25
ENDBRANCH   3  23
TORSDOF 5
