REMARK  Name = ZINC10707345
REMARK  9 active torsions:
REMARK  status: ('A' for Active; 'I' for Inactive)
REMARK    1  A    between atoms: C_1  and  C_2
REMARK    2  A    between atoms: C_2  and  C_3
REMARK    3  A    between atoms: C_2  and  N_4
REMARK    4  A    between atoms: N_4  and  S_5
REMARK    5  A    between atoms: S_5  and  C_8
REMARK    6  A    between atoms: C_8  and  C_9
REMARK    7  A    between atoms: C_14  and  C_15
REMARK    8  A    between atoms: C_15  and  N_16
REMARK    9  A    between atoms: C_17  and  C_19
REMARK                            x       y       z     vdW  Elec       q    Type
REMARK                         _______ _______ _______ _____ _____    ______ ____
ROOT
ATOM      1  N   UNL     1       1.356   2.010  -0.000  0.00  0.00    -0.307 N 
ATOM      2  C   UNL     1       1.584   3.338   0.005  0.00  0.00    +0.244 C 
ATOM      3  O   UNL     1       0.650   4.115   0.018  0.00  0.00    -0.270 OA
ATOM      4  H   UNL     1       2.102   1.390  -0.011  0.00  0.00    +0.149 HD
ENDROOT
BRANCH   2   5
ATOM      5  C   UNL     1       2.970   3.849  -0.006  0.00  0.00    +0.037 A 
ATOM      6  C   UNL     1       4.047   2.952  -0.015  0.00  0.00    +0.015 A 
ATOM      7  C   UNL     1       5.331   3.409  -0.031  0.00  0.00    +0.027 A 
ATOM      8  C   UNL     1       5.590   4.778  -0.027  0.00  0.00    +0.047 A 
ATOM      9  C   UNL     1       4.516   5.691  -0.011  0.00  0.00    +0.004 A 
ATOM     10  C   UNL     1       3.204   5.220  -0.001  0.00  0.00    +0.023 A 
ATOM     11  C   UNL     1       5.122   7.020  -0.009  0.00  0.00    -0.019 A 
ATOM     12  C   UNL     1       6.457   6.851  -0.026  0.00  0.00    +0.020 A 
ATOM     13  N   UNL     1       6.750   5.516  -0.036  0.00  0.00    -0.358 N 
ATOM     14  H   UNL     1       7.646   5.144  -0.049  0.00  0.00    +0.166 HD
ATOM     15  C   UNL     1       7.446   7.994  -0.031  0.00  0.00    +0.053 C 
ATOM     16  C   UNL     1       6.707   9.275  -0.436  0.00  0.00    +0.006 C 
ATOM     17  C   UNL     1       5.444   9.428   0.417  0.00  0.00    +0.005 C 
ATOM     18  C   UNL     1       4.426   8.356   0.011  0.00  0.00    +0.037 C 
ENDBRANCH   2   5
BRANCH   1  19
ATOM     19  C   UNL     1      -0.018   1.503   0.010  0.00  0.00    +0.140 C 
BRANCH  19  25
ATOM     20  C   UNL     1       0.231  -0.699   1.175  0.00  0.00    -0.020 A 
ATOM     21  C   UNL     1       0.249  -2.081   1.167  0.00  0.00    +0.005 A 
ATOM     22  C   UNL     1       0.039  -2.768  -0.013  0.00  0.00    +0.000 A 
ATOM     23  C   UNL     1      -0.190  -2.074  -1.186  0.00  0.00    +0.000 A 
ATOM     24  C   UNL     1      -0.213  -0.692  -1.178  0.00  0.00    +0.005 A 
ATOM     25  C   UNL     1       0.002  -0.004   0.002  0.00  0.00    -0.026 A 
BRANCH  20  26
ATOM     26  C   UNL     1       0.459   0.051   2.462  0.00  0.00    +0.220 C 
BRANCH  26  27
ATOM     27  S   UNL     1      -1.130   0.327   3.292  0.00  0.00    +0.034 S 
ATOM     28  O   UNL     1      -1.925   1.233   2.538  0.00  0.00    -0.158 OA
ATOM     29  O   UNL     1      -1.670  -0.909   3.740  0.00  0.00    -0.158 OA
BRANCH  27  30
ATOM     30  N   UNL     1      -0.750   1.150   4.677  0.00  0.00    -0.192 NA
ATOM     31  H   UNL     1      -0.903   0.740   5.543  0.00  0.00    +0.148 HD
BRANCH  30  33
ATOM     32  C   UNL     1      -0.697   3.340   5.765  0.00  0.00    +0.025 C 
ATOM     33  C   UNL     1      -0.182   2.498   4.596  0.00  0.00    +0.070 C 
ATOM     34  C   UNL     1       1.345   2.413   4.663  0.00  0.00    +0.025 C 
ENDBRANCH  30  33
ENDBRANCH  27  30
ENDBRANCH  26  27
ENDBRANCH  20  26
ENDBRANCH  19  25
ENDBRANCH   1  19
TORSDOF 7
