REMARK  Name = ZINC39448706
REMARK  6 active torsions:
REMARK  status: ('A' for Active; 'I' for Inactive)
REMARK    1  A    between atoms: C_4  and  C_7
REMARK    2  A    between atoms: C_7  and  C_10
REMARK    3  A    between atoms: N_8  and  O_9
REMARK    4  A    between atoms: N_11  and  O_12
REMARK    5  A    between atoms: N_13  and  C_14
REMARK    6  A    between atoms: C_17  and  C_20
REMARK                            x       y       z     vdW  Elec       q    Type
REMARK                         _______ _______ _______ _____ _____    ______ ____
ROOT
ATOM      1  C   UNL     1       3.708  -2.169   0.068  0.00  0.00    +0.189 C 
ATOM      2  N   UNL     1       2.586  -2.825   0.075  0.00  0.00    -0.070 NA
ATOM      3  N   UNL     1       4.910  -2.851   0.162  0.00  0.00    -0.299 N 
ATOM      4  H   UNL     1       5.747  -2.361   0.157  0.00  0.00    +0.150 HD
ENDROOT
BRANCH   3   5
ATOM      5  C   UNL     1       4.917  -4.312   0.270  0.00  0.00    +0.239 C 
ATOM      6  C   UNL     1       5.928  -4.768   1.306  0.00  0.00    +0.050 C 
ATOM      7  C   UNL     1       6.800  -5.514   0.601  0.00  0.00    +0.093 C 
ATOM      8  N   UNL     1       6.437  -5.556  -0.708  0.00  0.00    -0.152 NA
ATOM      9  N   UNL     1       5.410  -4.922  -0.976  0.00  0.00    -0.160 NA
BRANCH   7  10
ATOM     10  C   UNL     1       7.989  -6.194   1.172  0.00  0.00    +0.002 A 
ATOM     11  C   UNL     1       8.267  -6.089   2.533  0.00  0.00    +0.011 A 
ATOM     12  C   UNL     1       9.374  -6.723   3.059  0.00  0.00    +0.016 A 
ATOM     13  C   UNL     1      10.207  -7.462   2.237  0.00  0.00    +0.018 A 
ATOM     14  C   UNL     1       9.935  -7.569   0.884  0.00  0.00    +0.016 A 
ATOM     15  C   UNL     1       8.828  -6.943   0.349  0.00  0.00    +0.011 A 
ATOM     16 BR   UNL     1      11.723  -8.328   2.965  0.00  0.00    -0.050 Br
ENDBRANCH   7  10
ENDBRANCH   3   5
BRANCH   1  17
ATOM     17  C   UNL     1       3.701  -0.693  -0.041  0.00  0.00    +0.152 C 
ATOM     18  N   UNL     1       4.824  -0.043  -0.156  0.00  0.00    -0.083 NA
BRANCH  17  22
ATOM     19  C   UNL     1       0.017   1.426   0.023  0.00  0.00    +0.000 A 
ATOM     20  C   UNL     1       0.636   1.085   1.212  0.00  0.00    +0.001 A 
ATOM     21  C   UNL     1       1.832   0.397   1.198  0.00  0.00    +0.010 A 
ATOM     22  C   UNL     1       2.416   0.046  -0.019  0.00  0.00    +0.007 A 
ATOM     23  C   UNL     1       1.788   0.393  -1.214  0.00  0.00    +0.010 A 
ATOM     24  C   UNL     1       0.592   1.081  -1.187  0.00  0.00    +0.001 A 
ENDBRANCH  17  22
BRANCH  18  25
ATOM     25  O   UNL     1       4.826   1.373  -0.152  0.00  0.00    -0.409 OA
ATOM     26  H   UNL     1       5.705   1.765  -0.242  0.00  0.00    +0.328 HD
ENDBRANCH  18  25
ENDBRANCH   1  17
BRANCH   2  27
ATOM     27  O   UNL     1       1.355  -2.125   0.088  0.00  0.00    -0.408 OA
ATOM     28  H   UNL     1       0.579  -2.695   0.170  0.00  0.00    +0.328 HD
ENDBRANCH   2  27
TORSDOF 6
