REMARK  Name = ZINC39696552
REMARK  13 active torsions:
REMARK  status: ('A' for Active; 'I' for Inactive)
REMARK    1  A    between atoms: C_1  and  C_2
REMARK    2  A    between atoms: C_2  and  C_3
REMARK    3  A    between atoms: C_2  and  C_4
REMARK    4  A    between atoms: C_2  and  S_5
REMARK    5  A    between atoms: S_5  and  C_6
REMARK    6  A    between atoms: C_6  and  C_7
REMARK    7  A    between atoms: C_7  and  N_8
REMARK    8  A    between atoms: C_9  and  C_11
REMARK    9  A    between atoms: C_22  and  C_24
REMARK   10  A    between atoms: C_24  and  C_25
REMARK   11  A    between atoms: C_25  and  C_26
REMARK   12  A    between atoms: C_29  and  O_32
REMARK   13  A    between atoms: O_32  and  C_33
REMARK                            x       y       z     vdW  Elec       q    Type
REMARK                         _______ _______ _______ _____ _____    ______ ____
ROOT
ATOM      1  C   UNL     1       6.994   0.612  -3.300  0.00  0.00    +0.100 C 
ATOM      2  C   UNL     1       6.941   2.149  -3.449  0.00  0.00    +0.121 C 
ATOM      3  N   UNL     1       8.164   2.493  -4.213  0.00  0.00    -0.300 N 
ATOM      4  C   UNL     1       8.286   1.411  -5.220  0.00  0.00    +0.115 C 
ATOM      5  C   UNL     1       7.877   0.132  -4.464  0.00  0.00    -0.004 C 
ATOM      6  C   UNL     1       7.083  -0.792  -5.383  0.00  0.00    -0.010 C 
ATOM      7  C   UNL     1       7.998  -1.303  -6.500  0.00  0.00    -0.082 C 
ATOM      8  N   UNL     1       9.135  -2.022  -5.913  0.00  0.00    +0.379 N 
ATOM      9  C   UNL     1       9.946  -1.103  -5.105  0.00  0.00    -0.082 C 
ATOM     10  C   UNL     1       9.113  -0.584  -3.929  0.00  0.00    -0.010 C 
ATOM     11  C   UNL     1       8.981   3.550  -4.032  0.00  0.00    +0.216 C 
ATOM     12  O   UNL     1       9.951   3.695  -4.745  0.00  0.00    -0.276 OA
ATOM     13  H   UNL     1       8.792  -2.770  -5.328  0.00  0.00    -0.086 HD
ATOM     14  H   UNL     1       9.703  -2.410  -6.651  0.00  0.00    -0.086 HD
ENDROOT
BRANCH   1  16
ATOM     15  N   UNL     1       5.311  -1.125  -2.780  0.00  0.00    -0.314 N 
ATOM     16  C   UNL     1       5.610   0.026  -3.414  0.00  0.00    +0.218 C 
ATOM     17  O   UNL     1       4.766   0.590  -4.077  0.00  0.00    -0.275 OA
ATOM     18  H   UNL     1       5.987  -1.576  -2.249  0.00  0.00    +0.149 HD
BRANCH  15  19
ATOM     19  C   UNL     1       3.966  -1.695  -2.891  0.00  0.00    +0.115 C 
BRANCH  19  20
ATOM     20  C   UNL     1       3.893  -2.992  -2.082  0.00  0.00    +0.088 C 
BRANCH  20  21
ATOM     21  S   UNL     1       2.228  -3.697  -2.220  0.00  0.00    -0.153 S 
BRANCH  21  23
ATOM     22  C   UNL     1       2.662  -4.846   0.224  0.00  0.00    +0.022 C 
ATOM     23  C   UNL     1       2.307  -5.208  -1.220  0.00  0.00    +0.008 C 
ATOM     24  C   UNL     1       3.377  -6.141  -1.789  0.00  0.00    +0.022 C 
ATOM     25  C   UNL     1       0.948  -5.911  -1.249  0.00  0.00    +0.022 C 
ENDBRANCH  21  23
ENDBRANCH  20  21
ENDBRANCH  19  20
ENDBRANCH  15  19
ENDBRANCH   1  16
BRANCH  11  26
ATOM     26  C   UNL     1       8.688   4.551  -2.944  0.00  0.00    +0.100 C 
BRANCH  26  27
ATOM     27  C   UNL     1       9.760   5.642  -2.954  0.00  0.00    +0.044 C 
BRANCH  27  28
ATOM     28  C   UNL     1       9.468   6.643  -1.866  0.00  0.00    -0.047 A 
ATOM     29  C   UNL     1       8.669   7.740  -2.134  0.00  0.00    +0.007 A 
ATOM     30  C   UNL     1       8.400   8.659  -1.139  0.00  0.00    +0.046 A 
ATOM     31  C   UNL     1       8.931   8.481   0.131  0.00  0.00    +0.120 A 
ATOM     32  C   UNL     1       9.732   7.380   0.397  0.00  0.00    +0.046 A 
ATOM     33  C   UNL     1       9.994   6.461  -0.601  0.00  0.00    +0.007 A 
BRANCH  31  34
ATOM     34  O   UNL     1       8.669   9.384   1.111  0.00  0.00    -0.495 OA
ATOM     35  C   UNL     1       9.249   9.137   2.394  0.00  0.00    +0.277 C 
ENDBRANCH  31  34
ENDBRANCH  27  28
ENDBRANCH  26  27
ENDBRANCH  11  26
TORSDOF 9
