REMARK  Name = ZINC20611256
REMARK  4 active torsions:
REMARK  status: ('A' for Active; 'I' for Inactive)
REMARK    1  A    between atoms: C_1  and  O_2
REMARK    2  A    between atoms: O_2  and  C_3
REMARK    3  A    between atoms: C_13  and  C_18
REMARK    4  A    between atoms: N_22  and  C_25
REMARK                            x       y       z     vdW  Elec       q    Type
REMARK                         _______ _______ _______ _____ _____    ______ ____
ROOT
ATOM      1  C   UNL     1      -1.201  -0.638   0.010  0.00  0.00    +0.121 A 
ATOM      2  C   UNL     1      -2.377   0.108   0.019  0.00  0.00    +0.047 A 
ATOM      3  C   UNL     1      -3.603  -0.519   0.028  0.00  0.00    +0.030 A 
ATOM      4  C   UNL     1      -3.676  -1.907   0.027  0.00  0.00    +0.047 A 
ATOM      5  C   UNL     1      -2.489  -2.665   0.017  0.00  0.00    +0.006 A 
ATOM      6  C   UNL     1      -1.251  -2.017   0.003  0.00  0.00    +0.056 A 
ATOM      7  C   UNL     1      -2.909  -4.060   0.019  0.00  0.00    -0.022 A 
ATOM      8  C   UNL     1      -4.258  -4.078   0.028  0.00  0.00    +0.011 A 
ATOM      9  N   UNL     1      -4.731  -2.799   0.033  0.00  0.00    -0.359 N 
ATOM     10  H   UNL     1      -5.669  -2.551   0.042  0.00  0.00    +0.166 HD
ATOM     11  C   UNL     1      -5.060  -5.358   0.027  0.00  0.00    +0.018 C 
ATOM     12  N   UNL     1      -4.185  -6.458  -0.407  0.00  0.00    +0.388 N 
ATOM     13  C   UNL     1      -2.962  -6.486   0.406  0.00  0.00    -0.076 C 
ATOM     14  C   UNL     1      -2.060  -5.306   0.015  0.00  0.00    +0.018 C 
ATOM     15  H   UNL     1      -4.674  -7.335  -0.304  0.00  0.00    -0.084 HD
ATOM     16  H   UNL     1      -3.939  -6.327  -1.377  0.00  0.00    -0.084 HD
ENDROOT
BRANCH  11  17
ATOM     17  C   UNL     1      -6.223  -5.226  -0.923  0.00  0.00    +0.073 A 
ATOM     18  C   UNL     1      -7.503  -5.245  -0.456  0.00  0.00    +0.260 A 
ATOM     19  N   UNL     1      -8.546  -5.123  -1.339  0.00  0.00    -0.275 N 
ATOM     20  C   UNL     1      -8.311  -4.988  -2.657  0.00  0.00    +0.332 A 
ATOM     21  N   UNL     1      -7.055  -4.968  -3.138  0.00  0.00    -0.258 N 
ATOM     22  C   UNL     1      -6.002  -5.077  -2.304  0.00  0.00    +0.262 A 
ATOM     23  O   UNL     1      -4.865  -5.053  -2.744  0.00  0.00    -0.267 OA
ATOM     24  O   UNL     1      -9.248  -4.882  -3.425  0.00  0.00    -0.246 OA
ATOM     25  O   UNL     1      -7.743  -5.381   0.865  0.00  0.00    -0.267 OA
ATOM     26  H   UNL     1      -9.459  -5.136  -1.011  0.00  0.00    +0.173 HD
BRANCH  21  27
ATOM     27  C   UNL     1      -6.830  -4.820  -4.578  0.00  0.00    +0.095 C 
ATOM     28  C   UNL     1      -7.433  -3.497  -5.055  0.00  0.00    +0.025 C 
ATOM     29  C   UNL     1      -7.198  -3.342  -6.559  0.00  0.00    +0.002 C 
ATOM     30  C   UNL     1      -7.863  -4.503  -7.301  0.00  0.00    +0.000 C 
ATOM     31  C   UNL     1      -7.260  -5.826  -6.824  0.00  0.00    +0.002 C 
ATOM     32  C   UNL     1      -7.495  -5.981  -5.320  0.00  0.00    +0.025 C 
ENDBRANCH  21  27
ENDBRANCH  11  17
BRANCH   1  34
ATOM     33  C   UNL     1      -0.017   1.425   0.010  0.00  0.00    +0.277 C 
ATOM     34  O   UNL     1       0.002  -0.004   0.002  0.00  0.00    -0.495 OA
ENDBRANCH   1  34
TORSDOF 3
