REMARK  Name = ZINC24018385
REMARK  10 active torsions:
REMARK  status: ('A' for Active; 'I' for Inactive)
REMARK    1  A    between atoms: C_1  and  C_2
REMARK    2  A    between atoms: C_5  and  N_32
REMARK    3  A    between atoms: C_7  and  N_8
REMARK    4  A    between atoms: C_9  and  C_11
REMARK    5  A    between atoms: C_11  and  C_13
REMARK    6  A    between atoms: C_11  and  S_14
REMARK    7  A    between atoms: S_14  and  C_15
REMARK    8  A    between atoms: C_19  and  C_23
REMARK    9  A    between atoms: C_20  and  C_22
REMARK   10  A    between atoms: N_26  and  C_27
REMARK                            x       y       z     vdW  Elec       q    Type
REMARK                         _______ _______ _______ _____ _____    ______ ____
ROOT
ATOM      1  S   UNL     1      -2.645   0.847  -0.547  0.00  0.00    -0.075 S 
ENDROOT
BRANCH   1   2
ATOM      2  C   UNL     1      -3.999   1.974  -0.564  0.00  0.00    +0.174 A 
ATOM      3  N   UNL     1      -3.809   3.224  -0.194  0.00  0.00    -0.216 NA
ATOM      4  C   UNL     1      -4.810   4.096  -0.201  0.00  0.00    +0.117 A 
ATOM      5  C   UNL     1      -6.113   3.735  -0.590  0.00  0.00    +0.075 A 
ATOM      6  C   UNL     1      -7.089   4.810  -0.535  0.00  0.00    -0.026 A 
ATOM      7  C   UNL     1      -6.700   6.028  -0.133  0.00  0.00    -0.008 A 
ATOM      8  S   UNL     1      -4.963   5.816   0.208  0.00  0.00    -0.073 S 
ATOM      9  C   UNL     1      -7.531   7.278   0.000  0.00  0.00    +0.052 C 
ATOM     10  C   UNL     1      -8.523   4.559  -0.926  0.00  0.00    +0.045 C 
ATOM     11  C   UNL     1      -6.290   2.371  -0.982  0.00  0.00    +0.263 A 
ATOM     12  O   UNL     1      -7.385   1.966  -1.335  0.00  0.00    -0.267 OA
ATOM     13  N   UNL     1      -5.232   1.539  -0.956  0.00  0.00    -0.284 N 
BRANCH  13  14
ATOM     14  C   UNL     1      -5.408   0.141  -1.357  0.00  0.00    +0.093 C 
ATOM     15  C   UNL     1      -5.954   0.068  -2.797  0.00  0.00    +0.025 C 
ATOM     16  C   UNL     1      -6.934  -1.131  -2.771  0.00  0.00    +0.002 C 
ATOM     17  C   UNL     1      -7.599  -1.001  -1.378  0.00  0.00    +0.002 C 
ATOM     18  C   UNL     1      -6.453  -0.539  -0.455  0.00  0.00    +0.025 C 
ENDBRANCH  13  14
ENDBRANCH   1   2
BRANCH   1  19
ATOM     19  C   UNL     1      -1.329   1.945   0.034  0.00  0.00    +0.137 C 
ATOM     20  C   UNL     1      -1.637   2.397   1.463  0.00  0.00    +0.029 C 
BRANCH  19  22
ATOM     21  N   UNL     1       1.143   1.898   0.001  0.00  0.00    -0.284 N 
ATOM     22  C   UNL     1      -0.015   1.209   0.012  0.00  0.00    +0.230 C 
ATOM     23  O   UNL     1       0.002  -0.004  -0.001  0.00  0.00    -0.274 OA
ATOM     24  H   UNL     1       1.130   2.995  -0.078  0.00  0.00    +0.155 HD
BRANCH  21  31
ATOM     25  C   UNL     1       3.465   3.158  -1.057  0.00  0.00    +0.045 C 
ATOM     26  C   UNL     1       3.521   1.797  -0.412  0.00  0.00    -0.029 A 
ATOM     27  C   UNL     1       4.723   1.123  -0.321  0.00  0.00    +0.007 A 
ATOM     28  C   UNL     1       4.775  -0.125   0.271  0.00  0.00    +0.033 A 
ATOM     29  C   UNL     1       3.624  -0.704   0.774  0.00  0.00    +0.128 A 
ATOM     30  C   UNL     1       2.420  -0.033   0.691  0.00  0.00    +0.056 A 
ATOM     31  C   UNL     1       2.363   1.219   0.092  0.00  0.00    +0.038 A 
BRANCH  29  32
ATOM     32  N   UNL     1       3.684  -2.040   1.407  0.00  0.00    +0.056 N 
ATOM     33  O   UNL     1       4.747  -2.630   1.485  0.00  0.00    -0.126 OA
ATOM     34  O   UNL     1       2.671  -2.550   1.850  0.00  0.00    -0.126 OA
ENDBRANCH  29  32
ENDBRANCH  21  31
ENDBRANCH  19  22
ENDBRANCH   1  19
TORSDOF 6
