REMARK  Name = ZINC09080299
REMARK  13 active torsions:
REMARK  status: ('A' for Active; 'I' for Inactive)
REMARK    1  A    between atoms: C_1  and  C_2
REMARK    2  A    between atoms: C_5  and  S_8
REMARK    3  A    between atoms: S_8  and  C_11
REMARK    4  A    between atoms: C_11  and  C_13
REMARK    5  A    between atoms: C_11  and  C_28
REMARK    6  A    between atoms: C_13  and  N_14
REMARK    7  A    between atoms: C_15  and  C_17
REMARK    8  A    between atoms: N_19  and  C_20
REMARK    9  A    between atoms: C_20  and  C_21
REMARK   10  A    between atoms: C_21  and  C_22
REMARK   11  A    between atoms: C_31  and  N_34
REMARK   12  A    between atoms: N_34  and  C_35
REMARK   13  A    between atoms: N_34  and  C_36
REMARK                            x       y       z     vdW  Elec       q    Type
REMARK                         _______ _______ _______ _____ _____    ______ ____
ROOT
ATOM      1  C   UNL     1       2.050   7.849  -9.087  0.00  0.00    +0.183 C 
ENDROOT
BRANCH   1   2
ATOM      2  C   UNL     1       1.689   8.613 -10.335  0.00  0.00    -0.021 A 
ATOM      3  C   UNL     1       0.967   9.788 -10.239  0.00  0.00    +0.007 A 
ATOM      4  C   UNL     1       0.640  10.494 -11.380  0.00  0.00    +0.023 A 
ATOM      5  C   UNL     1       1.027  10.016 -12.626  0.00  0.00    +0.029 A 
ATOM      6  C   UNL     1       1.748   8.832 -12.719  0.00  0.00    +0.023 A 
ATOM      7  C   UNL     1       2.076   8.134 -11.573  0.00  0.00    +0.007 A 
BRANCH   5   8
ATOM      8  N   UNL     1       0.693  10.724 -13.782  0.00  0.00    -0.336 N 
ATOM      9  C   UNL     1       1.206  10.287 -15.083  0.00  0.00    +0.129 C 
ATOM     10  C   UNL     1      -0.172  11.903 -13.695  0.00  0.00    +0.129 C 
ENDBRANCH   5   8
ENDBRANCH   1   2
BRANCH   1  11
ATOM     11  S   UNL     1       3.066   8.896  -8.009  0.00  0.00    +0.005 S 
ATOM     12  O   UNL     1       2.373  10.096  -7.698  0.00  0.00    -0.169 OA
ATOM     13  O   UNL     1       3.656   8.112  -6.981  0.00  0.00    -0.169 OA
BRANCH  11  18
ATOM     14  C   UNL     1       7.696  10.641 -11.463  0.00  0.00    +0.044 C 
ATOM     15  C   UNL     1       6.540  10.206 -10.600  0.00  0.00    -0.050 A 
ATOM     16  C   UNL     1       5.387  10.967 -10.552  0.00  0.00    +0.005 A 
ATOM     17  C   UNL     1       4.327  10.567  -9.761  0.00  0.00    +0.027 A 
ATOM     18  C   UNL     1       4.418   9.405  -9.018  0.00  0.00    +0.089 A 
ATOM     19  C   UNL     1       5.573   8.646  -9.061  0.00  0.00    +0.027 A 
ATOM     20  C   UNL     1       6.632   9.044  -9.855  0.00  0.00    +0.005 A 
ENDBRANCH  11  18
ENDBRANCH   1  11
BRANCH   1  21
ATOM     21  C   UNL     1       0.772   7.446  -8.348  0.00  0.00    +0.136 C 
BRANCH  21  22
ATOM     22  N   UNL     1       1.123   6.703  -7.135  0.00  0.00    -0.305 N 
ATOM     23  C   UNL     1       0.151   6.244  -6.322  0.00  0.00    +0.299 C 
ATOM     24  O   UNL     1      -1.014   6.447  -6.594  0.00  0.00    -0.265 OA
ATOM     25  H   UNL     1       2.054   6.541  -6.918  0.00  0.00    +0.149 HD
BRANCH  23  26
ATOM     26  C   UNL     1       0.509   5.487  -5.084  0.00  0.00    +0.299 C 
ATOM     27  O   UNL     1       1.674   5.284  -4.812  0.00  0.00    -0.265 OA
ATOM     28  N   UNL     1      -0.463   5.028  -4.270  0.00  0.00    -0.307 N 
ATOM     29  H   UNL     1      -1.394   5.190  -4.488  0.00  0.00    +0.149 HD
BRANCH  28  30
ATOM     30  C   UNL     1      -0.112   4.285  -3.057  0.00  0.00    +0.109 C 
BRANCH  30  31
ATOM     31  C   UNL     1      -1.390   3.882  -2.319  0.00  0.00    +0.049 C 
BRANCH  31  32
ATOM     32  C   UNL     1      -1.030   3.118  -1.071  0.00  0.00    -0.072 C 
ATOM     33  C   UNL     1      -0.948   3.775   0.041  0.00  0.00    -0.028 C 
ATOM     34  C   UNL     1      -0.590   3.155   1.360  0.00  0.00    +0.027 C 
ATOM     35  C   UNL     1      -0.751   1.636   1.293  0.00  0.00    +0.004 C 
ATOM     36  C   UNL     1      -0.036   1.127   0.035  0.00  0.00    +0.005 C 
ATOM     37  C   UNL     1      -0.786   1.642  -1.195  0.00  0.00    +0.030 C 
ENDBRANCH  31  32
ENDBRANCH  30  31
ENDBRANCH  28  30
ENDBRANCH  23  26
ENDBRANCH  21  22
ENDBRANCH   1  21
TORSDOF 10
