REMARK  Name = ZINC08791647
REMARK  11 active torsions:
REMARK  status: ('A' for Active; 'I' for Inactive)
REMARK    1  A    between atoms: C_1  and  C_2
REMARK    2  A    between atoms: C_2  and  C_3
REMARK    3  A    between atoms: C_3  and  C_5
REMARK    4  A    between atoms: C_3  and  N_6
REMARK    5  A    between atoms: C_7  and  C_9
REMARK    6  A    between atoms: C_9  and  C_11
REMARK    7  A    between atoms: C_9  and  N_15
REMARK    8  A    between atoms: C_11  and  C_12
REMARK    9  A    between atoms: C_12  and  C_13
REMARK   10  A    between atoms: C_12  and  C_14
REMARK   11  A    between atoms: C_16  and  C_18
REMARK                            x       y       z     vdW  Elec       q    Type
REMARK                         _______ _______ _______ _____ _____    ______ ____
ROOT
ATOM      1  C   UNL     1       2.462   0.920  -0.017  0.00  0.00    +0.167 C 
ATOM      2  C   UNL     1       2.584   0.044   1.239  0.00  0.00    +0.069 C 
ATOM      3  C   UNL     1       3.001   0.884   2.421  0.00  0.00    -0.015 A 
ATOM      4  C   UNL     1       2.941   0.516   3.824  0.00  0.00    +0.003 A 
ATOM      5  C   UNL     1       2.492  -0.635   4.479  0.00  0.00    +0.010 A 
ATOM      6  C   UNL     1       2.581  -0.643   5.849  0.00  0.00    +0.001 A 
ATOM      7  C   UNL     1       3.090   0.432   6.560  0.00  0.00    +0.002 A 
ATOM      8  C   UNL     1       3.542   1.582   5.937  0.00  0.00    +0.026 A 
ATOM      9  C   UNL     1       3.464   1.619   4.546  0.00  0.00    +0.047 A 
ATOM     10  N   UNL     1       3.812   2.572   3.634  0.00  0.00    -0.356 N 
ATOM     11  H   UNL     1       4.204   3.433   3.848  0.00  0.00    +0.166 HD
ATOM     12  C   UNL     1       3.524   2.131   2.371  0.00  0.00    +0.046 A 
ATOM     13  C   UNL     1       3.734   2.881   1.079  0.00  0.00    +0.155 C 
ATOM     14  N   UNL     1       3.569   1.881  -0.002  0.00  0.00    -0.273 N 
ATOM     15  C   UNL     1       4.589   2.012  -0.862  0.00  0.00    +0.248 C 
ATOM     16  O   UNL     1       4.650   1.494  -1.960  0.00  0.00    -0.270 OA
ATOM     17  C   UNL     1       5.620   2.874  -0.274  0.00  0.00    +0.042 A 
ATOM     18  C   UNL     1       5.121   3.405   0.932  0.00  0.00    -0.009 A 
ATOM     19  C   UNL     1       5.880   4.243   1.718  0.00  0.00    +0.006 A 
ATOM     20  C   UNL     1       7.159   4.551   1.263  0.00  0.00    +0.000 A 
ATOM     21  C   UNL     1       7.652   4.044   0.078  0.00  0.00    +0.001 A 
ATOM     22  C   UNL     1       6.903   3.195  -0.723  0.00  0.00    +0.013 A 
ENDROOT
BRANCH   1  24
ATOM     23  N   UNL     1      -0.011   0.966   0.007  0.00  0.00    -0.302 N 
ATOM     24  C   UNL     1       1.147   1.655   0.000  0.00  0.00    +0.235 C 
ATOM     25  O   UNL     1       1.130   2.868   0.007  0.00  0.00    -0.274 OA
ATOM     26  H   UNL     1       0.002  -0.004   0.002  0.00  0.00    +0.150 HD
BRANCH  23  27
ATOM     27  C   UNL     1      -1.290   1.681   0.017  0.00  0.00    +0.159 C 
BRANCH  27  29
ATOM     28  N   UNL     1      -3.619   1.251   0.731  0.00  0.00    -0.311 N 
ATOM     29  C   UNL     1      -2.354   0.799   0.618  0.00  0.00    +0.234 C 
ATOM     30  O   UNL     1      -2.072  -0.317   1.000  0.00  0.00    -0.274 OA
ATOM     31  H   UNL     1      -3.844   2.143   0.425  0.00  0.00    +0.149 HD
BRANCH  28  32
ATOM     32  C   UNL     1      -4.653   0.393   1.315  0.00  0.00    +0.070 C 
ATOM     33  C   UNL     1      -4.626   0.527   2.838  0.00  0.00    +0.028 C 
BRANCH  32  35
ATOM     34  C   UNL     1      -6.096   0.570  -0.718  0.00  0.00    +0.005 C 
ATOM     35  C   UNL     1      -6.026   0.821   0.790  0.00  0.00    +0.018 C 
ENDBRANCH  32  35
ENDBRANCH  28  32
ENDBRANCH  27  29
BRANCH  27  36
ATOM     36  C   UNL     1      -1.680   2.047  -1.416  0.00  0.00    +0.034 C 
BRANCH  36  37
ATOM     37  C   UNL     1      -0.665   3.042  -1.983  0.00  0.00    -0.015 C 
ATOM     38  C   UNL     1      -0.983   3.312  -3.455  0.00  0.00    +0.007 C 
ATOM     39  C   UNL     1      -0.739   4.351  -1.196  0.00  0.00    +0.007 C 
ENDBRANCH  36  37
ENDBRANCH  27  36
ENDBRANCH  23  27
ENDBRANCH   1  24
TORSDOF 7
