REMARK  Name = ZINC15015349
REMARK  7 active torsions:
REMARK  status: ('A' for Active; 'I' for Inactive)
REMARK    1  A    between atoms: C_4  and  C_7
REMARK    2  A    between atoms: N_9  and  C_10
REMARK    3  A    between atoms: C_10  and  C_21
REMARK    4  A    between atoms: C_11  and  C_12
REMARK    5  A    between atoms: C_15  and  N_18
REMARK    6  A    between atoms: N_23  and  N_24
REMARK    7  A    between atoms: C_28  and  N_35
REMARK                            x       y       z     vdW  Elec       q    Type
REMARK                         _______ _______ _______ _____ _____    ______ ____
ROOT
ATOM      1  C   UNL     1       5.027  -2.540  -0.114  0.00  0.00    +0.098 C 
ATOM      2  C   UNL     1       5.132  -3.874   0.093  0.00  0.00    +0.036 C 
ENDROOT
BRANCH   2   3
ATOM      3  C   UNL     1       3.920  -4.707   0.150  0.00  0.00    -0.023 A 
ATOM      4  C   UNL     1       2.755  -4.298  -0.507  0.00  0.00    +0.010 A 
ATOM      5  C   UNL     1       1.623  -5.083  -0.449  0.00  0.00    +0.033 A 
ATOM      6  C   UNL     1       1.639  -6.274   0.257  0.00  0.00    +0.126 A 
ATOM      7  C   UNL     1       2.787  -6.685   0.910  0.00  0.00    +0.033 A 
ATOM      8  C   UNL     1       3.929  -5.914   0.857  0.00  0.00    +0.010 A 
BRANCH   6   9
ATOM      9  N   UNL     1       0.419  -7.111   0.314  0.00  0.00    +0.056 N 
ATOM     10  O   UNL     1      -0.586  -6.755  -0.255  0.00  0.00    -0.126 OA
ATOM     11  O   UNL     1       0.429  -8.151   0.930  0.00  0.00    -0.126 OA
ENDBRANCH   6   9
ENDBRANCH   2   3
BRANCH   1  14
ATOM     12  C   UNL     1       3.526  -1.220  -1.400  0.00  0.00    +0.248 C 
ATOM     13  O   UNL     1       4.371  -1.125  -2.269  0.00  0.00    -0.270 OA
ATOM     14  N   UNL     1       3.771  -1.958  -0.299  0.00  0.00    -0.277 N 
ATOM     15  H   UNL     1       3.074  -2.085   0.364  0.00  0.00    +0.155 HD
BRANCH  12  19
ATOM     16  C   UNL     1      -0.198   0.776  -1.835  0.00  0.00    +0.000 A 
ATOM     17  C   UNL     1       0.802   0.973  -2.770  0.00  0.00    +0.001 A 
ATOM     18  C   UNL     1       2.014   0.329  -2.635  0.00  0.00    +0.013 A 
ATOM     19  C   UNL     1       2.230  -0.525  -1.552  0.00  0.00    +0.037 A 
ATOM     20  C   UNL     1       1.216  -0.720  -0.612  0.00  0.00    +0.013 A 
ATOM     21  C   UNL     1       0.009  -0.069  -0.759  0.00  0.00    +0.001 A 
ENDBRANCH  12  19
ENDBRANCH   1  14
BRANCH   1  22
ATOM     22  C   UNL     1       6.235  -1.705  -0.142  0.00  0.00    +0.277 C 
ATOM     23  O   UNL     1       6.136  -0.495  -0.221  0.00  0.00    -0.267 OA
ATOM     24  N   UNL     1       7.453  -2.279  -0.082  0.00  0.00    -0.201 N 
ATOM     25  H   UNL     1       7.535  -3.246  -0.092  0.00  0.00    +0.178 HD
BRANCH  24  26
ATOM     26  N   UNL     1       8.601  -1.480  -0.004  0.00  0.00    -0.174 NA
ATOM     27  C   UNL     1       9.790  -2.033  -0.050  0.00  0.00    +0.153 C 
ATOM     28  C   UNL     1      11.101  -1.371   0.143  0.00  0.00    +0.030 A 
ATOM     29  C   UNL     1      11.475  -0.059   0.412  0.00  0.00    +0.044 A 
ATOM     30  C   UNL     1      12.812   0.259   0.540  0.00  0.00    +0.127 A 
ATOM     31  C   UNL     1      13.776  -0.725   0.400  0.00  0.00    +0.034 A 
ATOM     32  C   UNL     1      13.415  -2.030   0.132  0.00  0.00    +0.026 A 
ATOM     33  C   UNL     1      12.072  -2.370   0.000  0.00  0.00    +0.043 A 
ATOM     34  N   UNL     1      11.449  -3.584  -0.264  0.00  0.00    -0.280 N 
ATOM     35  C   UNL     1      10.112  -3.452  -0.299  0.00  0.00    +0.269 C 
ATOM     36  O   UNL     1       9.309  -4.343  -0.504  0.00  0.00    -0.268 OA
ATOM     37  H   UNL     1      11.919  -4.421  -0.401  0.00  0.00    +0.155 HD
BRANCH  30  38
ATOM     38  N   UNL     1      13.216   1.654   0.827  0.00  0.00    +0.056 N 
ATOM     39  O   UNL     1      12.375   2.514   0.950  0.00  0.00    -0.126 OA
ATOM     40  O   UNL     1      14.387   1.933   0.939  0.00  0.00    -0.126 OA
ENDBRANCH  30  38
ENDBRANCH  24  26
ENDBRANCH   1  22
TORSDOF 7
