REMARK  Name = ZINC10337051
REMARK  3 active torsions:
REMARK  status: ('A' for Active; 'I' for Inactive)
REMARK    1  A    between atoms: C_1  and  C_2
REMARK    2  A    between atoms: C_6  and  C_8
REMARK    3  A    between atoms: C_26  and  C_28
REMARK                            x       y       z     vdW  Elec       q    Type
REMARK                         _______ _______ _______ _____ _____    ______ ____
ROOT
ATOM      1  C   UNL     1       0.096  -2.886   2.419  0.00  0.00    +0.234 C 
ATOM      2  C   UNL     1       1.497  -3.299   2.765  0.00  0.00    +0.027 C 
ATOM      3  C   UNL     1       1.990  -4.481   2.344  0.00  0.00    +0.083 C 
ATOM      4  C   UNL     1       1.092  -5.350   1.541  0.00  0.00    +0.044 A 
ATOM      5  C   UNL     1       1.585  -6.412   0.796  0.00  0.00    +0.033 A 
ATOM      6  C   UNL     1       0.713  -7.195   0.062  0.00  0.00    +0.042 A 
ATOM      7  C   UNL     1      -0.644  -6.920   0.070  0.00  0.00    +0.023 A 
ATOM      8  C   UNL     1      -1.143  -5.864   0.810  0.00  0.00    +0.048 A 
ATOM      9  C   UNL     1      -0.281  -5.074   1.551  0.00  0.00    +0.131 A 
ATOM     10  O   UNL     1      -0.741  -4.037   2.290  0.00  0.00    -0.479 OA
ATOM     11 CL   UNL     1       1.321  -8.525  -0.873  0.00  0.00    -0.084 Cl
ATOM     12  N   UNL     1       3.256  -4.869   2.640  0.00  0.00    -0.213 NA
ATOM     13  C   UNL     1       4.095  -4.159   3.348  0.00  0.00    +0.232 C 
ATOM     14  N   UNL     1       5.378  -4.364   3.752  0.00  0.00    -0.231 N 
ATOM     15  N   UNL     1       5.781  -3.359   4.446  0.00  0.00    -0.086 NA
ATOM     16  N   UNL     1       4.861  -2.462   4.553  0.00  0.00    -0.165 N 
ATOM     17  N   UNL     1       3.742  -2.924   3.860  0.00  0.00    -0.193 N 
ATOM     18  C   UNL     1       2.396  -2.406   3.594  0.00  0.00    +0.162 C 
ATOM     19  H   UNL     1       4.933  -1.621   5.030  0.00  0.00    +0.195 HD
ATOM     20  H   UNL     1       5.909  -5.149   3.547  0.00  0.00    +0.193 HD
ENDROOT
BRANCH   1  26
ATOM     21  C   UNL     1      -0.350   1.415  -0.100  0.00  0.00    +0.044 C 
ATOM     22  C   UNL     1      -0.107  -0.072  -0.090  0.00  0.00    -0.050 A 
ATOM     23  C   UNL     1       0.126  -0.743  -1.276  0.00  0.00    +0.003 A 
ATOM     24  C   UNL     1       0.349  -2.107  -1.267  0.00  0.00    +0.001 A 
ATOM     25  C   UNL     1       0.340  -2.800  -0.071  0.00  0.00    +0.007 A 
ATOM     26  C   UNL     1       0.107  -2.130   1.115  0.00  0.00    -0.003 A 
ATOM     27  C   UNL     1      -0.112  -0.765   1.106  0.00  0.00    +0.011 A 
ENDBRANCH   1  26
BRANCH  18  28
ATOM     28  C   UNL     1       2.532  -1.085   2.882  0.00  0.00    -0.003 A 
ATOM     29  C   UNL     1       1.896   0.045   3.373  0.00  0.00    +0.009 A 
ATOM     30  C   UNL     1       2.050   1.240   2.686  0.00  0.00    +0.020 A 
ATOM     31  C   UNL     1       2.826   1.264   1.543  0.00  0.00    +0.111 A 
ATOM     32  N   UNL     1       3.417   0.169   1.105  0.00  0.00    -0.263 NA
ATOM     33  C   UNL     1       3.298  -0.983   1.736  0.00  0.00    +0.116 A 
ENDBRANCH  18  28
TORSDOF 2
