REMARK  Name = ZINC03970635
REMARK  11 active torsions:
REMARK  status: ('A' for Active; 'I' for Inactive)
REMARK    1  A    between atoms: C_1  and  C_2
REMARK    2  A    between atoms: C_7  and  N_8
REMARK    3  A    between atoms: C_12  and  C_36
REMARK    4  A    between atoms: C_18  and  S_19
REMARK    5  A    between atoms: S_19  and  C_20
REMARK    6  A    between atoms: C_20  and  C_21
REMARK    7  A    between atoms: N_23  and  C_24
REMARK    8  A    between atoms: C_24  and  C_25
REMARK    9  A    between atoms: C_25  and  C_26
REMARK   10  A    between atoms: C_29  and  S_32
REMARK   11  A    between atoms: S_32  and  N_35
REMARK                            x       y       z     vdW  Elec       q    Type
REMARK                         _______ _______ _______ _____ _____    ______ ____
ROOT
ATOM      1  N   UNL     1       2.357   3.889   0.001  0.00  0.00    -0.274 N 
ATOM      2  C   UNL     1       2.963   4.246   1.196  0.00  0.00    +0.124 A 
ATOM      3  N   UNL     1       2.434   3.923   2.351  0.00  0.00    -0.384 N 
ATOM      4  C   UNL     1       4.224   4.995   1.114  0.00  0.00    +0.082 A 
ATOM      5  C   UNL     1       5.117   5.520   2.064  0.00  0.00    +0.072 A 
ATOM      6  N   UNL     1       6.092   6.111   1.428  0.00  0.00    -0.177 NA
ATOM      7  N   UNL     1       5.883   6.000   0.048  0.00  0.00    -0.260 N 
ATOM      8  H   UNL     1       6.606   6.441  -0.654  0.00  0.00    +0.191 HD
ATOM      9  C   UNL     1       4.728   5.310  -0.154  0.00  0.00    +0.162 A 
ATOM     10  N   UNL     1       4.059   4.922  -1.250  0.00  0.00    -0.204 NA
ATOM     11  C   UNL     1       2.936   4.249  -1.185  0.00  0.00    +0.177 A 
ATOM     12  C   UNL     1       4.974   5.418   3.561  0.00  0.00    +0.068 C 
ATOM     13  H   UNL     1       2.934   4.217   3.285  0.00  0.00    +0.157 HD
ATOM     14  H   UNL     1       1.491   3.358   2.386  0.00  0.00    +0.157 HD
ENDROOT
BRANCH   1  21
ATOM     15  C   UNL     1      -0.085   5.351   0.032  0.00  0.00    +0.046 C 
ATOM     16  C   UNL     1      -0.059   3.845   0.023  0.00  0.00    -0.026 A 
ATOM     17  C   UNL     1      -1.243   3.133   0.031  0.00  0.00    +0.005 A 
ATOM     18  C   UNL     1      -1.220   1.750   0.017  0.00  0.00    +0.000 A 
ATOM     19  C   UNL     1      -0.013   1.076   0.008  0.00  0.00    +0.002 A 
ATOM     20  C   UNL     1       1.174   1.782   0.000  0.00  0.00    +0.026 A 
ATOM     21  C   UNL     1       1.155   3.170   0.008  0.00  0.00    +0.053 A 
ENDBRANCH   1  21
BRANCH  11  22
ATOM     22  S   UNL     1       2.140   3.788  -2.688  0.00  0.00    -0.078 S 
BRANCH  22  23
ATOM     23  C   UNL     1       3.298   4.494  -3.887  0.00  0.00    +0.173 C 
BRANCH  23  24
ATOM     24  C   UNL     1       2.807   4.214  -5.284  0.00  0.00    +0.223 C 
ATOM     25  O   UNL     1       1.776   3.598  -5.453  0.00  0.00    -0.275 OA
ATOM     26  N   UNL     1       3.514   4.649  -6.346  0.00  0.00    -0.314 N 
ATOM     27  H   UNL     1       4.449   5.207  -6.193  0.00  0.00    +0.149 HD
BRANCH  26  28
ATOM     28  C   UNL     1       3.037   4.377  -7.704  0.00  0.00    +0.109 C 
BRANCH  28  29
ATOM     29  C   UNL     1       4.016   4.974  -8.718  0.00  0.00    +0.054 C 
BRANCH  29  30
ATOM     30  C   UNL     1       3.525   4.694 -10.115  0.00  0.00    -0.046 A 
ATOM     31  C   UNL     1       3.919   3.542 -10.768  0.00  0.00    +0.005 A 
ATOM     32  C   UNL     1       3.466   3.283 -12.048  0.00  0.00    +0.029 A 
ATOM     33  C   UNL     1       2.625   4.182 -12.678  0.00  0.00    +0.105 A 
ATOM     34  C   UNL     1       2.234   5.337 -12.027  0.00  0.00    +0.029 A 
ATOM     35  C   UNL     1       2.684   5.593 -10.745  0.00  0.00    +0.005 A 
BRANCH  33  36
ATOM     36  S   UNL     1       2.050   3.854 -14.311  0.00  0.00    +0.056 S 
ATOM     37  O   UNL     1       2.121   2.447 -14.492  0.00  0.00    -0.153 OA
ATOM     38  O   UNL     1       0.840   4.583 -14.469  0.00  0.00    -0.153 OA
BRANCH  36  39
ATOM     39  N   UNL     1       3.145   4.522 -15.359  0.00  0.00    -0.204 NA
ATOM     40  H   UNL     1       2.821   4.339 -16.394  0.00  0.00    +0.144 HD
ATOM     41  H   UNL     1       4.132   4.066 -15.197  0.00  0.00    +0.144 HD
ENDBRANCH  36  39
ENDBRANCH  33  36
ENDBRANCH  29  30
ENDBRANCH  28  29
ENDBRANCH  26  28
ENDBRANCH  23  24
ENDBRANCH  22  23
ENDBRANCH  11  22
TORSDOF 9
