REMARK  Name = ZINC22024880
REMARK  6 active torsions:
REMARK  status: ('A' for Active; 'I' for Inactive)
REMARK    1  A    between atoms: C_1  and  C_2
REMARK    2  A    between atoms: C_5  and  S_8
REMARK    3  A    between atoms: N_6  and  N_7
REMARK    4  A    between atoms: S_8  and  C_9
REMARK    5  A    between atoms: C_12  and  C_18
REMARK    6  A    between atoms: C_14  and  N_15
REMARK                            x       y       z     vdW  Elec       q    Type
REMARK                         _______ _______ _______ _____ _____    ______ ____
ROOT
ATOM      1  C   UNL     1      -3.331   3.179   5.050  0.00  0.00    +0.047 A 
ATOM      2  C   UNL     1      -1.998   3.194   5.443  0.00  0.00    +0.038 A 
ATOM      3  C   UNL     1      -1.665   3.562   6.733  0.00  0.00    +0.054 A 
ATOM      4  C   UNL     1      -2.657   3.917   7.631  0.00  0.00    +0.075 A 
ATOM      5  C   UNL     1      -3.983   3.903   7.242  0.00  0.00    +0.047 A 
ATOM      6  C   UNL     1      -4.323   3.541   5.953  0.00  0.00    +0.141 A 
ATOM      7 CL   UNL     1      -0.001   3.582   7.226  0.00  0.00    -0.083 Cl
ENDROOT
BRANCH   4   8
ATOM      8  C   UNL     1      -2.290   4.319   9.036  0.00  0.00    +0.419 C 
ATOM      9  F   UNL     1      -3.452   4.630   9.751  0.00  0.00    -0.166 F 
ATOM     10  F   UNL     1      -1.625   3.260   9.665  0.00  0.00    -0.166 F 
ATOM     11  F   UNL     1      -1.452   5.438   8.998  0.00  0.00    -0.166 F 
ENDBRANCH   4   8
BRANCH   6  12
ATOM     12  N   UNL     1      -5.743   3.532   5.536  0.00  0.00    +0.058 N 
ATOM     13  O   UNL     1      -6.613   3.849   6.328  0.00  0.00    -0.126 OA
ATOM     14  O   UNL     1      -6.043   3.208   4.400  0.00  0.00    -0.126 OA
ENDBRANCH   6  12
BRANCH   1  15
ATOM     15  S   UNL     1      -3.761   2.709   3.407  0.00  0.00    -0.046 S 
BRANCH  15  20
ATOM     16  C   UNL     1      -5.827  -2.158   2.879  0.00  0.00    +0.090 C 
ATOM     17  C   UNL     1      -5.190  -0.920   3.455  0.00  0.00    +0.148 A 
ATOM     18  N   UNL     1      -4.811  -0.750   4.691  0.00  0.00    -0.132 NA
ATOM     19  N   UNL     1      -4.308   0.423   4.840  0.00  0.00    -0.121 NA
ATOM     20  C   UNL     1      -4.339   1.071   3.698  0.00  0.00    +0.213 A 
ATOM     21  N   UNL     1      -4.898   0.231   2.778  0.00  0.00    -0.228 N 
BRANCH  21  22
ATOM     22  N   UNL     1      -5.122   0.489   1.455  0.00  0.00    -0.295 N 
ATOM     23  H   UNL     1      -4.839   1.463   1.029  0.00  0.00    +0.163 HD
ATOM     24  H   UNL     1      -5.586  -0.277   0.816  0.00  0.00    +0.163 HD
ENDBRANCH  21  22
ENDBRANCH  15  20
ENDBRANCH   1  15
TORSDOF 5
