REMARK  Name = ZINC40385401
REMARK  4 active torsions:
REMARK  status: ('A' for Active; 'I' for Inactive)
REMARK    1  A    between atoms: C_4  and  C_7
REMARK    2  A    between atoms: C_7  and  C_9
REMARK    3  A    between atoms: C_7  and  C_28
REMARK    4  A    between atoms: N_30  and  C_31
REMARK                            x       y       z     vdW  Elec       q    Type
REMARK                         _______ _______ _______ _____ _____    ______ ____
ROOT
ATOM      1  C   UNL     1       3.748  -1.528  -1.369  0.00  0.00    +0.184 C 
ATOM      2  C   UNL     1       3.679  -0.665  -2.613  0.00  0.00    +0.243 C 
ATOM      3  O   UNL     1       2.754   0.030  -2.978  0.00  0.00    -0.273 OA
ATOM      4  N   UNL     1       4.868  -0.837  -3.227  0.00  0.00    -0.258 N 
ATOM      5  C   UNL     1       5.662  -1.700  -2.513  0.00  0.00    +0.164 C 
ATOM      6  N   UNL     1       5.087  -2.137  -1.435  0.00  0.00    -0.349 N 
ATOM      7  N   UNL     1       6.930  -2.063  -2.899  0.00  0.00    -0.302 N 
ATOM      8  C   UNL     1       7.720  -2.998  -2.086  0.00  0.00    +0.126 C 
ATOM      9  C   UNL     1       8.158  -4.170  -2.974  0.00  0.00    +0.125 C 
ATOM     10  N   UNL     1       8.748  -3.630  -4.207  0.00  0.00    -0.312 N 
ATOM     11  C   UNL     1       7.958  -2.694  -5.019  0.00  0.00    +0.125 C 
ATOM     12  C   UNL     1       7.518  -1.527  -4.134  0.00  0.00    +0.126 C 
ATOM     13  C   UNL     1      10.031  -3.997  -4.596  0.00  0.00    +0.121 A 
ATOM     14  C   UNL     1      10.762  -4.885  -3.814  0.00  0.00    +0.043 A 
ATOM     15  C   UNL     1      12.037  -5.242  -4.214  0.00  0.00    +0.005 A 
ATOM     16  C   UNL     1      12.540  -4.696  -5.387  0.00  0.00    +0.020 A 
ATOM     17  C   UNL     1      11.760  -3.820  -6.115  0.00  0.00    +0.113 A 
ATOM     18  N   UNL     1      10.544  -3.502  -5.712  0.00  0.00    -0.240 NA
ATOM     19  H   UNL     1       5.127  -0.409  -4.059  0.00  0.00    +0.157 HD
ATOM     20  H   UNL     1       5.469  -2.752  -0.791  0.00  0.00    +0.163 HD
ENDROOT
BRANCH   1  21
ATOM     21  C   UNL     1       3.612  -0.668  -0.111  0.00  0.00    +0.136 C 
BRANCH  21  25
ATOM     22  C   UNL     1      -0.185   1.288  -0.131  0.00  0.00    +0.000 A 
ATOM     23  C   UNL     1       0.977   2.036  -0.108  0.00  0.00    +0.000 A 
ATOM     24  C   UNL     1       2.206   1.403  -0.102  0.00  0.00    +0.004 A 
ATOM     25  C   UNL     1       2.272   0.022  -0.117  0.00  0.00    -0.033 A 
ATOM     26  C   UNL     1       1.110  -0.726  -0.139  0.00  0.00    +0.004 A 
ATOM     27  C   UNL     1      -0.119  -0.092  -0.147  0.00  0.00    +0.000 A 
ENDBRANCH  21  25
BRANCH  21  28
ATOM     28  C   UNL     1       3.720  -1.544   1.111  0.00  0.00    +0.227 C 
ATOM     29  O   UNL     1       3.890  -2.738   0.987  0.00  0.00    -0.275 OA
ATOM     30  N   UNL     1       3.629  -1.000   2.340  0.00  0.00    -0.285 N 
ATOM     31  H   UNL     1       3.416  -0.059   2.440  0.00  0.00    +0.155 HD
BRANCH  30  32
ATOM     32  C   UNL     1       3.840  -1.793   3.474  0.00  0.00    +0.033 A 
ATOM     33  C   UNL     1       3.110  -1.560   4.632  0.00  0.00    +0.025 A 
ATOM     34  C   UNL     1       3.321  -2.344   5.749  0.00  0.00    +0.022 A 
ATOM     35  C   UNL     1       4.259  -3.361   5.716  0.00  0.00    +0.041 A 
ATOM     36  C   UNL     1       4.988  -3.595   4.563  0.00  0.00    +0.022 A 
ATOM     37  C   UNL     1       4.777  -2.817   3.441  0.00  0.00    +0.025 A 
ATOM     38 CL   UNL     1       4.522  -4.344   7.122  0.00  0.00    -0.084 Cl
ENDBRANCH  30  32
ENDBRANCH  21  28
ENDBRANCH   1  21
TORSDOF 4
