REMARK  Name = ZINC16017098
REMARK  8 active torsions:
REMARK  status: ('A' for Active; 'I' for Inactive)
REMARK    1  A    between atoms: C_1  and  C_2
REMARK    2  A    between atoms: C_2  and  C_3
REMARK    3  A    between atoms: C_2  and  C_4
REMARK    4  A    between atoms: N_6  and  C_7
REMARK    5  A    between atoms: C_10  and  N_13
REMARK    6  A    between atoms: C_14  and  C_16
REMARK    7  A    between atoms: N_19  and  S_22
REMARK    8  A    between atoms: S_22  and  C_25
REMARK                            x       y       z     vdW  Elec       q    Type
REMARK                         _______ _______ _______ _____ _____    ______ ____
ROOT
ATOM      1  N   UNL     1       0.148   7.829   5.259  0.00  0.00    -0.285 N 
ATOM      2  C   UNL     1       1.077   7.536   4.327  0.00  0.00    +0.220 C 
ATOM      3  O   UNL     1       1.886   8.376   3.993  0.00  0.00    -0.275 OA
ATOM      4  H   UNL     1      -0.544   7.184   5.473  0.00  0.00    +0.155 HD
ENDROOT
BRANCH   1   8
ATOM      5  C   UNL     1       0.251  11.505   7.224  0.00  0.00    +0.034 A 
ATOM      6  C   UNL     1      -0.967  10.894   6.958  0.00  0.00    +0.025 A 
ATOM      7  C   UNL     1      -1.001   9.677   6.307  0.00  0.00    +0.025 A 
ATOM      8  C   UNL     1       0.183   9.063   5.919  0.00  0.00    +0.034 A 
ATOM      9  C   UNL     1       1.401   9.672   6.190  0.00  0.00    +0.025 A 
ATOM     10  C   UNL     1       1.435  10.891   6.837  0.00  0.00    +0.025 A 
BRANCH   5  13
ATOM     11  C   UNL     1       1.222  13.653   7.556  0.00  0.00    +0.220 C 
ATOM     12  O   UNL     1       2.085  13.374   6.750  0.00  0.00    -0.275 OA
ATOM     13  N   UNL     1       0.286  12.740   7.883  0.00  0.00    -0.285 N 
ATOM     14  H   UNL     1      -0.364  12.939   8.576  0.00  0.00    +0.155 HD
BRANCH  11  16
ATOM     15  C   UNL     1       2.359  15.855   7.649  0.00  0.00    +0.017 C 
ATOM     16  C   UNL     1       1.196  15.020   8.190  0.00  0.00    +0.069 C 
ATOM     17  C   UNL     1      -0.127  15.712   7.857  0.00  0.00    +0.017 C 
ENDBRANCH  11  16
ENDBRANCH   5  13
ENDBRANCH   1   8
BRANCH   2  18
ATOM     18  C   UNL     1       1.109   6.167   3.699  0.00  0.00    +0.078 C 
ATOM     19  C   UNL     1       2.251   6.099   2.682  0.00  0.00    +0.030 C 
ATOM     20  C   UNL     1       2.302   4.695   2.071  0.00  0.00    +0.110 C 
ATOM     21  N   UNL     1       0.981   4.371   1.518  0.00  0.00    -0.177 NA
ATOM     22  C   UNL     1      -0.199   4.496   2.386  0.00  0.00    +0.110 C 
ATOM     23  C   UNL     1      -0.222   5.897   2.994  0.00  0.00    +0.030 C 
BRANCH  21  24
ATOM     24  S   UNL     1       0.822   3.880  -0.056  0.00  0.00    +0.061 S 
ATOM     25  O   UNL     1       1.951   4.385  -0.754  0.00  0.00    -0.153 OA
ATOM     26  O   UNL     1      -0.512   4.183  -0.443  0.00  0.00    -0.153 OA
BRANCH  24  27
ATOM     27  C   UNL     1       0.964   2.124  -0.071  0.00  0.00    +0.106 A 
ATOM     28  C   UNL     1      -0.165   1.338   0.073  0.00  0.00    +0.030 A 
ATOM     29  C   UNL     1      -0.054  -0.040   0.061  0.00  0.00    +0.022 A 
ATOM     30  C   UNL     1       1.187  -0.632  -0.095  0.00  0.00    +0.041 A 
ATOM     31  C   UNL     1       2.315   0.155  -0.239  0.00  0.00    +0.022 A 
ATOM     32  C   UNL     1       2.203   1.532  -0.227  0.00  0.00    +0.030 A 
ATOM     33 CL   UNL     1       1.327  -2.362  -0.110  0.00  0.00    -0.084 Cl
ENDBRANCH  24  27
ENDBRANCH  21  24
ENDBRANCH   2  18
TORSDOF 6
