REMARK  Name = ZINC24163308
REMARK  10 active torsions:
REMARK  status: ('A' for Active; 'I' for Inactive)
REMARK    1  A    between atoms: C_1  and  C_2
REMARK    2  A    between atoms: C_2  and  C_31
REMARK    3  A    between atoms: C_3  and  C_4
REMARK    4  A    between atoms: N_6  and  C_7
REMARK    5  A    between atoms: C_8  and  C_18
REMARK    6  A    between atoms: C_9  and  C_12
REMARK    7  A    between atoms: C_18  and  O_20
REMARK    8  A    between atoms: O_20  and  C_21
REMARK    9  A    between atoms: C_21  and  C_22
REMARK   10  A    between atoms: C_28  and  C_30
REMARK                            x       y       z     vdW  Elec       q    Type
REMARK                         _______ _______ _______ _____ _____    ______ ____
ROOT
ATOM      1  C   UNL     1      -2.159   1.161  -1.350  0.00  0.00    +0.087 A 
ATOM      2  C   UNL     1      -3.438   1.640  -1.604  0.00  0.00    +0.095 A 
ATOM      3  C   UNL     1      -4.410   0.679  -2.089  0.00  0.00    +0.005 A 
ATOM      4  C   UNL     1      -3.979  -0.598  -2.249  0.00  0.00    +0.056 A 
ATOM      5  S   UNL     1      -2.270  -0.518  -1.758  0.00  0.00    -0.080 S 
ENDROOT
BRANCH   3   6
ATOM      6  C   UNL     1      -5.806   1.073  -2.396  0.00  0.00    -0.017 A 
ATOM      7  C   UNL     1      -6.552   1.792  -1.462  0.00  0.00    +0.008 A 
ATOM      8  C   UNL     1      -7.849   2.160  -1.755  0.00  0.00    +0.001 A 
ATOM      9  C   UNL     1      -8.414   1.807  -2.967  0.00  0.00    +0.000 A 
ATOM     10  C   UNL     1      -7.681   1.089  -3.895  0.00  0.00    +0.001 A 
ATOM     11  C   UNL     1      -6.381   0.720  -3.616  0.00  0.00    +0.008 A 
ENDBRANCH   3   6
BRANCH   1  14
ATOM     12  C   UNL     1       0.114   1.222  -0.696  0.00  0.00    +0.241 C 
ATOM     13  O   UNL     1       0.204   0.033  -0.932  0.00  0.00    -0.270 OA
ATOM     14  N   UNL     1      -1.058   1.860  -0.886  0.00  0.00    -0.276 N 
ATOM     15  H   UNL     1      -1.140   2.936  -0.672  0.00  0.00    +0.156 HD
BRANCH  12  18
ATOM     16  C   UNL     1       2.434  -0.189   0.078  0.00  0.00    +0.039 C 
ATOM     17  C   UNL     1       2.409   1.318   0.087  0.00  0.00    -0.071 C 
ATOM     18  C   UNL     1       1.285   1.966  -0.209  0.00  0.00    +0.066 C 
ATOM     19  C   UNL     1       3.656   2.091   0.430  0.00  0.00    +0.039 C 
ENDBRANCH  12  18
ENDBRANCH   1  14
BRANCH   2  20
ATOM     20  C   UNL     1      -3.787   3.045  -1.393  0.00  0.00    +0.342 C 
ATOM     21  O   UNL     1      -3.653   3.848  -2.298  0.00  0.00    -0.245 OA
BRANCH  20  22
ATOM     22  O   UNL     1      -4.257   3.451  -0.196  0.00  0.00    -0.455 OA
BRANCH  22  23
ATOM     23  C   UNL     1      -4.583   4.859  -0.058  0.00  0.00    +0.288 C 
BRANCH  23  24
ATOM     24  C   UNL     1      -5.090   5.123   1.336  0.00  0.00    +0.088 A 
ATOM     25  C   UNL     1      -5.184   4.119   2.242  0.00  0.00    +0.075 A 
ATOM     26  S   UNL     1      -5.821   5.007   3.656  0.00  0.00    -0.060 S 
ATOM     27  C   UNL     1      -5.896   6.578   2.922  0.00  0.00    +0.165 A 
ATOM     28  N   UNL     1      -5.446   6.338   1.706  0.00  0.00    -0.226 NA
ATOM     29  N   UNL     1      -6.316   7.782   3.476  0.00  0.00    -0.265 N 
ATOM     30  C   UNL     1      -6.740   7.824   4.754  0.00  0.00    +0.216 C 
ATOM     31  O   UNL     1      -6.756   6.811   5.421  0.00  0.00    -0.276 OA
ATOM     32  C   UNL     1      -7.196   9.129   5.355  0.00  0.00    +0.109 C 
ATOM     33  H   UNL     1      -6.302   8.700   2.871  0.00  0.00    +0.157 HD
ENDBRANCH  23  24
ENDBRANCH  22  23
ENDBRANCH  20  22
ENDBRANCH   2  20
TORSDOF 7
