REMARK  Name = ZINC66623789
REMARK  6 active torsions:
REMARK  status: ('A' for Active; 'I' for Inactive)
REMARK    1  A    between atoms: C_9  and  C_11
REMARK    2  A    between atoms: C_14  and  C_17
REMARK    3  A    between atoms: C_17  and  N_18
REMARK    4  A    between atoms: C_19  and  C_21
REMARK    5  A    between atoms: C_24  and  C_26
REMARK    6  A    between atoms: C_26  and  N_27
REMARK                            x       y       z     vdW  Elec       q    Type
REMARK                         _______ _______ _______ _____ _____    ______ ____
ROOT
ATOM      1  C   UNL     1       3.747  -3.303  -0.053  0.00  0.00    +0.017 A 
ATOM      2  C   UNL     1       3.115  -4.547  -0.060  0.00  0.00    +0.012 A 
ATOM      3  C   UNL     1       3.871  -5.701  -0.074  0.00  0.00    +0.006 A 
ATOM      4  C   UNL     1       5.252  -5.626  -0.082  0.00  0.00    -0.030 A 
ATOM      5  C   UNL     1       5.885  -4.396  -0.075  0.00  0.00    +0.006 A 
ATOM      6  C   UNL     1       5.141  -3.234  -0.066  0.00  0.00    +0.012 A 
ENDROOT
BRANCH   1  15
ATOM      7  C   UNL     1      -0.017   1.375   0.010  0.00  0.00    +0.002 A 
ATOM      8  C   UNL     1       1.170   2.095   0.002  0.00  0.00    +0.002 A 
ATOM      9  C   UNL     1       2.375   1.452  -0.013  0.00  0.00    +0.030 A 
ATOM     10  C   UNL     1       2.419   0.054  -0.021  0.00  0.00    +0.089 A 
ATOM     11  C   UNL     1       1.217  -0.676  -0.013  0.00  0.00    +0.066 A 
ATOM     12  C   UNL     1       0.002  -0.004   0.002  0.00  0.00    +0.028 A 
ATOM     13  N   UNL     1       1.575  -2.009  -0.024  0.00  0.00    -0.338 N 
ATOM     14  H   UNL     1       0.970  -2.768  -0.022  0.00  0.00    +0.167 HD
ATOM     15  C   UNL     1       2.943  -2.061  -0.038  0.00  0.00    +0.139 A 
ATOM     16  N   UNL     1       3.433  -0.846  -0.036  0.00  0.00    -0.228 NA
ENDBRANCH   1  15
BRANCH   4  17
ATOM     17  C   UNL     1       6.072  -6.891  -0.097  0.00  0.00    +0.140 C 
BRANCH  17  18
ATOM     18  N   UNL     1       6.329  -7.289  -1.483  0.00  0.00    -0.305 N 
ATOM     19  C   UNL     1       7.048  -8.399  -1.743  0.00  0.00    +0.280 C 
ATOM     20  O   UNL     1       7.483  -9.071  -0.826  0.00  0.00    -0.267 OA
ATOM     21  H   UNL     1       5.982  -6.754  -2.214  0.00  0.00    +0.149 HD
BRANCH  19  22
ATOM     22  C   UNL     1       7.306  -8.798  -3.131  0.00  0.00    +0.190 A 
ATOM     23  C   UNL     1       8.010  -9.896  -3.532  0.00  0.00    +0.055 A 
ATOM     24  C   UNL     1       8.006  -9.888  -4.936  0.00  0.00    +0.047 A 
ATOM     25  C   UNL     1       7.307  -8.798  -5.325  0.00  0.00    +0.127 A 
ATOM     26  O   UNL     1       6.883  -8.147  -4.234  0.00  0.00    -0.453 OA
BRANCH  25  27
ATOM     27  C   UNL     1       7.045  -8.387  -6.750  0.00  0.00    +0.217 C 
BRANCH  27  28
ATOM     28  N   UNL     1       5.798  -8.999  -7.214  0.00  0.00    -0.264 N 
ATOM     29  C   UNL     1       4.740  -8.346  -7.739  0.00  0.00    +0.109 A 
ATOM     30  C   UNL     1       3.795  -9.267  -8.039  0.00  0.00    +0.041 A 
ATOM     31  C   UNL     1       4.292 -10.525  -7.686  0.00  0.00    +0.134 A 
ATOM     32  N   UNL     1       5.495 -10.367  -7.197  0.00  0.00    -0.179 NA
ENDBRANCH  27  28
ENDBRANCH  25  27
ENDBRANCH  19  22
ENDBRANCH  17  18
ENDBRANCH   4  17
TORSDOF 6
