REMARK  Name = ZINC17838333
REMARK  11 active torsions:
REMARK  status: ('A' for Active; 'I' for Inactive)
REMARK    1  A    between atoms: C_1  and  C_2
REMARK    2  A    between atoms: C_2  and  C_3
REMARK    3  A    between atoms: C_6  and  C_9
REMARK    4  A    between atoms: C_11  and  C_32
REMARK    5  A    between atoms: C_12  and  C_14
REMARK    6  A    between atoms: C_14  and  O_16
REMARK    7  A    between atoms: O_16  and  C_17
REMARK    8  A    between atoms: C_17  and  C_19
REMARK    9  A    between atoms: C_17  and  C_20
REMARK   10  A    between atoms: N_22  and  C_23
REMARK   11  A    between atoms: C_28  and  N_29
REMARK                            x       y       z     vdW  Elec       q    Type
REMARK                         _______ _______ _______ _____ _____    ______ ____
ROOT
ATOM      1  C   UNL     1      -0.037   1.200  -0.054  0.00  0.00    +0.348 C 
ATOM      2  O   UNL     1      -0.026  -0.016  -0.075  0.00  0.00    -0.244 OA
ENDROOT
BRANCH   1   6
ATOM      3  C   UNL     1       3.245   3.656  -0.078  0.00  0.00    +0.109 A 
ATOM      4  N   UNL     1       3.495   2.354  -0.105  0.00  0.00    -0.243 NA
ATOM      5  C   UNL     1       2.532   1.473  -0.100  0.00  0.00    +0.060 A 
ATOM      6  C   UNL     1       1.224   1.943  -0.066  0.00  0.00    +0.119 A 
ATOM      7  S   UNL     1       1.510   3.707  -0.050  0.00  0.00    -0.060 S 
ATOM      8  C   UNL     1       2.828  -0.004  -0.130  0.00  0.00    +0.067 C 
BRANCH   3  12
ATOM      9  C   UNL     1       5.999   6.890  -0.079  0.00  0.00    -0.048 A 
ATOM     10  C   UNL     1       4.639   7.143  -0.048  0.00  0.00    +0.004 A 
ATOM     11  C   UNL     1       3.739   6.098  -0.048  0.00  0.00    +0.011 A 
ATOM     12  C   UNL     1       4.204   4.781  -0.079  0.00  0.00    +0.007 A 
ATOM     13  C   UNL     1       5.577   4.533  -0.105  0.00  0.00    +0.011 A 
ATOM     14  C   UNL     1       6.466   5.588  -0.110  0.00  0.00    +0.004 A 
BRANCH   9  16
ATOM     15  C   UNL     1       7.335   8.401   1.364  0.00  0.00    +0.009 C 
ATOM     16  C   UNL     1       6.976   8.037  -0.079  0.00  0.00    +0.032 C 
ENDBRANCH   9  16
ENDBRANCH   3  12
ENDBRANCH   1   6
BRANCH   1  17
ATOM     17  O   UNL     1      -1.211   1.863  -0.025  0.00  0.00    -0.448 OA
BRANCH  17  18
ATOM     18  C   UNL     1      -2.422   1.062  -0.020  0.00  0.00    +0.259 C 
ATOM     19  C   UNL     1      -2.869   0.804  -1.461  0.00  0.00    +0.062 C 
BRANCH  18  20
ATOM     20  C   UNL     1      -3.509   1.798   0.719  0.00  0.00    +0.258 C 
ATOM     21  O   UNL     1      -3.315   2.927   1.116  0.00  0.00    -0.271 OA
ATOM     22  N   UNL     1      -4.697   1.202   0.939  0.00  0.00    -0.281 N 
ATOM     23  H   UNL     1      -4.876   0.324   0.566  0.00  0.00    +0.155 HD
BRANCH  22  24
ATOM     24  C   UNL     1      -5.674   1.848   1.704  0.00  0.00    +0.064 A 
ATOM     25  C   UNL     1      -5.810   3.229   1.636  0.00  0.00    +0.025 A 
ATOM     26  C   UNL     1      -6.778   3.863   2.389  0.00  0.00    +0.002 A 
ATOM     27  C   UNL     1      -7.605   3.127   3.218  0.00  0.00    +0.002 A 
ATOM     28  C   UNL     1      -7.468   1.753   3.293  0.00  0.00    +0.034 A 
ATOM     29  C   UNL     1      -6.505   1.112   2.538  0.00  0.00    +0.147 A 
BRANCH  29  30
ATOM     30  N   UNL     1      -6.359  -0.359   2.619  0.00  0.00    +0.058 N 
ATOM     31  O   UNL     1      -7.150  -1.015   3.272  0.00  0.00    -0.126 OA
ATOM     32  O   UNL     1      -5.447  -0.913   2.031  0.00  0.00    -0.126 OA
ENDBRANCH  29  30
ENDBRANCH  22  24
ENDBRANCH  18  20
ENDBRANCH  17  18
ENDBRANCH   1  17
TORSDOF 8
