REMARK  Name = ZINC40973124
REMARK  5 active torsions:
REMARK  status: ('A' for Active; 'I' for Inactive)
REMARK    1  A    between atoms: C_1  and  C_2
REMARK    2  A    between atoms: N_8  and  S_9
REMARK    3  A    between atoms: S_9  and  C_12
REMARK    4  A    between atoms: C_15  and  C_18
REMARK    5  A    between atoms: C_21  and  C_24
REMARK                            x       y       z     vdW  Elec       q    Type
REMARK                         _______ _______ _______ _____ _____    ______ ____
ROOT
ATOM      1  C   UNL     1       0.067  -3.074   5.062  0.00  0.00    +0.113 A 
ATOM      2  C   UNL     1      -1.124  -3.561   5.570  0.00  0.00    +0.029 A 
ATOM      3  C   UNL     1      -1.113  -4.496   6.586  0.00  0.00    +0.010 A 
ATOM      4  C   UNL     1       0.101  -4.950   7.098  0.00  0.00    -0.018 A 
ATOM      5  C   UNL     1       1.298  -4.456   6.582  0.00  0.00    +0.010 A 
ATOM      6  C   UNL     1       1.275  -3.525   5.563  0.00  0.00    +0.029 A 
ENDROOT
BRANCH   4   7
ATOM      7  C   UNL     1       0.119  -5.954   8.190  0.00  0.00    -0.018 A 
ATOM      8  C   UNL     1      -1.081  -6.450   8.700  0.00  0.00    +0.010 A 
ATOM      9  C   UNL     1      -1.065  -7.382   9.713  0.00  0.00    +0.019 A 
ATOM     10  C   UNL     1       0.153  -7.831  10.230  0.00  0.00    +0.052 A 
ATOM     11  C   UNL     1       1.354  -7.334   9.717  0.00  0.00    +0.019 A 
ATOM     12  C   UNL     1       1.336  -6.406   8.700  0.00  0.00    +0.010 A 
BRANCH  10  13
ATOM     13  C   UNL     1       0.171  -8.801  11.284  0.00  0.00    +0.099 C 
ATOM     14  N   UNL     1       0.185  -9.569  12.120  0.00  0.00    -0.191 NA
ENDBRANCH  10  13
ENDBRANCH   4   7
BRANCH   1  15
ATOM     15  S   UNL     1       0.045  -1.881   3.766  0.00  0.00    +0.101 S 
ATOM     16  O   UNL     1       1.282  -1.184   3.835  0.00  0.00    -0.146 OA
ATOM     17  O   UNL     1      -1.209  -1.217   3.846  0.00  0.00    -0.146 OA
BRANCH  15  25
ATOM     18  C   UNL     1      -0.018   1.503   0.010  0.00  0.00    +0.063 C 
ATOM     19  C   UNL     1       0.002  -0.004   0.002  0.00  0.00    +0.015 A 
ATOM     20  C   UNL     1       0.005  -0.665  -1.175  0.00  0.00    +0.021 A 
ATOM     21  C   UNL     1       0.024  -2.070  -1.202  0.00  0.00    +0.005 A 
ATOM     22  C   UNL     1       0.039  -2.765  -0.034  0.00  0.00    +0.048 A 
ATOM     23  C   UNL     1       0.036  -2.058   1.192  0.00  0.00    +0.153 A 
ATOM     24  N   UNL     1       0.022  -0.684   1.183  0.00  0.00    -0.343 N 
ATOM     25  N   UNL     1       0.050  -2.713   2.334  0.00  0.00    -0.111 NA
ATOM     26  H   UNL     1       0.024  -0.196   2.021  0.00  0.00    +0.167 HD
ENDBRANCH  15  25
ENDBRANCH   1  15
TORSDOF 4
