REMARK  Name = ZINC64416527
REMARK  6 active torsions:
REMARK  status: ('A' for Active; 'I' for Inactive)
REMARK    1  A    between atoms: C_7  and  C_10
REMARK    2  A    between atoms: C_10  and  C_11
REMARK    3  A    between atoms: C_11  and  N_12
REMARK    4  A    between atoms: C_13  and  C_15
REMARK    5  A    between atoms: C_15  and  O_16
REMARK    6  A    between atoms: O_16  and  C_17
REMARK                            x       y       z     vdW  Elec       q    Type
REMARK                         _______ _______ _______ _____ _____    ______ ____
ROOT
ATOM      1  C   UNL     1      -1.752  -6.557  -2.622  0.00  0.00    +0.324 C 
ENDROOT
BRANCH   1   3
ATOM      2  N   UNL     1      -0.458  -4.798  -1.460  0.00  0.00    -0.312 N 
ATOM      3  C   UNL     1      -0.811  -5.380  -2.623  0.00  0.00    +0.251 C 
ATOM      4  O   UNL     1      -0.371  -4.957  -3.671  0.00  0.00    -0.272 OA
ATOM      5  H   UNL     1      -0.810  -5.136  -0.622  0.00  0.00    +0.149 HD
BRANCH   2   6
ATOM      6  C   UNL     1       0.457  -3.653  -1.462  0.00  0.00    +0.108 C 
BRANCH   6   7
ATOM      7  C   UNL     1       0.691  -3.186  -0.024  0.00  0.00    +0.052 C 
BRANCH   7  14
ATOM      8  C   UNL     1      -0.016   1.348   0.009  0.00  0.00    +0.001 A 
ATOM      9  C   UNL     1       1.166   2.101   0.002  0.00  0.00    +0.002 A 
ATOM     10  C   UNL     1       2.391   1.535  -0.013  0.00  0.00    +0.026 A 
ATOM     11  C   UNL     1       2.529   0.120  -0.022  0.00  0.00    +0.043 A 
ATOM     12  N   UNL     1       3.587  -0.654  -0.037  0.00  0.00    -0.380 N 
ATOM     13  C   UNL     1       3.143  -2.053  -0.041  0.00  0.00    +0.144 C 
ATOM     14  C   UNL     1       1.631  -2.008  -0.025  0.00  0.00    -0.040 C 
ATOM     15  C   UNL     1       1.295  -0.698  -0.014  0.00  0.00    -0.001 A 
ATOM     16  C   UNL     1       0.002  -0.004   0.002  0.00  0.00    +0.010 A 
ATOM     17  H   UNL     1       4.509  -0.353  -0.045  0.00  0.00    +0.160 HD
ENDBRANCH   7  14
ENDBRANCH   6   7
ENDBRANCH   2   6
ENDBRANCH   1   3
BRANCH   1  18
ATOM     18  O   UNL     1      -1.970  -6.994  -3.965  0.00  0.00    -0.483 OA
BRANCH  18  19
ATOM     19  C   UNL     1      -2.802  -8.056  -4.141  0.00  0.00    +0.122 A 
ATOM     20  C   UNL     1      -3.398  -8.659  -3.039  0.00  0.00    +0.047 A 
ATOM     21  C   UNL     1      -4.241  -9.740  -3.201  0.00  0.00    +0.027 A 
ATOM     22  C   UNL     1      -4.500 -10.229  -4.473  0.00  0.00    +0.041 A 
ATOM     23  C   UNL     1      -3.905  -9.619  -5.589  0.00  0.00    +0.061 A 
ATOM     24  C   UNL     1      -3.055  -8.528  -5.416  0.00  0.00    +0.060 A 
ATOM     25  C   UNL     1      -4.210 -10.141  -6.939  0.00  0.00    +0.250 C 
ATOM     26  O   UNL     1      -3.618  -9.743  -7.923  0.00  0.00    -0.270 OA
ATOM     27  N   UNL     1      -5.177 -11.081  -7.028  0.00  0.00    -0.279 N 
ATOM     28  C   UNL     1      -5.481 -11.941  -8.174  0.00  0.00    +0.110 C 
ATOM     29  C   UNL     1      -6.592 -12.917  -7.729  0.00  0.00    +0.022 C 
ATOM     30  C   UNL     1      -6.476 -12.899  -6.180  0.00  0.00    +0.044 C 
ATOM     31  C   UNL     1      -6.091 -11.424  -5.918  0.00  0.00    +0.161 C 
ATOM     32  N   UNL     1      -5.340 -11.327  -4.660  0.00  0.00    -0.325 N 
ATOM     33  H   UNL     1      -5.427 -12.009  -3.975  0.00  0.00    +0.148 HD
ENDBRANCH  18  19
ENDBRANCH   1  18
TORSDOF 6
