REMARK  Name = ZINC38558312
REMARK  6 active torsions:
REMARK  status: ('A' for Active; 'I' for Inactive)
REMARK    1  A    between atoms: C_4  and  C_7
REMARK    2  A    between atoms: C_7  and  C_9
REMARK    3  A    between atoms: C_7  and  O_34
REMARK    4  A    between atoms: C_9  and  N_10
REMARK    5  A    between atoms: C_11  and  C_13
REMARK    6  A    between atoms: C_25  and  C_27
REMARK                            x       y       z     vdW  Elec       q    Type
REMARK                         _______ _______ _______ _____ _____    ______ ____
ROOT
ATOM      1  C   UNL     1       7.231  -3.101   2.562  0.00  0.00    +0.126 C 
ATOM      2  C   UNL     1       7.834  -3.443   3.774  0.00  0.00    +0.039 C 
ATOM      3  C   UNL     1       9.209  -3.622   3.740  0.00  0.00    -0.008 C 
ATOM      4  C   UNL     1      10.115  -4.243   4.558  0.00  0.00    +0.004 A 
ATOM      5  C   UNL     1      10.023  -4.719   5.886  0.00  0.00    +0.010 A 
ATOM      6  C   UNL     1      11.122  -5.346   6.394  0.00  0.00    +0.001 A 
ATOM      7  C   UNL     1      12.303  -5.531   5.674  0.00  0.00    +0.002 A 
ATOM      8  C   UNL     1      12.483  -5.084   4.401  0.00  0.00    +0.026 A 
ATOM      9  C   UNL     1      11.389  -4.398   3.800  0.00  0.00    +0.044 A 
ATOM     10  N   UNL     1      11.305  -3.817   2.629  0.00  0.00    -0.372 N 
ATOM     11  C   UNL     1      10.037  -3.126   2.565  0.00  0.00    +0.160 C 
ATOM     12  C   UNL     1       9.223  -3.228   1.324  0.00  0.00    +0.076 C 
ATOM     13  N   UNL     1       7.914  -3.145   1.407  0.00  0.00    -0.244 NA
ATOM     14  H   UNL     1      11.975  -3.845   1.929  0.00  0.00    +0.161 HD
ENDROOT
BRANCH  12  15
ATOM     15  C   UNL     1       9.873  -3.426   0.022  0.00  0.00    -0.000 A 
ATOM     16  C   UNL     1       9.177  -4.039  -1.027  0.00  0.00    +0.010 A 
ATOM     17  C   UNL     1       9.794  -4.221  -2.245  0.00  0.00    +0.002 A 
ATOM     18  C   UNL     1      11.099  -3.799  -2.435  0.00  0.00    +0.015 A 
ATOM     19  C   UNL     1      11.795  -3.191  -1.403  0.00  0.00    +0.018 A 
ATOM     20  C   UNL     1      11.191  -2.997  -0.179  0.00  0.00    +0.025 A 
ATOM     21 BR   UNL     1      13.577  -2.620  -1.676  0.00  0.00    -0.050 Br
ENDBRANCH  12  15
BRANCH   1  23
ATOM     22  N   UNL     1       5.214  -2.359   1.386  0.00  0.00    -0.307 N 
ATOM     23  C   UNL     1       5.810  -2.687   2.549  0.00  0.00    +0.262 C 
ATOM     24  O   UNL     1       5.181  -2.643   3.588  0.00  0.00    -0.269 OA
ATOM     25  H   UNL     1       5.716  -2.394   0.557  0.00  0.00    +0.149 HD
BRANCH  22  26
ATOM     26  C   UNL     1       3.808  -1.950   1.373  0.00  0.00    +0.140 C 
BRANCH  26  27
ATOM     27  C   UNL     1       3.381  -1.635  -0.062  0.00  0.00    +0.162 C 
BRANCH  27  31
ATOM     28  C   UNL     1      -0.610  -0.110  -0.061  0.00  0.00    +0.000 A 
ATOM     29  C   UNL     1       0.462   0.758  -0.150  0.00  0.00    +0.000 A 
ATOM     30  C   UNL     1       1.753   0.265  -0.151  0.00  0.00    +0.006 A 
ATOM     31  C   UNL     1       1.973  -1.097  -0.060  0.00  0.00    -0.018 A 
ATOM     32  C   UNL     1       0.901  -1.965   0.030  0.00  0.00    +0.006 A 
ATOM     33  C   UNL     1      -0.390  -1.472   0.029  0.00  0.00    +0.000 A 
ENDBRANCH  27  31
BRANCH  27  34
ATOM     34  O   UNL     1       3.434  -2.827  -0.847  0.00  0.00    -0.386 OA
ATOM     35  H   UNL     1       2.859  -3.535  -0.527  0.00  0.00    +0.210 HD
ENDBRANCH  27  34
ENDBRANCH  26  27
ENDBRANCH  22  26
ENDBRANCH   1  23
TORSDOF 6
