REMARK  Name = ZINC11571573
REMARK  11 active torsions:
REMARK  status: ('A' for Active; 'I' for Inactive)
REMARK    1  A    between atoms: C_1  and  C_2
REMARK    2  A    between atoms: C_2  and  C_3
REMARK    3  A    between atoms: C_3  and  C_4
REMARK    4  A    between atoms: C_4  and  N_5
REMARK    5  A    between atoms: C_6  and  N_33
REMARK    6  A    between atoms: C_7  and  N_14
REMARK    7  A    between atoms: N_14  and  C_15
REMARK    8  A    between atoms: C_20  and  C_22
REMARK    9  A    between atoms: C_22  and  S_23
REMARK   10  A    between atoms: S_23  and  C_24
REMARK   11  A    between atoms: C_27  and  C_30
REMARK                            x       y       z     vdW  Elec       q    Type
REMARK                         _______ _______ _______ _____ _____    ______ ____
ROOT
ATOM      1  N   UNL     1       5.855   4.314  -0.090  0.00  0.00    -0.260 N 
ATOM      2  C   UNL     1       5.615   3.025   0.229  0.00  0.00    +0.231 C 
ATOM      3  O   UNL     1       6.540   2.280   0.477  0.00  0.00    -0.274 OA
ENDROOT
BRANCH   1   6
ATOM      4  N   UNL     1       9.259   4.758  -1.400  0.00  0.00    -0.280 N 
ATOM      5  C   UNL     1       7.969   4.297  -1.275  0.00  0.00    +0.127 A 
ATOM      6  C   UNL     1       7.182   4.768  -0.244  0.00  0.00    +0.140 A 
ATOM      7  C   UNL     1       7.724   5.713   0.647  0.00  0.00    +0.277 A 
ATOM      8  O   UNL     1       7.048   6.150   1.564  0.00  0.00    -0.266 OA
ATOM      9  N   UNL     1       8.995   6.129   0.483  0.00  0.00    -0.273 N 
ATOM     10  H   UNL     1       9.383   6.794   1.120  0.00  0.00    +0.173 HD
ATOM     11  C   UNL     1       9.747   5.658  -0.528  0.00  0.00    +0.331 A 
ATOM     12  O   UNL     1      10.890   6.053  -0.655  0.00  0.00    -0.246 OA
BRANCH   5  13
ATOM     13  N   UNL     1       7.470   3.378  -2.167  0.00  0.00    -0.343 N 
ATOM     14  H   UNL     1       6.534   3.124  -2.130  0.00  0.00    +0.144 HD
ATOM     15  H   UNL     1       8.053   2.982  -2.833  0.00  0.00    +0.144 HD
ENDBRANCH   5  13
BRANCH   4  16
ATOM     16  C   UNL     1      10.106   4.266  -2.490  0.00  0.00    +0.128 C 
BRANCH  16  17
ATOM     17  C   UNL     1       9.935   5.167  -3.715  0.00  0.00    +0.021 C 
BRANCH  17  19
ATOM     18  C   UNL     1      10.649   5.553  -6.078  0.00  0.00    +0.004 C 
ATOM     19  C   UNL     1      10.820   4.652  -4.852  0.00  0.00    -0.002 C 
ENDBRANCH  17  19
ENDBRANCH  16  17
ENDBRANCH   4  16
ENDBRANCH   1   6
BRANCH   1  20
ATOM     20  C   UNL     1       4.737   5.243  -0.276  0.00  0.00    +0.082 C 
ATOM     21  C   UNL     1       3.927   5.364   1.032  0.00  0.00    +0.023 C 
ATOM     22  C   UNL     1       2.457   5.479   0.558  0.00  0.00    +0.002 C 
ATOM     23  C   UNL     1       2.408   4.507  -0.647  0.00  0.00    +0.002 C 
ATOM     24  C   UNL     1       3.771   4.699  -1.343  0.00  0.00    +0.023 C 
ENDBRANCH   1  20
BRANCH   2  25
ATOM     25  C   UNL     1       4.199   2.512   0.277  0.00  0.00    +0.173 C 
BRANCH  25  26
ATOM     26  S   UNL     1       4.192   0.821   0.924  0.00  0.00    -0.077 S 
BRANCH  26  27
ATOM     27  C   UNL     1       2.464   0.481   0.872  0.00  0.00    +0.189 A 
ATOM     28  N   UNL     1       1.853  -0.679   1.253  0.00  0.00    -0.320 N 
ATOM     29  H   UNL     1       2.279  -1.477   1.604  0.00  0.00    +0.169 HD
ATOM     30  C   UNL     1       0.517  -0.483   1.036  0.00  0.00    +0.135 A 
ATOM     31  N   UNL     1       0.374   0.721   0.559  0.00  0.00    -0.133 NA
ATOM     32  N   UNL     1       1.520   1.295   0.460  0.00  0.00    -0.123 NA
BRANCH  30  33
ATOM     33  C   UNL     1      -0.585  -1.476   1.300  0.00  0.00    +0.057 C 
ATOM     34  C   UNL     1      -0.186  -2.940   1.494  0.00  0.00    +0.012 C 
ATOM     35  C   UNL     1      -0.888  -2.502   0.206  0.00  0.00    +0.012 C 
ENDBRANCH  30  33
ENDBRANCH  26  27
ENDBRANCH  25  26
ENDBRANCH   2  25
TORSDOF 10
