REMARK  Name = ZINC64774320
REMARK  10 active torsions:
REMARK  status: ('A' for Active; 'I' for Inactive)
REMARK    1  A    between atoms: C_1  and  C_2
REMARK    2  A    between atoms: C_2  and  C_3
REMARK    3  A    between atoms: C_3  and  S_4
REMARK    4  A    between atoms: S_4  and  C_5
REMARK    5  A    between atoms: C_11  and  C_19
REMARK    6  A    between atoms: C_23  and  O_29
REMARK    7  A    between atoms: C_24  and  O_25
REMARK    8  A    between atoms: O_25  and  C_26
REMARK    9  A    between atoms: C_26  and  C_27
REMARK   10  A    between atoms: O_29  and  C_30
REMARK                            x       y       z     vdW  Elec       q    Type
REMARK                         _______ _______ _______ _____ _____    ______ ____
ROOT
ATOM      1  C   UNL     1      -3.355  -2.828   0.196  0.00  0.00    +0.182 C 
ATOM      2  N   UNL     1      -4.280  -1.884   0.179  0.00  0.00    -0.154 NA
ATOM      3  C   UNL     1      -5.584  -2.168   0.171  0.00  0.00    +0.249 C 
ATOM      4  O   UNL     1      -6.428  -1.294   0.129  0.00  0.00    -0.273 OA
ATOM      5  C   UNL     1      -5.961  -3.635   0.217  0.00  0.00    +0.148 C 
ATOM      6  C   UNL     1      -6.871  -3.933  -0.976  0.00  0.00    +0.050 C 
ATOM      7  C   UNL     1      -7.395  -5.365  -0.844  0.00  0.00    +0.105 C 
ATOM      8  C   UNL     1      -6.276  -6.325  -0.561  0.00  0.00    +0.219 C 
ATOM      9  O   UNL     1      -6.457  -7.505  -0.772  0.00  0.00    -0.275 OA
ATOM     10  N   UNL     1      -5.082  -5.934  -0.085  0.00  0.00    -0.273 N 
ATOM     11  C   UNL     1      -4.808  -4.617   0.127  0.00  0.00    +0.117 C 
ATOM     12  N   UNL     1      -3.594  -4.143   0.137  0.00  0.00    -0.212 NA
ATOM     13  H   UNL     1      -4.409  -6.599   0.126  0.00  0.00    +0.156 HD
ENDROOT
BRANCH   6  14
ATOM     14  C   UNL     1      -6.089  -3.793  -2.256  0.00  0.00    +0.003 A 
ATOM     15  C   UNL     1      -4.962  -4.567  -2.467  0.00  0.00    +0.008 A 
ATOM     16  C   UNL     1      -4.243  -4.440  -3.640  0.00  0.00    +0.004 A 
ATOM     17  C   UNL     1      -4.646  -3.539  -4.608  0.00  0.00    +0.049 A 
ATOM     18  C   UNL     1      -5.774  -2.761  -4.404  0.00  0.00    +0.162 A 
ATOM     19  C   UNL     1      -6.502  -2.893  -3.225  0.00  0.00    +0.166 A 
BRANCH  18  20
ATOM     20  O   UNL     1      -6.172  -1.875  -5.355  0.00  0.00    -0.491 OA
ATOM     21  C   UNL     1      -5.380  -1.798  -6.542  0.00  0.00    +0.277 C 
ENDBRANCH  18  20
BRANCH  19  22
ATOM     22  O   UNL     1      -7.613  -2.135  -3.022  0.00  0.00    -0.484 OA
BRANCH  22  23
ATOM     23  C   UNL     1      -7.410  -0.791  -2.582  0.00  0.00    +0.256 C 
BRANCH  23  24
ATOM     24  C   UNL     1      -8.742  -0.156  -2.278  0.00  0.00    +0.006 C 
ATOM     25  C   UNL     1      -8.899   0.545  -1.182  0.00  0.00    +0.007 C 
ENDBRANCH  23  24
ENDBRANCH  22  23
ENDBRANCH  19  22
ENDBRANCH   6  14
BRANCH   1  26
ATOM     26  S   UNL     1      -1.672  -2.313   0.295  0.00  0.00    -0.089 S 
BRANCH  26  27
ATOM     27  C   UNL     1      -1.770  -0.502   0.355  0.00  0.00    +0.077 C 
BRANCH  27  29
ATOM     28  C   UNL     1      -0.441   1.609   0.495  0.00  0.00    +0.004 C 
ATOM     29  C   UNL     1      -0.359   0.082   0.444  0.00  0.00    +0.008 C 
ENDBRANCH  27  29
ENDBRANCH  26  27
ENDBRANCH   1  26
TORSDOF 8
