REMARK  Name = ZINC02519582
REMARK  11 active torsions:
REMARK  status: ('A' for Active; 'I' for Inactive)
REMARK    1  A    between atoms: C_1  and  N_56
REMARK    2  A    between atoms: C_2  and  N_56
REMARK    3  A    between atoms: C_3  and  C_4
REMARK    4  A    between atoms: C_3  and  N_56
REMARK    5  A    between atoms: C_7  and  C_10
REMARK    6  A    between atoms: C_14  and  C_23
REMARK    7  A    between atoms: C_17  and  C_19
REMARK    8  A    between atoms: C_26  and  C_29
REMARK    9  A    between atoms: C_29  and  N_58
REMARK   10  A    between atoms: C_30  and  N_58
REMARK   11  A    between atoms: C_31  and  N_58
REMARK                            x       y       z     vdW  Elec       q    Type
REMARK                         _______ _______ _______ _____ _____    ______ ____
ROOT
ATOM      1  C   UNL     1       1.722   3.261   0.003  0.00  0.00    +0.124 C 
ATOM      2  C   UNL     1       1.669   3.841   1.438  0.00  0.00    +0.031 C 
ATOM      3  C   UNL     1       1.541   5.362   1.156  0.00  0.00    +0.031 C 
ATOM      4  C   UNL     1       0.663   5.404  -0.113  0.00  0.00    +0.124 C 
ATOM      5  N   UNL     1       0.792   4.098  -0.777  0.00  0.00    -0.277 N 
ATOM      6  C   UNL     1       0.163   3.728  -1.910  0.00  0.00    +0.321 C 
ATOM      7  O   UNL     1       0.345   2.621  -2.370  0.00  0.00    -0.266 OA
ENDROOT
BRANCH   1  11
ATOM      8  C   UNL     1       1.294  -0.390  -0.012  0.00  0.00    -0.000 A 
ATOM      9  C   UNL     1       0.002  -0.004   0.002  0.00  0.00    +0.021 A 
ATOM     10  C   UNL     1      -0.017   1.405   0.010  0.00  0.00    +0.024 A 
ATOM     11  C   UNL     1       1.264   1.826  -0.000  0.00  0.00    +0.037 A 
ATOM     12  N   UNL     1       2.073   0.729  -0.014  0.00  0.00    -0.362 N 
ATOM     13  H   UNL     1       3.043   0.742  -0.023  0.00  0.00    +0.165 HD
BRANCH   8  14
ATOM     14  C   UNL     1       1.791  -1.813  -0.025  0.00  0.00    -0.025 C 
BRANCH  14  17
ATOM     15  C   UNL     1       3.168  -1.463  -1.985  0.00  0.00    -0.096 C 
ATOM     16  C   UNL     1       2.311  -3.672  -1.486  0.00  0.00    -0.096 C 
ATOM     17  N   UNL     1       2.030  -2.222  -1.425  0.00  0.00    +0.380 N 
ATOM     18  H   UNL     1       1.190  -2.021  -1.979  0.00  0.00    -0.082 HD
ENDBRANCH  14  17
ENDBRANCH   8  14
ENDBRANCH   1  11
BRANCH   4  19
ATOM     19  C   UNL     1       1.146   6.496  -1.033  0.00  0.00    +0.037 A 
ATOM     20  C   UNL     1       2.164   6.397  -1.912  0.00  0.00    +0.024 A 
ATOM     21  C   UNL     1       2.278   7.640  -2.566  0.00  0.00    +0.021 A 
ATOM     22  C   UNL     1       1.325   8.450  -2.063  0.00  0.00    -0.000 A 
ATOM     23  N   UNL     1       0.624   7.752  -1.125  0.00  0.00    -0.362 N 
ATOM     24  H   UNL     1      -0.122   8.094  -0.607  0.00  0.00    +0.165 HD
BRANCH  22  25
ATOM     25  C   UNL     1       1.075   9.879  -2.470  0.00  0.00    -0.025 C 
BRANCH  25  28
ATOM     26  C   UNL     1      -1.266   9.483  -2.942  0.00  0.00    -0.096 C 
ATOM     27  C   UNL     1      -0.084  11.260  -4.087  0.00  0.00    -0.096 C 
ATOM     28  N   UNL     1       0.030   9.901  -3.515  0.00  0.00    +0.380 N 
ATOM     29  H   UNL     1       0.292   9.246  -4.262  0.00  0.00    -0.082 HD
ENDBRANCH  25  28
ENDBRANCH  22  25
ENDBRANCH   4  19
BRANCH   6  30
ATOM     30  C   UNL     1      -0.765   4.690  -2.605  0.00  0.00    +0.470 C 
ATOM     31  F   UNL     1      -1.294   4.083  -3.750  0.00  0.00    -0.162 F 
ATOM     32  F   UNL     1      -1.807   5.041  -1.740  0.00  0.00    -0.162 F 
ATOM     33  F   UNL     1      -0.057   5.839  -2.972  0.00  0.00    -0.162 F 
ENDBRANCH   6  30
TORSDOF 7
