REMARK  Name = ZINC33937352
REMARK  12 active torsions:
REMARK  status: ('A' for Active; 'I' for Inactive)
REMARK    1  A    between atoms: C_1  and  C_2
REMARK    2  A    between atoms: C_2  and  C_3
REMARK    3  A    between atoms: C_3  and  C_4
REMARK    4  A    between atoms: C_4  and  C_6
REMARK    5  A    between atoms: C_4  and  N_18
REMARK    6  A    between atoms: N_10  and  C_11
REMARK    7  A    between atoms: C_11  and  C_12
REMARK    8  A    between atoms: N_18  and  C_19
REMARK    9  A    between atoms: N_18  and  C_29
REMARK   10  A    between atoms: C_19  and  C_20
REMARK   11  A    between atoms: C_29  and  C_30
REMARK   12  A    between atoms: C_36  and  C_42
REMARK                            x       y       z     vdW  Elec       q    Type
REMARK                         _______ _______ _______ _____ _____    ______ ____
ROOT
ATOM      1  N   UNL     1       2.017  -2.596   0.479  0.00  0.00    +0.392 N 
ATOM      2  H   UNL     1       2.932  -2.197   0.333  0.00  0.00    -0.080 HD
ENDROOT
BRANCH   1   3
ATOM      3  C   UNL     1       1.086  -2.066  -0.527  0.00  0.00    +0.003 C 
BRANCH   3   4
ATOM      4  C   UNL     1      -0.288  -2.636  -0.289  0.00  0.00    +0.138 A 
ATOM      5  N   UNL     1      -0.579  -3.879   0.007  0.00  0.00    -0.115 NA
ATOM      6  N   UNL     1      -1.858  -3.970   0.132  0.00  0.00    -0.023 NA
ATOM      7  N   UNL     1      -2.391  -2.817  -0.078  0.00  0.00    -0.044 NA
ATOM      8  N   UNL     1      -1.455  -1.967  -0.336  0.00  0.00    -0.228 N 
BRANCH   8   9
ATOM      9  C   UNL     1      -1.630  -0.542  -0.627  0.00  0.00    +0.178 C 
BRANCH   9  10
ATOM     10  C   UNL     1      -1.971  -0.362  -2.108  0.00  0.00    +0.140 C 
ATOM     11  C   UNL     1      -2.250   1.130  -2.418  0.00  0.00    +0.035 C 
ATOM     12  C   UNL     1      -1.924   1.181  -3.936  0.00  0.00    +0.031 C 
ATOM     13  C   UNL     1      -0.770   0.162  -4.058  0.00  0.00    +0.160 C 
ATOM     14  O   UNL     1      -0.844  -0.714  -2.925  0.00  0.00    -0.375 OA
ENDBRANCH   9  10
ENDBRANCH   8   9
ENDBRANCH   3   4
BRANCH   3  15
ATOM     15  C   UNL     1       1.567  -2.459  -1.925  0.00  0.00    -0.008 C 
BRANCH  15  17
ATOM     16  C   UNL     1       3.464  -2.304  -3.543  0.00  0.00    +0.004 C 
ATOM     17  C   UNL     1       2.932  -1.821  -2.193  0.00  0.00    -0.005 C 
ENDBRANCH  15  17
ENDBRANCH   3  15
ENDBRANCH   1   3
BRANCH   1  18
ATOM     18  C   UNL     1       1.537  -2.245   1.823  0.00  0.00    -0.041 C 
BRANCH  18  19
ATOM     19  C   UNL     1       1.607  -0.750   2.006  0.00  0.00    -0.060 A 
ATOM     20  C   UNL     1       2.797  -0.157   2.382  0.00  0.00    +0.005 A 
ATOM     21  C   UNL     1       2.866   1.214   2.551  0.00  0.00    +0.050 A 
ATOM     22  C   UNL     1       1.741   1.995   2.345  0.00  0.00    +0.166 A 
ATOM     23  C   UNL     1       0.542   1.397   1.966  0.00  0.00    +0.166 A 
ATOM     24  C   UNL     1       0.482   0.024   1.793  0.00  0.00    +0.051 A 
ATOM     25  O   UNL     1      -0.406   2.369   1.827  0.00  0.00    -0.453 OA
ATOM     26  C   UNL     1       0.118   3.518   2.519  0.00  0.00    +0.466 C 
ATOM     27  O   UNL     1       1.545   3.343   2.443  0.00  0.00    -0.453 OA
ENDBRANCH  18  19
ENDBRANCH   1  18
BRANCH   1  28
ATOM     28  C   UNL     1       2.094  -4.057   0.353  0.00  0.00    -0.036 C 
BRANCH  28  29
ATOM     29  C   UNL     1       3.157  -4.586   1.280  0.00  0.00    +0.001 A 
ATOM     30  C   UNL     1       2.811  -5.061   2.503  0.00  0.00    +0.017 A 
ATOM     31  C   UNL     1       3.868  -5.569   3.380  0.00  0.00    -0.001 A 
ATOM     32  C   UNL     1       3.573  -6.072   4.652  0.00  0.00    +0.010 A 
ATOM     33  C   UNL     1       4.582  -6.538   5.446  0.00  0.00    +0.001 A 
ATOM     34  C   UNL     1       5.898  -6.517   5.002  0.00  0.00    +0.005 A 
ATOM     35  C   UNL     1       6.211  -6.025   3.754  0.00  0.00    -0.026 A 
ATOM     36  C   UNL     1       5.200  -5.546   2.927  0.00  0.00    +0.052 A 
ATOM     37  N   UNL     1       5.486  -5.049   1.673  0.00  0.00    -0.322 N 
ATOM     38  H   UNL     1       6.404  -5.034   1.362  0.00  0.00    +0.169 HD
ATOM     39  C   UNL     1       4.508  -4.590   0.872  0.00  0.00    +0.251 A 
ATOM     40  O   UNL     1       4.796  -4.163  -0.233  0.00  0.00    -0.268 OA
ATOM     41  C   UNL     1       7.644  -6.007   3.286  0.00  0.00    +0.046 C 
ENDBRANCH  28  29
ENDBRANCH   1  28
TORSDOF 10
