REMARK  Name = ZINC21690642
REMARK  7 active torsions:
REMARK  status: ('A' for Active; 'I' for Inactive)
REMARK    1  A    between atoms: C_1  and  C_2
REMARK    2  A    between atoms: C_6  and  N_9
REMARK    3  A    between atoms: C_7  and  C_8
REMARK    4  A    between atoms: C_10  and  C_12
REMARK    5  A    between atoms: N_14  and  C_15
REMARK    6  A    between atoms: C_15  and  C_16
REMARK    7  A    between atoms: C_16  and  C_22
REMARK                            x       y       z     vdW  Elec       q    Type
REMARK                         _______ _______ _______ _____ _____    ______ ____
ROOT
ATOM      1  C   UNL     1      -4.627   2.289   2.379  0.00  0.00    +0.299 C 
ATOM      2  O   UNL     1      -5.001   3.144   3.155  0.00  0.00    -0.265 OA
ATOM      3  N   UNL     1      -3.752   2.602   1.403  0.00  0.00    -0.307 N 
ATOM      4  H   UNL     1      -3.413   1.827   0.699  0.00  0.00    +0.149 HD
ENDROOT
BRANCH   1   6
ATOM      5  N   UNL     1      -6.011   0.579   3.482  0.00  0.00    -0.278 N 
ATOM      6  C   UNL     1      -5.136   0.891   2.506  0.00  0.00    +0.303 C 
ATOM      7  O   UNL     1      -4.762   0.036   1.730  0.00  0.00    -0.265 OA
ATOM      8  H   UNL     1      -6.280   1.329   4.241  0.00  0.00    +0.155 HD
BRANCH   5  14
ATOM      9  C   UNL     1      -8.100  -3.026   6.090  0.00  0.00    +0.044 C 
ATOM     10  C   UNL     1      -7.597  -2.471   4.782  0.00  0.00    -0.046 A 
ATOM     11  C   UNL     1      -7.696  -3.227   3.628  0.00  0.00    +0.004 A 
ATOM     12  C   UNL     1      -7.236  -2.722   2.426  0.00  0.00    +0.002 A 
ATOM     13  C   UNL     1      -6.677  -1.460   2.374  0.00  0.00    +0.023 A 
ATOM     14  C   UNL     1      -6.577  -0.698   3.531  0.00  0.00    +0.037 A 
ATOM     15  C   UNL     1      -7.035  -1.211   4.739  0.00  0.00    -0.026 A 
ATOM     16  C   UNL     1      -6.923  -0.391   5.998  0.00  0.00    +0.046 C 
ENDBRANCH   5  14
ENDBRANCH   1   6
BRANCH   3  17
ATOM     17  C   UNL     1      -3.253   3.974   1.278  0.00  0.00    +0.116 C 
BRANCH  17  18
ATOM     18  C   UNL     1      -2.380   4.087   0.027  0.00  0.00    +0.022 C 
ATOM     19  C   UNL     1      -1.754   5.484  -0.039  0.00  0.00    +0.042 C 
ATOM     20  C   UNL     1      -0.837   5.681   1.171  0.00  0.00    +0.161 C 
ATOM     21  O   UNL     1       0.161   4.659   1.183  0.00  0.00    -0.380 OA
ATOM     22  C   UNL     1      -0.363   3.334   1.291  0.00  0.00    +0.161 C 
ATOM     23  C   UNL     1      -1.262   3.041   0.086  0.00  0.00    +0.042 C 
BRANCH  18  24
ATOM     24  C   UNL     1      -3.223   3.854  -1.200  0.00  0.00    -0.002 A 
ATOM     25  C   UNL     1      -4.356   4.487  -1.589  0.00  0.00    +0.012 A 
ATOM     26  C   UNL     1      -4.971   4.099  -2.765  0.00  0.00    +0.008 A 
ATOM     27  C   UNL     1      -4.416   3.104  -3.499  0.00  0.00    +0.045 A 
ATOM     28  S   UNL     1      -2.985   2.677  -2.521  0.00  0.00    -0.101 S 
ENDBRANCH  18  24
ENDBRANCH  17  18
ENDBRANCH   3  17
TORSDOF 5
