REMARK  Name = ZINC09220060
REMARK  11 active torsions:
REMARK  status: ('A' for Active; 'I' for Inactive)
REMARK    1  A    between atoms: C_1  and  C_2
REMARK    2  A    between atoms: C_5  and  C_35
REMARK    3  A    between atoms: C_6  and  S_8
REMARK    4  A    between atoms: S_8  and  N_11
REMARK    5  A    between atoms: N_11  and  C_12
REMARK    6  A    between atoms: C_15  and  C_18
REMARK    7  A    between atoms: N_20  and  C_21
REMARK    8  A    between atoms: C_21  and  C_22
REMARK    9  A    between atoms: C_22  and  C_24
REMARK   10  A    between atoms: C_22  and  N_66
REMARK   11  A    between atoms: C_27  and  C_29
REMARK                            x       y       z     vdW  Elec       q    Type
REMARK                         _______ _______ _______ _____ _____    ______ ____
ROOT
ATOM      1  C   UNL     1      -2.818   1.978  -1.890  0.00  0.00    +0.048 A 
ATOM      2  C   UNL     1      -2.568   2.091  -0.525  0.00  0.00    +0.025 A 
ATOM      3  C   UNL     1      -2.623   3.322   0.086  0.00  0.00    +0.015 A 
ATOM      4  C   UNL     1      -2.941   4.459  -0.662  0.00  0.00    +0.037 A 
ATOM      5  C   UNL     1      -3.197   4.342  -2.031  0.00  0.00    +0.015 A 
ATOM      6  C   UNL     1      -3.136   3.109  -2.638  0.00  0.00    +0.025 A 
ENDROOT
BRANCH   4   7
ATOM      7  C   UNL     1      -3.006   5.780  -0.008  0.00  0.00    +0.244 C 
ATOM      8  O   UNL     1      -3.282   6.768  -0.660  0.00  0.00    -0.270 OA
ATOM      9  N   UNL     1      -2.758   5.891   1.313  0.00  0.00    -0.312 N 
ATOM     10  H   UNL     1      -2.538   5.102   1.833  0.00  0.00    +0.149 HD
BRANCH   9  11
ATOM     11  C   UNL     1      -2.822   7.202   1.962  0.00  0.00    +0.097 C 
BRANCH  11  12
ATOM     12  C   UNL     1      -2.503   7.051   3.451  0.00  0.00    +0.017 C 
BRANCH  12  18
ATOM     13  C   UNL     1      -4.811   6.400   3.787  0.00  0.00    -0.049 C 
ATOM     14  C   UNL     1      -5.713   5.310   4.372  0.00  0.00    +0.141 C 
ATOM     15  O   UNL     1      -5.440   5.171   5.769  0.00  0.00    -0.383 OA
ATOM     16  C   UNL     1      -4.080   4.837   6.058  0.00  0.00    +0.141 C 
ATOM     17  C   UNL     1      -3.161   5.921   5.490  0.00  0.00    -0.049 C 
ATOM     18  N   UNL     1      -3.401   6.032   4.036  0.00  0.00    +0.390 N 
ATOM     19  H   UNL     1      -3.210   5.125   3.595  0.00  0.00    -0.081 HD
ENDBRANCH  12  18
BRANCH  12  20
ATOM     20  C   UNL     1      -2.688   8.377   4.142  0.00  0.00    +0.093 A 
ATOM     21  C   UNL     1      -1.714   9.263   4.419  0.00  0.00    +0.043 A 
ATOM     22  C   UNL     1      -2.330  10.359   5.065  0.00  0.00    +0.044 A 
ATOM     23  C   UNL     1      -3.642  10.074   5.153  0.00  0.00    +0.102 A 
ATOM     24  O   UNL     1      -3.853   8.872   4.592  0.00  0.00    -0.466 OA
ATOM     25  C   UNL     1      -4.695  10.953   5.775  0.00  0.00    +0.086 C 
ENDBRANCH  12  20
ENDBRANCH  11  12
ENDBRANCH   9  11
ENDBRANCH   4   7
BRANCH   1  26
ATOM     26  N   UNL     1      -2.757   0.734  -2.507  0.00  0.00    -0.216 N 
ATOM     27  H   UNL     1      -3.464   0.455  -3.109  0.00  0.00    +0.174 HD
BRANCH  26  28
ATOM     28  S   UNL     1      -1.475  -0.273  -2.214  0.00  0.00    +0.073 S 
ATOM     29  O   UNL     1      -1.644  -1.403  -3.059  0.00  0.00    -0.150 OA
ATOM     30  O   UNL     1      -1.364  -0.388  -0.802  0.00  0.00    -0.150 OA
BRANCH  28  36
ATOM     31  C   UNL     1       3.147   1.990  -1.299  0.00  0.00    +0.044 C 
ATOM     32  C   UNL     1       2.088   1.583  -2.291  0.00  0.00    -0.049 A 
ATOM     33  C   UNL     1       2.253   1.866  -3.634  0.00  0.00    +0.004 A 
ATOM     34  C   UNL     1       1.282   1.493  -4.543  0.00  0.00    +0.005 A 
ATOM     35  C   UNL     1       0.145   0.836  -4.110  0.00  0.00    -0.024 A 
ATOM     36  C   UNL     1      -0.023   0.557  -2.767  0.00  0.00    +0.112 A 
ATOM     37  C   UNL     1       0.952   0.926  -1.858  0.00  0.00    +0.032 A 
ATOM     38  C   UNL     1      -0.915   0.430  -5.102  0.00  0.00    +0.046 C 
ENDBRANCH  28  36
ENDBRANCH  26  28
ENDBRANCH   1  26
TORSDOF 8
