REMARK  Name = ZINC07513548
REMARK  9 active torsions:
REMARK  status: ('A' for Active; 'I' for Inactive)
REMARK    1  A    between atoms: C_1  and  C_2
REMARK    2  A    between atoms: C_2  and  C_3
REMARK    3  A    between atoms: C_3  and  N_4
REMARK    4  A    between atoms: C_10  and  S_11
REMARK    5  A    between atoms: S_11  and  C_12
REMARK    6  A    between atoms: C_12  and  C_13
REMARK    7  A    between atoms: C_18  and  C_21
REMARK    8  A    between atoms: C_24  and  C_28
REMARK    9  A    between atoms: C_25  and  C_27
REMARK                            x       y       z     vdW  Elec       q    Type
REMARK                         _______ _______ _______ _____ _____    ______ ____
ROOT
ATOM      1  C   UNL     1      -1.343  -3.464   5.226  0.00  0.00    +0.229 C 
ATOM      2  O   UNL     1      -1.355  -2.306   5.587  0.00  0.00    -0.275 OA
ATOM      3  N   UNL     1      -1.321  -4.454   6.140  0.00  0.00    -0.264 N 
ATOM      4  C   UNL     1      -1.312  -4.149   7.496  0.00  0.00    +0.165 A 
ATOM      5  N   UNL     1      -1.286  -4.962   8.535  0.00  0.00    -0.225 NA
ATOM      6  C   UNL     1      -1.280  -4.494   9.774  0.00  0.00    +0.080 A 
ATOM      7  C   UNL     1      -1.302  -3.143   9.981  0.00  0.00    +0.076 A 
ATOM      8  S   UNL     1      -1.325  -2.550   8.295  0.00  0.00    -0.060 S 
ATOM      9  H   UNL     1      -1.312  -5.380   5.852  0.00  0.00    +0.157 HD
ENDROOT
BRANCH   6  10
ATOM     10  C   UNL     1      -1.251  -5.427  10.927  0.00  0.00    +0.001 A 
ATOM     11  C   UNL     1      -1.252  -4.931  12.229  0.00  0.00    +0.010 A 
ATOM     12  C   UNL     1      -1.224  -5.804  13.297  0.00  0.00    +0.004 A 
ATOM     13  C   UNL     1      -1.196  -7.170  13.078  0.00  0.00    -0.047 A 
ATOM     14  C   UNL     1      -1.195  -7.668  11.787  0.00  0.00    -0.047 A 
ATOM     15  C   UNL     1      -1.229  -6.804  10.711  0.00  0.00    +0.013 A 
ATOM     16  C   UNL     1      -1.164  -9.156  11.556  0.00  0.00    +0.044 C 
ATOM     17  C   UNL     1      -1.165  -8.118  14.248  0.00  0.00    +0.044 C 
ENDBRANCH   6  10
BRANCH   1  18
ATOM     18  C   UNL     1      -1.353  -3.796   3.756  0.00  0.00    +0.173 C 
BRANCH  18  19
ATOM     19  S   UNL     1      -1.383  -2.260   2.790  0.00  0.00    -0.077 S 
BRANCH  19  26
ATOM     20  N   UNL     1      -1.413  -1.998   0.005  0.00  0.00    -0.271 N 
ATOM     21  C   UNL     1      -1.407  -2.781  -1.092  0.00  0.00    +0.345 A 
ATOM     22  O   UNL     1      -1.417  -2.400  -2.249  0.00  0.00    -0.245 OA
ATOM     23  N   UNL     1      -1.388  -4.065  -0.677  0.00  0.00    -0.226 N 
ATOM     24  H   UNL     1      -1.379  -4.852  -1.244  0.00  0.00    +0.194 HD
ATOM     25  N   UNL     1      -1.383  -4.052   0.725  0.00  0.00    -0.145 NA
ATOM     26  C   UNL     1      -1.392  -2.810   1.116  0.00  0.00    +0.192 A 
BRANCH  20  27
ATOM     27  C   UNL     1      -1.433  -0.534   0.013  0.00  0.00    +0.129 C 
BRANCH  27  29
ATOM     28  C   UNL     1      -0.019   1.526   0.010  0.00  0.00    +0.005 C 
ATOM     29  C   UNL     1       0.002  -0.004   0.002  0.00  0.00    +0.018 C 
ENDBRANCH  27  29
ENDBRANCH  20  27
ENDBRANCH  19  26
ENDBRANCH  18  19
ENDBRANCH   1  18
TORSDOF 6
