REMARK  Name = ZINC38827532
REMARK  6 active torsions:
REMARK  status: ('A' for Active; 'I' for Inactive)
REMARK    1  A    between atoms: C_1  and  C_2
REMARK    2  A    between atoms: N_4  and  C_5
REMARK    3  A    between atoms: C_8  and  N_11
REMARK    4  A    between atoms: C_13  and  N_23
REMARK    5  A    between atoms: N_23  and  S_24
REMARK    6  A    between atoms: S_24  and  C_27
REMARK                            x       y       z     vdW  Elec       q    Type
REMARK                         _______ _______ _______ _____ _____    ______ ____
ROOT
ATOM      1  N   UNL     1       0.324  -6.171  -0.866  0.00  0.00    -0.231 NA
ATOM      2  C   UNL     1      -0.331  -6.916  -1.726  0.00  0.00    +0.147 C 
ATOM      3  C   UNL     1      -0.165  -8.418  -1.719  0.00  0.00    +0.236 C 
ATOM      4  N   UNL     1      -0.927  -9.198  -2.708  0.00  0.00    -0.361 N 
ATOM      5  C   UNL     1      -1.706  -8.555  -3.541  0.00  0.00    +0.060 A 
ATOM      6  C   UNL     1      -2.487  -9.282  -4.547  0.00  0.00    +0.027 A 
ATOM      7  C   UNL     1      -3.282  -8.582  -5.390  0.00  0.00    +0.002 A 
ATOM      8  C   UNL     1      -3.374  -7.184  -5.323  0.00  0.00    +0.002 A 
ATOM      9  C   UNL     1      -2.684  -6.449  -4.423  0.00  0.00    +0.028 A 
ATOM     10  C   UNL     1      -1.822  -7.080  -3.493  0.00  0.00    +0.064 A 
ATOM     11  N   UNL     1      -1.155  -6.357  -2.613  0.00  0.00    -0.339 N 
ATOM     12  H   UNL     1      -0.853 -10.164  -2.743  0.00  0.00    +0.162 HD
ATOM     13  H   UNL     1      -1.264  -5.393  -2.614  0.00  0.00    +0.167 HD
ENDROOT
BRANCH   1  17
ATOM     14  C   UNL     1      -0.446  -2.128  -0.633  0.00  0.00    +0.034 A 
ATOM     15  C   UNL     1      -1.479  -3.043  -0.448  0.00  0.00    +0.025 A 
ATOM     16  C   UNL     1      -1.230  -4.383  -0.523  0.00  0.00    +0.029 A 
ATOM     17  C   UNL     1       0.070  -4.838  -0.789  0.00  0.00    +0.066 A 
ATOM     18  C   UNL     1       1.107  -3.913  -0.976  0.00  0.00    +0.029 A 
ATOM     19  C   UNL     1       0.846  -2.574  -0.902  0.00  0.00    +0.025 A 
BRANCH  14  23
ATOM     20  C   UNL     1      -1.814   1.188   0.492  0.00  0.00    +0.109 C 
ATOM     21  C   UNL     1      -1.613  -0.296   0.328  0.00  0.00    +0.214 C 
ATOM     22  O   UNL     1      -2.267  -1.073   0.991  0.00  0.00    -0.276 OA
ATOM     23  N   UNL     1      -0.706  -0.760  -0.554  0.00  0.00    -0.286 N 
ATOM     24  H   UNL     1      -0.234  -0.142  -1.135  0.00  0.00    +0.155 HD
ENDBRANCH  14  23
ENDBRANCH   1  17
BRANCH   3  25
ATOM     25  N   UNL     1       1.256  -8.712  -1.918  0.00  0.00    -0.161 NA
ATOM     26  H   UNL     1       1.810  -8.105  -2.434  0.00  0.00    +0.151 HD
BRANCH  25  27
ATOM     27  S   UNL     1       1.918 -10.081  -1.261  0.00  0.00    +0.060 S 
ATOM     28  O   UNL     1       3.286 -10.096  -1.647  0.00  0.00    -0.153 OA
ATOM     29  O   UNL     1       1.510 -10.116   0.100  0.00  0.00    -0.153 OA
BRANCH  27  30
ATOM     30  C   UNL     1       1.156 -11.459  -2.051  0.00  0.00    +0.105 A 
ATOM     31  C   UNL     1       0.001 -12.006  -1.524  0.00  0.00    +0.030 A 
ATOM     32  C   UNL     1      -0.597 -13.087  -2.143  0.00  0.00    +0.022 A 
ATOM     33  C   UNL     1      -0.039 -13.622  -3.291  0.00  0.00    +0.041 A 
ATOM     34  C   UNL     1       1.117 -13.075  -3.817  0.00  0.00    +0.022 A 
ATOM     35  C   UNL     1       1.711 -11.990  -3.200  0.00  0.00    +0.030 A 
ATOM     36 CL   UNL     1      -0.790 -14.981  -4.069  0.00  0.00    -0.084 Cl
ENDBRANCH  27  30
ENDBRANCH  25  27
ENDBRANCH   3  25
TORSDOF 5
