REMARK  Name = ZINC32115386
REMARK  9 active torsions:
REMARK  status: ('A' for Active; 'I' for Inactive)
REMARK    1  A    between atoms: C_1  and  C_2
REMARK    2  A    between atoms: C_2  and  C_3
REMARK    3  A    between atoms: C_2  and  O_4
REMARK    4  A    between atoms: O_4  and  C_5
REMARK    5  A    between atoms: C_9  and  C_11
REMARK    6  A    between atoms: N_13  and  C_14
REMARK    7  A    between atoms: C_14  and  N_16
REMARK    8  A    between atoms: N_16  and  C_17
REMARK    9  A    between atoms: C_24  and  C_26
REMARK                            x       y       z     vdW  Elec       q    Type
REMARK                         _______ _______ _______ _____ _____    ______ ____
ROOT
ATOM      1  N   UNL     1       2.884   8.760   0.092  0.00  0.00    -0.297 N 
ATOM      2  H   UNL     1       3.821   8.204   0.242  0.00  0.00    +0.154 HD
ENDROOT
BRANCH   1   3
ATOM      3  C   UNL     1       2.857  10.149   0.271  0.00  0.00    +0.035 A 
ATOM      4  C   UNL     1       2.195  10.954  -0.653  0.00  0.00    +0.027 A 
ATOM      5  C   UNL     1       2.157  12.322  -0.485  0.00  0.00    +0.050 A 
ATOM      6  C   UNL     1       2.789  12.905   0.603  0.00  0.00    +0.156 A 
ATOM      7  C   UNL     1       3.463  12.101   1.536  0.00  0.00    +0.112 A 
ATOM      8  C   UNL     1       3.492  10.715   1.361  0.00  0.00    +0.054 A 
ATOM      9  N   UNL     1       3.975  12.937   2.475  0.00  0.00    -0.209 NA
ATOM     10  C   UNL     1       3.653  14.167   2.163  0.00  0.00    +0.230 A 
ATOM     11  O   UNL     1       2.930  14.182   1.028  0.00  0.00    -0.435 OA
BRANCH  10  12
ATOM     12  C   UNL     1       4.027  15.364   2.944  0.00  0.00    +0.058 A 
ATOM     13  C   UNL     1       4.777  15.231   4.115  0.00  0.00    +0.056 A 
ATOM     14  C   UNL     1       5.128  16.353   4.838  0.00  0.00    +0.159 A 
ATOM     15  C   UNL     1       4.728  17.612   4.408  0.00  0.00    +0.160 A 
ATOM     16  C   UNL     1       3.980  17.748   3.251  0.00  0.00    +0.062 A 
ATOM     17  C   UNL     1       3.628  16.633   2.517  0.00  0.00    +0.056 A 
ATOM     18 CL   UNL     1       2.690  16.807   1.066  0.00  0.00    -0.083 Cl
ATOM     19  F   UNL     1       5.070  18.707   5.122  0.00  0.00    -0.202 F 
ATOM     20  F   UNL     1       5.857  16.227   5.968  0.00  0.00    -0.202 F 
ENDBRANCH  10  12
ENDBRANCH   1   3
BRANCH   1  21
ATOM     21  C   UNL     1       1.761   8.104  -0.263  0.00  0.00    +0.141 C 
ATOM     22  S   UNL     1       0.327   8.979  -0.593  0.00  0.00    -0.018 S 
BRANCH  21  25
ATOM     23  C   UNL     1       0.645   6.105  -0.715  0.00  0.00    +0.250 C 
ATOM     24  O   UNL     1      -0.373   6.726  -0.949  0.00  0.00    -0.270 OA
ATOM     25  N   UNL     1       1.768   6.760  -0.359  0.00  0.00    -0.264 N 
ATOM     26  H   UNL     1       2.689   6.198  -0.147  0.00  0.00    +0.157 HD
BRANCH  23  31
ATOM     27  C   UNL     1      -0.493   2.568  -1.289  0.00  0.00    +0.122 A 
ATOM     28  C   UNL     1       0.672   1.865  -1.015  0.00  0.00    +0.046 A 
ATOM     29  C   UNL     1       1.823   2.538  -0.650  0.00  0.00    +0.004 A 
ATOM     30  C   UNL     1       1.820   3.914  -0.552  0.00  0.00    +0.013 A 
ATOM     31  C   UNL     1       0.652   4.630  -0.820  0.00  0.00    +0.041 A 
ATOM     32  C   UNL     1      -0.509   3.949  -1.188  0.00  0.00    +0.058 A 
BRANCH  27  33
ATOM     33  O   UNL     1      -1.621   1.901  -1.652  0.00  0.00    -0.489 OA
BRANCH  33  35
ATOM     34  C   UNL     1      -2.920  -0.136  -1.614  0.00  0.00    +0.051 C 
ATOM     35  C   UNL     1      -1.527   0.479  -1.759  0.00  0.00    +0.167 C 
ATOM     36  C   UNL     1      -0.945   0.108  -3.125  0.00  0.00    +0.051 C 
ENDBRANCH  33  35
ENDBRANCH  27  33
ENDBRANCH  23  31
ENDBRANCH  21  25
ENDBRANCH   1  21
TORSDOF 7
