REMARK  Name = ZINC53363197
REMARK  9 active torsions:
REMARK  status: ('A' for Active; 'I' for Inactive)
REMARK    1  A    between atoms: C_1  and  C_2
REMARK    2  A    between atoms: C_2  and  C_3
REMARK    3  A    between atoms: C_6  and  C_9
REMARK    4  A    between atoms: C_11  and  C_27
REMARK    5  A    between atoms: C_14  and  C_17
REMARK    6  A    between atoms: C_21  and  O_24
REMARK    7  A    between atoms: C_22  and  O_23
REMARK    8  A    between atoms: O_24  and  C_25
REMARK    9  A    between atoms: C_25  and  C_26
REMARK                            x       y       z     vdW  Elec       q    Type
REMARK                         _______ _______ _______ _____ _____    ______ ____
ROOT
ATOM      1  C   UNL     1      -5.395  -1.996   0.043  0.00  0.00    +0.047 C 
ATOM      2  N   UNL     1      -5.959  -2.203   1.172  0.00  0.00    -0.264 NA
ATOM      3  C   UNL     1      -7.322  -2.696   1.327  0.00  0.00    +0.204 C 
ATOM      4  N   UNL     1      -7.797  -3.308   0.081  0.00  0.00    -0.284 NA
ATOM      5  C   UNL     1      -7.584  -2.389  -1.051  0.00  0.00    +0.095 C 
ATOM      6  C   UNL     1      -6.077  -2.242  -1.274  0.00  0.00    +0.079 C 
ATOM      7  H   UNL     1      -7.344  -4.194  -0.083  0.00  0.00    +0.125 HD
ENDROOT
BRANCH   3   8
ATOM      8  C   UNL     1      -8.227  -1.546   1.691  0.00  0.00    -0.009 A 
ATOM      9  C   UNL     1      -9.556  -1.566   1.312  0.00  0.00    +0.008 A 
ATOM     10  C   UNL     1     -10.386  -0.513   1.646  0.00  0.00    +0.015 A 
ATOM     11  C   UNL     1      -9.886   0.562   2.360  0.00  0.00    +0.018 A 
ATOM     12  C   UNL     1      -8.556   0.581   2.739  0.00  0.00    +0.015 A 
ATOM     13  C   UNL     1      -7.728  -0.475   2.409  0.00  0.00    +0.008 A 
ATOM     14 BR   UNL     1     -11.021   2.004   2.817  0.00  0.00    -0.050 Br
ENDBRANCH   3   8
BRANCH   1  18
ATOM     15  C   UNL     1      -1.412  -0.526   0.013  0.00  0.00    -0.048 A 
ATOM     16  C   UNL     1      -2.048  -0.765   1.218  0.00  0.00    +0.004 A 
ATOM     17  C   UNL     1      -3.342  -1.243   1.235  0.00  0.00    +0.010 A 
ATOM     18  C   UNL     1      -4.010  -1.484   0.032  0.00  0.00    -0.004 A 
ATOM     19  C   UNL     1      -3.361  -1.240  -1.180  0.00  0.00    +0.010 A 
ATOM     20  C   UNL     1      -2.069  -0.758  -1.182  0.00  0.00    +0.004 A 
BRANCH  15  22
ATOM     21  C   UNL     1      -0.019   1.526   0.010  0.00  0.00    +0.009 C 
ATOM     22  C   UNL     1       0.002  -0.004   0.002  0.00  0.00    +0.032 C 
ENDBRANCH  15  22
ENDBRANCH   1  18
BRANCH   5  23
ATOM     23  C   UNL     1      -8.232  -2.950  -2.290  0.00  0.00    +0.015 A 
ATOM     24  C   UNL     1      -8.534  -4.297  -2.364  0.00  0.00    +0.009 A 
ATOM     25  C   UNL     1      -9.128  -4.815  -3.499  0.00  0.00    +0.004 A 
ATOM     26  C   UNL     1      -9.423  -3.987  -4.567  0.00  0.00    +0.049 A 
ATOM     27  C   UNL     1      -9.123  -2.636  -4.500  0.00  0.00    +0.162 A 
ATOM     28  C   UNL     1      -8.530  -2.114  -3.354  0.00  0.00    +0.163 A 
BRANCH  28  29
ATOM     29  O   UNL     1      -8.239  -0.788  -3.281  0.00  0.00    -0.503 OA
ATOM     30  H   UNL     1      -7.358  -0.560  -3.607  0.00  0.00    +0.292 HD
ENDBRANCH  28  29
BRANCH  27  31
ATOM     31  O   UNL     1      -9.413  -1.821  -5.550  0.00  0.00    -0.489 OA
BRANCH  31  32
ATOM     32  C   UNL     1     -10.026  -2.425  -6.690  0.00  0.00    +0.226 C 
ATOM     33  C   UNL     1     -10.274  -1.360  -7.760  0.00  0.00    +0.048 C 
ENDBRANCH  31  32
ENDBRANCH  27  31
ENDBRANCH   5  23
TORSDOF 7
