REMARK  Name = ZINC20719437
REMARK  7 active torsions:
REMARK  status: ('A' for Active; 'I' for Inactive)
REMARK    1  A    between atoms: C_1  and  O_2
REMARK    2  A    between atoms: O_2  and  C_3
REMARK    3  A    between atoms: C_12  and  C_13
REMARK    4  A    between atoms: C_24  and  S_29
REMARK    5  A    between atoms: S_29  and  N_32
REMARK    6  A    between atoms: N_32  and  C_33
REMARK    7  A    between atoms: C_33  and  C_34
REMARK                            x       y       z     vdW  Elec       q    Type
REMARK                         _______ _______ _______ _____ _____    ______ ____
ROOT
ATOM      1  C   UNL     1       2.490   1.483  -0.028  0.00  0.00    +0.109 C 
ATOM      2  C   UNL     1       2.325   0.201   0.769  0.00  0.00    +0.029 C 
ATOM      3  C   UNL     1       3.501  -0.785   0.760  0.00  0.00    +0.033 C 
ATOM      4  C   UNL     1       2.781  -2.123   0.947  0.00  0.00    -0.030 C 
ATOM      5  C   UNL     1       1.535  -2.034   0.499  0.00  0.00    -0.023 C 
ATOM      6  C   UNL     1       1.322  -0.669  -0.047  0.00  0.00    +0.049 C 
ATOM      7  C   UNL     1       0.002  -0.004   0.002  0.00  0.00    -0.018 A 
ATOM      8  C   UNL     1      -1.181  -0.710   0.033  0.00  0.00    +0.034 A 
ATOM      9  C   UNL     1      -2.391  -0.043   0.062  0.00  0.00    +0.106 A 
ATOM     10  C   UNL     1      -2.418   1.340   0.060  0.00  0.00    +0.030 A 
ATOM     11  C   UNL     1      -1.239   2.056   0.033  0.00  0.00    +0.025 A 
ATOM     12  C   UNL     1      -0.017   1.395   0.010  0.00  0.00    +0.031 A 
ATOM     13  N   UNL     1       1.167   2.143   0.002  0.00  0.00    -0.336 N 
ATOM     14  H   UNL     1       1.100   3.241   0.019  0.00  0.00    +0.147 HD
ENDROOT
BRANCH   1  24
ATOM     15  C   UNL     1       3.230   3.056   1.757  0.00  0.00    +0.126 A 
ATOM     16  C   UNL     1       4.182   3.880   2.365  0.00  0.00    +0.046 A 
ATOM     17  C   UNL     1       5.428   4.016   1.838  0.00  0.00    +0.012 A 
ATOM     18  C   UNL     1       5.769   3.321   0.665  0.00  0.00    -0.017 A 
ATOM     19  C   UNL     1       7.047   3.439   0.093  0.00  0.00    +0.008 A 
ATOM     20  C   UNL     1       7.348   2.739  -1.035  0.00  0.00    +0.001 A 
ATOM     21  C   UNL     1       6.401   1.917  -1.643  0.00  0.00    +0.001 A 
ATOM     22  C   UNL     1       5.152   1.782  -1.121  0.00  0.00    +0.009 A 
ATOM     23  C   UNL     1       4.807   2.481   0.049  0.00  0.00    -0.009 A 
ATOM     24  C   UNL     1       3.527   2.366   0.616  0.00  0.00    +0.022 A 
BRANCH  15  26
ATOM     25  C   UNL     1       1.742   3.684   3.501  0.00  0.00    +0.277 C 
ATOM     26  O   UNL     1       1.994   2.939   2.308  0.00  0.00    -0.495 OA
ENDBRANCH  15  26
ENDBRANCH   1  24
BRANCH   9  27
ATOM     27  S   UNL     1      -3.899  -0.953   0.102  0.00  0.00    +0.058 S 
ATOM     28  O   UNL     1      -4.904  -0.098  -0.425  0.00  0.00    -0.153 OA
ATOM     29  O   UNL     1      -3.618  -2.231  -0.453  0.00  0.00    -0.153 OA
BRANCH  27  30
ATOM     30  N   UNL     1      -4.278  -1.202   1.695  0.00  0.00    -0.187 NA
ATOM     31  H   UNL     1      -4.128  -2.200   2.133  0.00  0.00    +0.148 HD
BRANCH  30  32
ATOM     32  C   UNL     1      -4.598  -0.063   2.559  0.00  0.00    +0.137 C 
BRANCH  32  33
ATOM     33  C   UNL     1      -5.262  -0.567   3.842  0.00  0.00    +0.134 C 
ATOM     34  C   UNL     1      -5.609   0.625   4.755  0.00  0.00    +0.035 C 
ATOM     35  C   UNL     1      -7.141   0.519   4.952  0.00  0.00    +0.031 C 
ATOM     36  C   UNL     1      -7.410  -0.968   4.608  0.00  0.00    +0.160 C 
ATOM     37  O   UNL     1      -6.493  -1.238   3.524  0.00  0.00    -0.375 OA
ENDBRANCH  32  33
ENDBRANCH  30  32
ENDBRANCH  27  30
ENDBRANCH   9  27
TORSDOF 6
