REMARK  Name = ZINC40804795
REMARK  7 active torsions:
REMARK  status: ('A' for Active; 'I' for Inactive)
REMARK    1  A    between atoms: C_1  and  C_2
REMARK    2  A    between atoms: C_3  and  C_22
REMARK    3  A    between atoms: C_8  and  C_10
REMARK    4  A    between atoms: C_10  and  C_21
REMARK    5  A    between atoms: C_22  and  O_24
REMARK    6  A    between atoms: O_24  and  C_25
REMARK    7  A    between atoms: C_25  and  C_26
REMARK                            x       y       z     vdW  Elec       q    Type
REMARK                         _______ _______ _______ _____ _____    ______ ____
ROOT
ATOM      1  C   UNL     1      -0.018   1.503   0.010  0.00  0.00    +0.067 C 
ATOM      2  C   UNL     1       0.002  -0.004   0.002  0.00  0.00    +0.062 A 
ATOM      3  C   UNL     1       0.006  -0.730  -1.182  0.00  0.00    +0.120 A 
ATOM      4  S   UNL     1       0.032  -2.398  -0.544  0.00  0.00    -0.045 S 
ATOM      5  C   UNL     1       0.035  -2.021   1.096  0.00  0.00    +0.165 A 
ATOM      6  N   UNL     1       0.022  -0.700   1.110  0.00  0.00    -0.229 NA
ATOM      7  N   UNL     1       0.052  -2.888   2.174  0.00  0.00    -0.261 N 
ATOM      8  C   UNL     1       0.069  -4.220   1.967  0.00  0.00    +0.272 C 
ATOM      9  O   UNL     1       0.070  -4.658   0.836  0.00  0.00    -0.270 OA
ATOM     10  H   UNL     1       0.051  -2.538   3.078  0.00  0.00    +0.157 HD
ENDROOT
BRANCH   8  11
ATOM     11  C   UNL     1       0.088  -5.165   3.140  0.00  0.00    +0.258 C 
ATOM     12  C   UNL     1      -0.492  -6.493   2.725  0.00  0.00    +0.270 C 
ATOM     13  O   UNL     1      -0.431  -6.848   1.567  0.00  0.00    -0.271 OA
ATOM     14  N   UNL     1      -1.079  -7.285   3.647  0.00  0.00    -0.279 N 
ATOM     15  C   UNL     1      -1.252  -6.804   4.951  0.00  0.00    +0.076 A 
ATOM     16  C   UNL     1      -1.637  -7.658   5.972  0.00  0.00    +0.027 A 
ATOM     17  C   UNL     1      -1.790  -7.170   7.257  0.00  0.00    +0.002 A 
ATOM     18  C   UNL     1      -1.560  -5.833   7.525  0.00  0.00    +0.004 A 
ATOM     19  C   UNL     1      -1.180  -4.974   6.509  0.00  0.00    +0.047 A 
ATOM     20  C   UNL     1      -1.030  -5.455   5.220  0.00  0.00    +0.144 A 
ATOM     21  O   UNL     1      -0.688  -4.614   4.207  0.00  0.00    -0.465 OA
ATOM     22  C   UNL     1       1.530  -5.364   3.610  0.00  0.00    +0.076 C 
ATOM     23  H   UNL     1      -1.377  -8.177   3.409  0.00  0.00    +0.155 HD
ENDBRANCH   8  11
BRANCH   3  24
ATOM     24  C   UNL     1      -0.008  -0.260  -2.566  0.00  0.00    +0.348 C 
ATOM     25  O   UNL     1      -0.025   0.934  -2.802  0.00  0.00    -0.244 OA
BRANCH  24  26
ATOM     26  O   UNL     1      -0.000  -1.149  -3.581  0.00  0.00    -0.457 OA
BRANCH  26  27
ATOM     27  C   UNL     1      -0.015  -0.619  -4.907  0.00  0.00    +0.259 C 
BRANCH  27  28
ATOM     28  C   UNL     1      -0.004  -1.751  -5.901  0.00  0.00    +0.006 C 
ATOM     29  C   UNL     1      -0.812  -1.726  -6.932  0.00  0.00    +0.007 C 
ENDBRANCH  27  28
ENDBRANCH  26  27
ENDBRANCH  24  26
ENDBRANCH   3  24
TORSDOF 5
