REMARK  Name = ZINC05868102
REMARK  6 active torsions:
REMARK  status: ('A' for Active; 'I' for Inactive)
REMARK    1  A    between atoms: C_1  and  C_2
REMARK    2  A    between atoms: C_5  and  C_8
REMARK    3  A    between atoms: C_12  and  S_14
REMARK    4  A    between atoms: S_14  and  C_15
REMARK    5  A    between atoms: C_15  and  C_16
REMARK    6  A    between atoms: N_18  and  C_19
REMARK                            x       y       z     vdW  Elec       q    Type
REMARK                         _______ _______ _______ _____ _____    ______ ____
ROOT
ATOM      1  C   UNL     1       0.087  -4.255  -0.021  0.00  0.00    +0.182 A 
ATOM      2  N   UNL     1       0.091  -5.013  -1.094  0.00  0.00    -0.152 NA
ATOM      3  H   UNL     1       0.104  -7.141  -1.209  0.00  0.00    +0.191 HD
ATOM      4  N   UNL     1       0.099  -6.346  -0.653  0.00  0.00    -0.253 N 
ATOM      5  C   UNL     1       0.097  -6.303   0.698  0.00  0.00    +0.185 A 
ATOM      6  N   UNL     1       0.096  -5.041   1.065  0.00  0.00    -0.201 NA
ENDROOT
BRANCH   1  11
ATOM      7  C   UNL     1       0.053   1.504   0.011  0.00  0.00    +0.044 C 
ATOM      8  C   UNL     1       0.062  -0.003   0.003  0.00  0.00    -0.050 A 
ATOM      9  C   UNL     1       0.061  -0.685  -1.200  0.00  0.00    +0.004 A 
ATOM     10  C   UNL     1       0.069  -2.065  -1.214  0.00  0.00    +0.012 A 
ATOM     11  C   UNL     1       0.079  -2.771  -0.013  0.00  0.00    +0.021 A 
ATOM     12  C   UNL     1       0.080  -2.079   1.196  0.00  0.00    +0.012 A 
ATOM     13  C   UNL     1       0.077  -0.699   1.198  0.00  0.00    +0.004 A 
ENDBRANCH   1  11
BRANCH   5  14
ATOM     14  S   UNL     1       0.104  -7.696   1.778  0.00  0.00    -0.077 S 
BRANCH  14  15
ATOM     15  C   UNL     1       0.099  -6.964   3.437  0.00  0.00    +0.173 C 
BRANCH  15  16
ATOM     16  C   UNL     1       0.105  -8.062   4.470  0.00  0.00    +0.227 C 
ATOM     17  O   UNL     1       0.111  -9.223   4.121  0.00  0.00    -0.275 OA
ATOM     18  N   UNL     1       0.102  -7.753   5.782  0.00  0.00    -0.285 N 
ATOM     19  H   UNL     1       0.165  -6.826   6.062  0.00  0.00    +0.155 HD
BRANCH  18  20
ATOM     20  C   UNL     1       0.009  -8.769   6.740  0.00  0.00    +0.033 A 
ATOM     21  C   UNL     1      -0.695  -8.553   7.917  0.00  0.00    +0.024 A 
ATOM     22  C   UNL     1      -0.785  -9.557   8.861  0.00  0.00    +0.017 A 
ATOM     23  C   UNL     1      -0.175 -10.778   8.634  0.00  0.00    +0.018 A 
ATOM     24  C   UNL     1       0.527 -10.996   7.462  0.00  0.00    +0.017 A 
ATOM     25  C   UNL     1       0.617  -9.997   6.513  0.00  0.00    +0.024 A 
ATOM     26 BR   UNL     1      -0.300 -12.151   9.928  0.00  0.00    -0.050 Br
ENDBRANCH  18  20
ENDBRANCH  15  16
ENDBRANCH  14  15
ENDBRANCH   5  14
TORSDOF 5
