REMARK  Name = ZINC14664384
REMARK  10 active torsions:
REMARK  status: ('A' for Active; 'I' for Inactive)
REMARK    1  A    between atoms: C_1  and  C_2
REMARK    2  A    between atoms: C_2  and  C_3
REMARK    3  A    between atoms: C_2  and  O_4
REMARK    4  A    between atoms: O_4  and  C_5
REMARK    5  A    between atoms: C_10  and  C_11
REMARK    6  A    between atoms: N_13  and  C_14
REMARK    7  A    between atoms: C_14  and  N_16
REMARK    8  A    between atoms: N_16  and  C_17
REMARK    9  A    between atoms: C_22  and  C_23
REMARK   10  A    between atoms: N_25  and  C_26
REMARK                            x       y       z     vdW  Elec       q    Type
REMARK                         _______ _______ _______ _____ _____    ______ ____
ROOT
ATOM      1  N   UNL     1       7.205   1.641  -1.039  0.00  0.00    -0.296 N 
ATOM      2  H   UNL     1       6.384   2.124  -0.859  0.00  0.00    +0.154 HD
ENDROOT
BRANCH   1   3
ATOM      3  C   UNL     1       7.155   0.331  -1.507  0.00  0.00    +0.045 A 
ATOM      4  C   UNL     1       7.923  -0.051  -2.599  0.00  0.00    +0.024 A 
ATOM      5  C   UNL     1       7.872  -1.350  -3.061  0.00  0.00    +0.002 A 
ATOM      6  C   UNL     1       7.056  -2.283  -2.441  0.00  0.00    +0.001 A 
ATOM      7  C   UNL     1       6.290  -1.924  -1.354  0.00  0.00    +0.015 A 
ATOM      8  C   UNL     1       6.327  -0.611  -0.878  0.00  0.00    +0.058 A 
BRANCH   8   9
ATOM      9  C   UNL     1       5.505  -0.219   0.282  0.00  0.00    +0.250 C 
ATOM     10  O   UNL     1       5.469   0.944   0.636  0.00  0.00    -0.270 OA
ATOM     11  N   UNL     1       4.795  -1.150   0.951  0.00  0.00    -0.281 N 
ATOM     12  H   UNL     1       4.881  -2.087   0.715  0.00  0.00    +0.155 HD
BRANCH  11  13
ATOM     13  C   UNL     1       3.934  -0.764   1.983  0.00  0.00    +0.034 A 
ATOM     14  C   UNL     1       2.736  -1.439   2.179  0.00  0.00    +0.023 A 
ATOM     15  C   UNL     1       1.889  -1.056   3.200  0.00  0.00    +0.002 A 
ATOM     16  C   UNL     1       2.232  -0.002   4.027  0.00  0.00    +0.000 A 
ATOM     17  C   UNL     1       3.424   0.672   3.835  0.00  0.00    +0.002 A 
ATOM     18  C   UNL     1       4.276   0.294   2.816  0.00  0.00    +0.023 A 
ENDBRANCH  11  13
ENDBRANCH   8   9
ENDBRANCH   1   3
BRANCH   1  19
ATOM     19  C   UNL     1       8.396   2.238  -0.835  0.00  0.00    +0.141 C 
ATOM     20  S   UNL     1       9.843   1.432  -1.270  0.00  0.00    -0.018 S 
BRANCH  19  23
ATOM     21  C   UNL     1       9.640   4.066  -0.086  0.00  0.00    +0.253 C 
ATOM     22  O   UNL     1      10.667   3.494  -0.395  0.00  0.00    -0.270 OA
ATOM     23  N   UNL     1       8.449   3.469  -0.289  0.00  0.00    -0.263 N 
ATOM     24  H   UNL     1       7.629   3.925  -0.043  0.00  0.00    +0.157 HD
BRANCH  21  30
ATOM     25  C   UNL     1      10.933   6.038   0.725  0.00  0.00    +0.133 A 
ATOM     26  C   UNL     1      10.975   7.305   1.287  0.00  0.00    +0.046 A 
ATOM     27  C   UNL     1       9.803   7.947   1.635  0.00  0.00    +0.004 A 
ATOM     28  C   UNL     1       8.578   7.332   1.426  0.00  0.00    +0.001 A 
ATOM     29  C   UNL     1       8.518   6.076   0.863  0.00  0.00    +0.017 A 
ATOM     30  C   UNL     1       9.697   5.413   0.511  0.00  0.00    +0.079 A 
BRANCH  25  31
ATOM     31  O   UNL     1      12.084   5.406   0.382  0.00  0.00    -0.489 OA
BRANCH  31  33
ATOM     32  C   UNL     1      13.747   5.965   2.044  0.00  0.00    +0.051 C 
ATOM     33  C   UNL     1      13.303   6.122   0.589  0.00  0.00    +0.167 C 
ATOM     34  C   UNL     1      14.385   5.565  -0.338  0.00  0.00    +0.051 C 
ENDBRANCH  31  33
ENDBRANCH  25  31
ENDBRANCH  21  30
ENDBRANCH  19  23
ENDBRANCH   1  19
TORSDOF 8
