REMARK  Name = ZINC06939241
REMARK  7 active torsions:
REMARK  status: ('A' for Active; 'I' for Inactive)
REMARK    1  A    between atoms: C_1  and  C_2
REMARK    2  A    between atoms: C_2  and  C_3
REMARK    3  A    between atoms: C_2  and  C_4
REMARK    4  A    between atoms: C_4  and  N_5
REMARK    5  A    between atoms: C_12  and  C_15
REMARK    6  A    between atoms: C_12  and  O_26
REMARK    7  A    between atoms: C_18  and  C_20
REMARK                            x       y       z     vdW  Elec       q    Type
REMARK                         _______ _______ _______ _____ _____    ______ ____
ROOT
ATOM      1  N   UNL     1       0.315   2.764  -1.886  0.00  0.00    -0.268 N 
ATOM      2  C   UNL     1       1.511   2.795  -1.167  0.00  0.00    +0.043 A 
ATOM      3  C   UNL     1       2.723   3.426  -1.442  0.00  0.00    +0.024 A 
ATOM      4  C   UNL     1       3.780   3.309  -0.564  0.00  0.00    +0.002 A 
ATOM      5  C   UNL     1       3.647   2.565   0.595  0.00  0.00    +0.000 A 
ATOM      6  C   UNL     1       2.446   1.936   0.875  0.00  0.00    +0.009 A 
ATOM      7  C   UNL     1       1.390   2.051  -0.000  0.00  0.00    +0.023 A 
ATOM      8  C   UNL     1      -0.018   1.503   0.010  0.00  0.00    +0.247 C 
ATOM      9  C   UNL     1      -0.629   2.032  -1.270  0.00  0.00    +0.266 C 
ATOM     10  O   UNL     1      -1.758   1.833  -1.666  0.00  0.00    -0.271 OA
ENDROOT
BRANCH   8  11
ATOM     11  C   UNL     1       0.002  -0.004   0.002  0.00  0.00    +0.263 A 
ATOM     12  N   UNL     1       0.530  -0.762  -0.918  0.00  0.00    -0.108 NA
ATOM     13  N   UNL     1       0.365  -1.998  -0.604  0.00  0.00    -0.107 NA
ATOM     14  C   UNL     1      -0.279  -2.073   0.537  0.00  0.00    +0.249 A 
ATOM     15  O   UNL     1      -0.516  -0.810   0.945  0.00  0.00    -0.416 OA
BRANCH  14  16
ATOM     16  C   UNL     1      -0.667  -3.311   1.246  0.00  0.00    +0.038 A 
ATOM     17  C   UNL     1      -1.349  -3.238   2.462  0.00  0.00    +0.013 A 
ATOM     18  C   UNL     1      -1.713  -4.397   3.115  0.00  0.00    +0.001 A 
ATOM     19  C   UNL     1      -1.394  -5.630   2.574  0.00  0.00    +0.000 A 
ATOM     20  C   UNL     1      -0.713  -5.709   1.372  0.00  0.00    +0.001 A 
ATOM     21  C   UNL     1      -0.347  -4.557   0.706  0.00  0.00    +0.013 A 
ENDBRANCH  14  16
ENDBRANCH   8  11
BRANCH   8  22
ATOM     22  O   UNL     1      -0.736   1.986   1.148  0.00  0.00    -0.368 OA
ATOM     23  H   UNL     1      -1.655   1.688   1.189  0.00  0.00    +0.212 HD
ENDBRANCH   8  22
BRANCH   1  24
ATOM     24  C   UNL     1       0.113   3.449  -3.164  0.00  0.00    +0.116 C 
BRANCH  24  26
ATOM     25  C   UNL     1       0.166   3.180  -5.648  0.00  0.00    +0.009 C 
ATOM     26  C   UNL     1       0.495   2.511  -4.312  0.00  0.00    +0.001 C 
ATOM     27  C   UNL     1       1.993   2.210  -4.247  0.00  0.00    +0.009 C 
ENDBRANCH  24  26
ENDBRANCH   1  24
TORSDOF 5
