REMARK  Name = ZINC13051668
REMARK  9 active torsions:
REMARK  status: ('A' for Active; 'I' for Inactive)
REMARK    1  A    between atoms: C_1  and  C_2
REMARK    2  A    between atoms: C_6  and  C_13
REMARK    3  A    between atoms: C_13  and  S_14
REMARK    4  A    between atoms: S_14  and  C_15
REMARK    5  A    between atoms: C_19  and  C_31
REMARK    6  A    between atoms: N_25  and  C_26
REMARK    7  A    between atoms: C_26  and  C_27
REMARK    8  A    between atoms: C_27  and  C_29
REMARK    9  A    between atoms: C_27  and  O_30
REMARK                            x       y       z     vdW  Elec       q    Type
REMARK                         _______ _______ _______ _____ _____    ______ ____
ROOT
ATOM      1  C   UNL     1       0.122   0.990  -2.724  0.00  0.00    +0.173 A 
ATOM      2  N   UNL     1       1.165   0.280  -2.370  0.00  0.00    -0.223 NA
ATOM      3  C   UNL     1       1.981  -0.287  -3.290  0.00  0.00    +0.080 A 
ATOM      4  C   UNL     1       3.091  -1.048  -2.911  0.00  0.00    +0.043 A 
ATOM      5  C   UNL     1       3.902  -1.606  -3.890  0.00  0.00    +0.065 A 
ATOM      6  C   UNL     1       3.615  -1.411  -5.248  0.00  0.00    +0.016 A 
ATOM      7  C   UNL     1       2.534  -0.670  -5.630  0.00  0.00    +0.016 A 
ATOM      8  C   UNL     1       1.706  -0.100  -4.663  0.00  0.00    +0.065 A 
ATOM      9  C   UNL     1       0.531   0.707  -5.031  0.00  0.00    +0.262 A 
ATOM     10  O   UNL     1       0.241   0.903  -6.197  0.00  0.00    -0.267 OA
ATOM     11  N   UNL     1      -0.216   1.220  -4.026  0.00  0.00    -0.285 N 
ENDROOT
BRANCH   5  12
ATOM     12  C   UNL     1       5.078  -2.413  -3.497  0.00  0.00    +0.387 C 
ATOM     13  O   UNL     1       5.331  -2.586  -2.322  0.00  0.00    -0.241 OA
ATOM     14  O   UNL     1       5.868  -2.957  -4.443  0.00  0.00    -0.241 OA
ENDBRANCH   5  12
BRANCH   1  15
ATOM     15  S   UNL     1      -0.888   1.685  -1.458  0.00  0.00    -0.083 S 
BRANCH  15  16
ATOM     16  C   UNL     1      -0.013   1.086   0.008  0.00  0.00    +0.113 C 
BRANCH  16  22
ATOM     17  C   UNL     1       0.647   6.572   3.707  0.00  0.00    +0.044 C 
ATOM     18  C   UNL     1       0.287   5.258   3.063  0.00  0.00    -0.047 A 
ATOM     19  C   UNL     1       0.961   4.845   1.923  0.00  0.00    +0.004 A 
ATOM     20  C   UNL     1       0.648   3.657   1.324  0.00  0.00    +0.012 A 
ATOM     21  C   UNL     1      -0.354   2.849   1.870  0.00  0.00    +0.022 A 
ATOM     22  C   UNL     1      -0.718   1.572   1.248  0.00  0.00    -0.020 A 
ATOM     23  C   UNL     1      -1.704   0.837   1.823  0.00  0.00    +0.097 A 
ATOM     24  C   UNL     1      -2.349   1.315   2.984  0.00  0.00    +0.338 A 
ATOM     25  O   UNL     1      -3.232   0.646   3.490  0.00  0.00    -0.245 OA
ATOM     26  O   UNL     1      -2.014   2.487   3.544  0.00  0.00    -0.422 OA
ATOM     27  C   UNL     1      -1.043   3.266   3.022  0.00  0.00    +0.140 A 
ATOM     28  C   UNL     1      -0.709   4.478   3.613  0.00  0.00    +0.050 A 
ENDBRANCH  16  22
ENDBRANCH  15  16
ENDBRANCH   1  15
BRANCH  11  29
ATOM     29  C   UNL     1      -1.396   2.030  -4.339  0.00  0.00    +0.158 C 
BRANCH  29  30
ATOM     30  C   UNL     1      -0.990   3.501  -4.449  0.00  0.00    +0.131 C 
ATOM     31  C   UNL     1      -2.223   4.347  -4.775  0.00  0.00    +0.039 C 
BRANCH  30  32
ATOM     32  O   UNL     1      -0.430   3.935  -3.208  0.00  0.00    -0.390 OA
ATOM     33  H   UNL     1      -0.150   4.861  -3.205  0.00  0.00    +0.210 HD
ENDBRANCH  30  32
ENDBRANCH  29  30
ENDBRANCH  11  29
TORSDOF 7
