REMARK  Name = ZINC13564739
REMARK  11 active torsions:
REMARK  status: ('A' for Active; 'I' for Inactive)
REMARK    1  A    between atoms: C_1  and  O_2
REMARK    2  A    between atoms: O_2  and  C_3
REMARK    3  A    between atoms: C_6  and  C_11
REMARK    4  A    between atoms: C_8  and  O_9
REMARK    5  A    between atoms: O_9  and  C_10
REMARK    6  A    between atoms: C_11  and  C_12
REMARK    7  A    between atoms: C_12  and  N_13
REMARK    8  A    between atoms: N_13  and  C_14
REMARK    9  A    between atoms: C_14  and  C_15
REMARK   10  A    between atoms: C_18  and  C_32
REMARK   11  A    between atoms: N_20  and  C_26
REMARK                            x       y       z     vdW  Elec       q    Type
REMARK                         _______ _______ _______ _____ _____    ______ ____
ROOT
ATOM      1  C   UNL     1       1.979  -4.389   8.792  0.00  0.00    +0.001 A 
ATOM      2  C   UNL     1       2.448  -3.650   9.833  0.00  0.00    +0.020 A 
ATOM      3  C   UNL     1       3.093  -4.305  10.903  0.00  0.00    +0.045 A 
ATOM      4  C   UNL     1       3.705  -3.843  12.152  0.00  0.00    +0.102 A 
ATOM      5  N   UNL     1       4.160  -4.904  12.777  0.00  0.00    -0.164 NA
ATOM      6  N   UNL     1       3.887  -6.048  12.019  0.00  0.00    -0.215 N 
ATOM      7  C   UNL     1       3.239  -5.693  10.879  0.00  0.00    +0.145 A 
ATOM      8  N   UNL     1       2.755  -6.409   9.817  0.00  0.00    -0.307 N 
ATOM      9  H   UNL     1       2.857  -7.373   9.801  0.00  0.00    +0.170 HD
ATOM     10  C   UNL     1       2.135  -5.787   8.797  0.00  0.00    +0.252 A 
ATOM     11  O   UNL     1       1.707  -6.443   7.862  0.00  0.00    -0.268 OA
ENDROOT
BRANCH   4  12
ATOM     12  C   UNL     1       3.795  -2.440  12.621  0.00  0.00    +0.005 A 
ATOM     13  C   UNL     1       3.970  -1.405  11.703  0.00  0.00    +0.010 A 
ATOM     14  C   UNL     1       4.052  -0.100  12.145  0.00  0.00    +0.003 A 
ATOM     15  C   UNL     1       3.961   0.183  13.495  0.00  0.00    +0.038 A 
ATOM     16  C   UNL     1       3.788  -0.840  14.413  0.00  0.00    +0.124 A 
ATOM     17  C   UNL     1       3.698  -2.150  13.981  0.00  0.00    +0.048 A 
ATOM     18  F   UNL     1       3.701  -0.557  15.731  0.00  0.00    -0.205 F 
ENDBRANCH   4  12
BRANCH   6  19
ATOM     19  C   UNL     1       4.229  -7.357  12.380  0.00  0.00    +0.068 A 
ATOM     20  C   UNL     1       3.392  -8.413  12.044  0.00  0.00    +0.028 A 
ATOM     21  C   UNL     1       3.732  -9.703  12.402  0.00  0.00    +0.002 A 
ATOM     22  C   UNL     1       4.905  -9.944  13.094  0.00  0.00    +0.000 A 
ATOM     23  C   UNL     1       5.740  -8.894  13.430  0.00  0.00    +0.002 A 
ATOM     24  C   UNL     1       5.409  -7.603  13.070  0.00  0.00    +0.028 A 
ENDBRANCH   6  19
BRANCH   1  25
ATOM     25  C   UNL     1       1.286  -3.711   7.638  0.00  0.00    -0.041 C 
BRANCH  25  26
ATOM     26  N   UNL     1       2.255  -3.465   6.561  0.00  0.00    +0.382 N 
ATOM     27  H   UNL     1       2.644  -4.343   6.252  0.00  0.00    -0.085 HD
ATOM     28  H   UNL     1       2.996  -2.871   6.905  0.00  0.00    -0.085 HD
BRANCH  26  29
ATOM     29  C   UNL     1       1.580  -2.804   5.436  0.00  0.00    -0.077 C 
BRANCH  29  30
ATOM     30  C   UNL     1       2.590  -2.548   4.315  0.00  0.00    +0.016 C 
BRANCH  30  34
ATOM     31  C   UNL     1       0.626  -0.619   1.042  0.00  0.00    +0.161 A 
ATOM     32  C   UNL     1       1.202   0.137   2.051  0.00  0.00    +0.049 A 
ATOM     33  C   UNL     1       1.836  -0.490   3.108  0.00  0.00    +0.007 A 
ATOM     34  C   UNL     1       1.897  -1.870   3.161  0.00  0.00    -0.045 A 
ATOM     35  C   UNL     1       1.325  -2.630   2.158  0.00  0.00    +0.053 A 
ATOM     36  C   UNL     1       0.683  -2.008   1.099  0.00  0.00    +0.162 A 
BRANCH  31  38
ATOM     37  C   UNL     1      -0.017   1.425   0.010  0.00  0.00    +0.277 C 
ATOM     38  O   UNL     1       0.002  -0.004   0.002  0.00  0.00    -0.491 OA
ENDBRANCH  31  38
BRANCH  36  39
ATOM     39  O   UNL     1       0.115  -2.754   0.114  0.00  0.00    -0.491 OA
ATOM     40  C   UNL     1       0.211  -4.174   0.238  0.00  0.00    +0.277 C 
ENDBRANCH  36  39
ENDBRANCH  30  34
ENDBRANCH  29  30
ENDBRANCH  26  29
ENDBRANCH  25  26
ENDBRANCH   1  25
TORSDOF 9
