REMARK  Name = ZINC03036916
REMARK  9 active torsions:
REMARK  status: ('A' for Active; 'I' for Inactive)
REMARK    1  A    between atoms: C_1  and  C_2
REMARK    2  A    between atoms: C_4  and  N_29
REMARK    3  A    between atoms: C_6  and  C_28
REMARK    4  A    between atoms: C_7  and  O_8
REMARK    5  A    between atoms: O_8  and  C_9
REMARK    6  A    between atoms: C_9  and  C_10
REMARK    7  A    between atoms: N_12  and  N_13
REMARK    8  A    between atoms: C_14  and  C_15
REMARK    9  A    between atoms: C_18  and  C_20
REMARK                            x       y       z     vdW  Elec       q    Type
REMARK                         _______ _______ _______ _____ _____    ______ ____
ROOT
ATOM      1  C   UNL     1      -1.156  -0.694   0.009  0.00  0.00    +0.270 C 
ATOM      2  O   UNL     1      -2.215  -0.102   0.023  0.00  0.00    -0.270 OA
ATOM      3  N   UNL     1       0.002  -0.004   0.002  0.00  0.00    -0.204 N 
ATOM      4  H   UNL     1       0.849  -0.478  -0.009  0.00  0.00    +0.177 HD
ENDROOT
BRANCH   3   5
ATOM      5  N   UNL     1      -0.017   1.397   0.010  0.00  0.00    -0.185 NA
ATOM      6  C   UNL     1       1.101   2.063   0.003  0.00  0.00    +0.176 C 
BRANCH   6   7
ATOM      7  C   UNL     1       1.082   3.527   0.011  0.00  0.00    +0.148 A 
ATOM      8  C   UNL     1       2.186   4.351   0.005  0.00  0.00    +0.051 A 
ATOM      9  C   UNL     1       1.707   5.668   0.016  0.00  0.00    +0.050 A 
ATOM     10  C   UNL     1       0.346   5.599   0.028  0.00  0.00    +0.136 A 
ATOM     11  O   UNL     1      -0.021   4.304   0.019  0.00  0.00    -0.454 OA
BRANCH  10  12
ATOM     12  C   UNL     1      -0.574   6.754   0.042  0.00  0.00    +0.019 A 
ATOM     13  C   UNL     1      -1.956   6.550   0.054  0.00  0.00    +0.013 A 
ATOM     14  C   UNL     1      -2.810   7.632   0.068  0.00  0.00    +0.022 A 
ATOM     15  C   UNL     1      -2.301   8.920   0.069  0.00  0.00    +0.059 A 
ATOM     16  C   UNL     1      -0.931   9.130   0.057  0.00  0.00    +0.060 A 
ATOM     17  C   UNL     1      -0.066   8.055   0.050  0.00  0.00    +0.033 A 
ATOM     18 CL   UNL     1      -0.303  10.748   0.059  0.00  0.00    -0.082 Cl
ATOM     19 CL   UNL     1      -3.384  10.277   0.085  0.00  0.00    -0.082 Cl
ENDBRANCH  10  12
ENDBRANCH   6   7
ENDBRANCH   3   5
BRANCH   1  20
ATOM     20  C   UNL     1      -1.135  -2.201   0.001  0.00  0.00    +0.326 C 
BRANCH  20  21
ATOM     21  O   UNL     1      -2.476  -2.695   0.011  0.00  0.00    -0.482 OA
BRANCH  21  28
ATOM     22  C   UNL     1      -2.665  -3.974  -2.501  0.00  0.00    +0.047 C 
ATOM     23  C   UNL     1      -2.735  -4.728  -1.198  0.00  0.00    -0.006 A 
ATOM     24  C   UNL     1      -2.892  -6.100  -1.201  0.00  0.00    +0.039 A 
ATOM     25  C   UNL     1      -2.962  -6.792  -0.006  0.00  0.00    +0.127 A 
ATOM     26  C   UNL     1      -2.869  -6.113   1.195  0.00  0.00    +0.039 A 
ATOM     27  C   UNL     1      -2.706  -4.741   1.203  0.00  0.00    -0.006 A 
ATOM     28  C   UNL     1      -2.636  -4.045   0.005  0.00  0.00    +0.127 A 
ATOM     29  C   UNL     1      -2.604  -4.002   2.513  0.00  0.00    +0.047 C 
BRANCH  25  30
ATOM     30  N   UNL     1      -3.135  -8.262  -0.012  0.00  0.00    +0.056 N 
ATOM     31  O   UNL     1      -3.196  -8.872   1.040  0.00  0.00    -0.126 OA
ATOM     32  O   UNL     1      -3.217  -8.861  -1.070  0.00  0.00    -0.126 OA
ENDBRANCH  25  30
ENDBRANCH  21  28
ENDBRANCH  20  21
ENDBRANCH   1  20
TORSDOF 7
