REMARK  Name = ZINC66856549
REMARK  7 active torsions:
REMARK  status: ('A' for Active; 'I' for Inactive)
REMARK    1  A    between atoms: C_1  and  C_2
REMARK    2  A    between atoms: C_2  and  C_4
REMARK    3  A    between atoms: C_2  and  N_22
REMARK    4  A    between atoms: N_6  and  C_7
REMARK    5  A    between atoms: C_10  and  C_13
REMARK    6  A    between atoms: C_23  and  C_25
REMARK    7  A    between atoms: C_25  and  C_26
REMARK                            x       y       z     vdW  Elec       q    Type
REMARK                         _______ _______ _______ _____ _____    ______ ____
ROOT
ATOM      1  C   UNL     1       0.680  -0.536  -1.240  0.00  0.00    +0.237 C 
ATOM      2  O   UNL     1       1.653  -1.253  -1.147  0.00  0.00    -0.273 OA
ATOM      3  N   UNL     1       0.231  -0.164  -2.456  0.00  0.00    -0.284 N 
ATOM      4  H   UNL     1      -0.585   0.354  -2.534  0.00  0.00    +0.155 HD
ENDROOT
BRANCH   3   5
ATOM      5  C   UNL     1       0.941  -0.526  -3.604  0.00  0.00    +0.033 A 
ATOM      6  C   UNL     1       1.586  -1.756  -3.662  0.00  0.00    +0.024 A 
ATOM      7  C   UNL     1       2.287  -2.115  -4.793  0.00  0.00    +0.013 A 
ATOM      8  C   UNL     1       2.350  -1.242  -5.880  0.00  0.00    +0.019 A 
ATOM      9  C   UNL     1       1.702  -0.007  -5.818  0.00  0.00    +0.013 A 
ATOM     10  C   UNL     1       0.998   0.344  -4.687  0.00  0.00    +0.024 A 
BRANCH   8  11
ATOM     11  C   UNL     1       3.102  -1.624  -7.094  0.00  0.00    +0.164 A 
ATOM     12  N   UNL     1       3.518  -0.816  -8.049  0.00  0.00    -0.129 NA
ATOM     13  N   UNL     1       4.141  -1.492  -8.953  0.00  0.00    -0.134 NA
ATOM     14  C   UNL     1       4.157  -2.750  -8.630  0.00  0.00    +0.134 A 
ATOM     15  N   UNL     1       3.504  -2.877  -7.440  0.00  0.00    -0.311 N 
ATOM     16  C   UNL     1       3.303  -4.138  -6.727  0.00  0.00    +0.125 C 
ATOM     17  C   UNL     1       3.551  -5.297  -7.700  0.00  0.00    +0.022 C 
ATOM     18  C   UNL     1       4.892  -5.092  -8.412  0.00  0.00    +0.009 C 
ATOM     19  C   UNL     1       4.772  -3.905  -9.380  0.00  0.00    +0.076 C 
ENDBRANCH   8  11
ENDBRANCH   3   5
BRANCH   1  21
ATOM     20  C   UNL     1      -0.001   1.469   0.050  0.00  0.00    +0.038 C 
ATOM     21  C   UNL     1      -0.028  -0.060   0.002  0.00  0.00    +0.156 C 
BRANCH  21  22
ATOM     22  N   UNL     1       0.649  -0.597   1.185  0.00  0.00    -0.304 N 
ATOM     23  C   UNL     1      -0.031  -0.751   2.339  0.00  0.00    +0.214 C 
ATOM     24  O   UNL     1      -1.203  -0.444   2.397  0.00  0.00    -0.276 OA
ATOM     25  H   UNL     1       1.586  -0.843   1.139  0.00  0.00    +0.149 HD
BRANCH  23  26
ATOM     26  C   UNL     1       0.665  -1.303   3.556  0.00  0.00    +0.099 C 
BRANCH  26  27
ATOM     27  C   UNL     1      -0.325  -1.374   4.721  0.00  0.00    -0.002 C 
ATOM     28  C   UNL     1      -0.715   0.049   5.170  0.00  0.00    +0.004 C 
ATOM     29  C   UNL     1      -0.835  -0.059   6.711  0.00  0.00    +0.000 C 
ATOM     30  C   UNL     1       0.325  -1.017   7.077  0.00  0.00    +0.000 C 
ATOM     31  C   UNL     1       0.337  -2.052   5.934  0.00  0.00    +0.004 C 
ENDBRANCH  26  27
ENDBRANCH  23  26
ENDBRANCH  21  22
ENDBRANCH   1  21
TORSDOF 6
