REMARK  Name = ZINC08415236
REMARK  8 active torsions:
REMARK  status: ('A' for Active; 'I' for Inactive)
REMARK    1  A    between atoms: C_1  and  C_2
REMARK    2  A    between atoms: C_3  and  C_30
REMARK    3  A    between atoms: C_4  and  C_21
REMARK    4  A    between atoms: C_10  and  C_15
REMARK    5  A    between atoms: C_24  and  O_29
REMARK    6  A    between atoms: C_25  and  O_27
REMARK    7  A    between atoms: O_27  and  C_28
REMARK    8  A    between atoms: N_32  and  C_33
REMARK                            x       y       z     vdW  Elec       q    Type
REMARK                         _______ _______ _______ _____ _____    ______ ____
ROOT
ATOM      1  C   UNL     1       5.850   1.524  -0.167  0.00  0.00    +0.061 C 
ATOM      2  C   UNL     1       5.965   3.026  -0.117  0.00  0.00    +0.014 C 
ATOM      3  C   UNL     1       4.854   3.778  -0.049  0.00  0.00    +0.043 C 
ATOM      4  C   UNL     1       4.929   5.275   0.003  0.00  0.00    +0.090 C 
ATOM      5  C   UNL     1       6.279   5.767  -0.448  0.00  0.00    +0.024 C 
ATOM      6  C   UNL     1       7.338   4.930  -0.493  0.00  0.00    +0.016 C 
ATOM      7  N   UNL     1       7.199   3.614  -0.144  0.00  0.00    -0.321 N 
ATOM      8  C   UNL     1       8.697   5.421  -0.926  0.00  0.00    +0.059 C 
ATOM      9  C   UNL     1       8.535   6.555  -1.941  0.00  0.00    +0.032 C 
ATOM     10  C   UNL     1       7.719   7.677  -1.290  0.00  0.00    +0.088 C 
ATOM     11  C   UNL     1       6.405   7.117  -0.819  0.00  0.00    +0.162 C 
ATOM     12  O   UNL     1       5.434   7.845  -0.757  0.00  0.00    -0.292 OA
ATOM     13  H   UNL     1       8.093   3.029   0.118  0.00  0.00    +0.152 HD
ENDROOT
BRANCH   9  14
ATOM     14  C   UNL     1       9.892   7.079  -2.335  0.00  0.00    -0.044 A 
ATOM     15  C   UNL     1      10.739   7.597  -1.374  0.00  0.00    +0.004 A 
ATOM     16  C   UNL     1      11.985   8.074  -1.735  0.00  0.00    +0.000 A 
ATOM     17  C   UNL     1      12.380   8.041  -3.060  0.00  0.00    +0.000 A 
ATOM     18  C   UNL     1      11.531   7.528  -4.022  0.00  0.00    +0.000 A 
ATOM     19  C   UNL     1      10.287   7.047  -3.660  0.00  0.00    +0.004 A 
ENDBRANCH   9  14
BRANCH   4  20
ATOM     20  C   UNL     1       4.687   5.735   1.418  0.00  0.00    -0.032 A 
ATOM     21  C   UNL     1       5.526   5.313   2.432  0.00  0.00    +0.008 A 
ATOM     22  C   UNL     1       5.312   5.737   3.731  0.00  0.00    +0.049 A 
ATOM     23  C   UNL     1       4.248   6.576   4.020  0.00  0.00    +0.158 A 
ATOM     24  C   UNL     1       3.400   6.995   2.999  0.00  0.00    +0.162 A 
ATOM     25  C   UNL     1       3.624   6.572   1.699  0.00  0.00    +0.054 A 
BRANCH  24  26
ATOM     26  O   UNL     1       2.354   7.819   3.277  0.00  0.00    -0.491 OA
ATOM     27  C   UNL     1       1.526   8.209   2.180  0.00  0.00    +0.277 C 
ENDBRANCH  24  26
BRANCH  23  28
ATOM     28  O   UNL     1       4.033   6.988   5.297  0.00  0.00    -0.503 OA
ATOM     29  H   UNL     1       3.188   7.655   5.525  0.00  0.00    +0.292 HD
ENDBRANCH  23  28
ENDBRANCH   4  20
BRANCH   3  30
ATOM     30  C   UNL     1       3.587   3.144  -0.030  0.00  0.00    +0.247 C 
ATOM     31  O   UNL     1       2.962   3.002  -1.065  0.00  0.00    -0.270 OA
ATOM     32  N   UNL     1       3.072   2.700   1.134  0.00  0.00    -0.279 N 
ATOM     33  H   UNL     1       3.592   2.910   2.081  0.00  0.00    +0.155 HD
BRANCH  32  34
ATOM     34  C   UNL     1       1.878   1.971   1.138  0.00  0.00    +0.069 A 
ATOM     35  C   UNL     1       1.487   1.268   0.007  0.00  0.00    +0.026 A 
ATOM     36  C   UNL     1       0.307   0.549   0.014  0.00  0.00    +0.002 A 
ATOM     37  C   UNL     1      -0.488   0.533   1.145  0.00  0.00    +0.003 A 
ATOM     38  C   UNL     1      -0.101   1.227   2.276  0.00  0.00    +0.040 A 
ATOM     39  C   UNL     1       1.079   1.949   2.277  0.00  0.00    +0.144 A 
ATOM     40  F   UNL     1       1.454   2.631   3.380  0.00  0.00    -0.204 F 
ENDBRANCH  32  34
ENDBRANCH   3  30
TORSDOF 6
