REMARK  Name = ZINC35758086
REMARK  6 active torsions:
REMARK  status: ('A' for Active; 'I' for Inactive)
REMARK    1  A    between atoms: C_3  and  C_15
REMARK    2  A    between atoms: C_5  and  N_7
REMARK    3  A    between atoms: C_8  and  C_10
REMARK    4  A    between atoms: C_17  and  C_31
REMARK    5  A    between atoms: N_19  and  C_23
REMARK    6  A    between atoms: C_23  and  C_24
REMARK                            x       y       z     vdW  Elec       q    Type
REMARK                         _______ _______ _______ _____ _____    ______ ____
ROOT
ATOM      1  C   UNL     1       3.628   2.243   0.053  0.00  0.00    +0.238 C 
ATOM      2  C   UNL     1       4.008   2.754   1.464  0.00  0.00    +0.210 C 
ATOM      3  N   UNL     1       4.372   4.160   1.198  0.00  0.00    -0.248 N 
ATOM      4  C   UNL     1       3.921   4.476  -0.030  0.00  0.00    +0.405 C 
ATOM      5  O   UNL     1       4.090   5.561  -0.550  0.00  0.00    -0.226 OA
ATOM      6  O   UNL     1       3.264   3.462  -0.621  0.00  0.00    -0.440 OA
ENDROOT
BRANCH   1   9
ATOM      7  C   UNL     1       0.093   0.926   0.249  0.00  0.00    +0.002 A 
ATOM      8  C   UNL     1       1.170   1.792   0.187  0.00  0.00    +0.007 A 
ATOM      9  C   UNL     1       2.458   1.295   0.121  0.00  0.00    -0.003 A 
ATOM     10  C   UNL     1       2.674  -0.069   0.118  0.00  0.00    +0.030 A 
ATOM     11  C   UNL     1       1.595  -0.942   0.180  0.00  0.00    +0.034 A 
ATOM     12  C   UNL     1       0.302  -0.439   0.246  0.00  0.00    +0.023 A 
BRANCH  11  13
ATOM     13  N   UNL     1       1.811  -2.323   0.177  0.00  0.00    -0.279 N 
ATOM     14  C   UNL     1       1.010  -3.132   0.899  0.00  0.00    +0.284 C 
ATOM     15  O   UNL     1       0.055  -2.668   1.495  0.00  0.00    -0.266 OA
ATOM     16  H   UNL     1       2.536  -2.700  -0.345  0.00  0.00    +0.155 HD
BRANCH  14  17
ATOM     17  C   UNL     1       1.288  -4.570   0.966  0.00  0.00    +0.189 A 
ATOM     18  C   UNL     1       0.558  -5.497   1.652  0.00  0.00    +0.054 A 
ATOM     19  C   UNL     1       1.179  -6.738   1.440  0.00  0.00    +0.042 A 
ATOM     20  C   UNL     1       2.248  -6.516   0.642  0.00  0.00    +0.196 A 
ATOM     21  O   UNL     1       2.307  -5.209   0.355  0.00  0.00    -0.458 OA
ENDBRANCH  14  17
ENDBRANCH  11  13
ENDBRANCH   1   9
BRANCH   2  22
ATOM     22  C   UNL     1       5.181   1.986   2.015  0.00  0.00    +0.235 C 
ATOM     23  O   UNL     1       6.284   2.490   2.027  0.00  0.00    -0.274 OA
ATOM     24  N   UNL     1       5.005   0.739   2.496  0.00  0.00    -0.328 N 
ATOM     25  H   UNL     1       4.122   0.336   2.487  0.00  0.00    +0.145 HD
ATOM     26  H   UNL     1       5.760   0.245   2.851  0.00  0.00    +0.145 HD
ENDBRANCH   2  22
BRANCH   3  27
ATOM     27  C   UNL     1       5.095   5.051   2.108  0.00  0.00    +0.147 C 
BRANCH  27  28
ATOM     28  C   UNL     1       4.107   5.873   2.897  0.00  0.00    -0.030 A 
ATOM     29  C   UNL     1       3.599   7.042   2.362  0.00  0.00    +0.008 A 
ATOM     30  C   UNL     1       2.693   7.796   3.084  0.00  0.00    +0.038 A 
ATOM     31  C   UNL     1       2.295   7.380   4.343  0.00  0.00    +0.123 A 
ATOM     32  C   UNL     1       2.804   6.208   4.877  0.00  0.00    +0.038 A 
ATOM     33  C   UNL     1       3.706   5.453   4.151  0.00  0.00    +0.008 A 
ATOM     34  F   UNL     1       1.409   8.116   5.050  0.00  0.00    -0.205 F 
ENDBRANCH  27  28
ENDBRANCH   3  27
TORSDOF 6
