REMARK  Name = ZINC39991260
REMARK  9 active torsions:
REMARK  status: ('A' for Active; 'I' for Inactive)
REMARK    1  A    between atoms: C_1  and  C_2
REMARK    2  A    between atoms: C_2  and  C_30
REMARK    3  A    between atoms: C_4  and  N_10
REMARK    4  A    between atoms: C_6  and  C_8
REMARK    5  A    between atoms: C_6  and  C_9
REMARK    6  A    between atoms: C_11  and  C_13
REMARK    7  A    between atoms: C_13  and  S_14
REMARK    8  A    between atoms: S_14  and  C_15
REMARK    9  A    between atoms: C_19  and  C_21
REMARK                            x       y       z     vdW  Elec       q    Type
REMARK                         _______ _______ _______ _____ _____    ______ ____
ROOT
ATOM      1  C   UNL     1       4.312  -0.866  -4.426  0.00  0.00    +0.170 C 
ENDROOT
BRANCH   1   3
ATOM      2  N   UNL     1       2.615  -0.819  -2.626  0.00  0.00    -0.312 N 
ATOM      3  C   UNL     1       3.770  -0.334  -3.123  0.00  0.00    +0.223 C 
ATOM      4  O   UNL     1       4.374   0.530  -2.523  0.00  0.00    -0.275 OA
ATOM      5  H   UNL     1       2.133  -1.510  -3.106  0.00  0.00    +0.149 HD
BRANCH   2   9
ATOM      6  C   UNL     1      -0.019   1.528   0.010  0.00  0.00    -0.010 C 
ATOM      7  C   UNL     1       0.002  -0.004   0.002  0.00  0.00    -0.072 C 
ATOM      8  C   UNL     1       0.573  -0.505  -1.321  0.00  0.00    +0.009 C 
ATOM      9  C   UNL     1       2.088  -0.301  -1.357  0.00  0.00    +0.070 C 
ATOM     10  C   UNL     1       2.703  -1.086  -0.198  0.00  0.00    +0.009 C 
ATOM     11  C   UNL     1       2.147  -0.590   1.133  0.00  0.00    -0.072 C 
ATOM     12  N   UNL     1       0.697  -0.529   1.164  0.00  0.00    +0.386 N 
ATOM     13  C   UNL     1       2.769   0.766   1.481  0.00  0.00    -0.010 C 
ATOM     14  C   UNL     1       2.600  -1.589   2.223  0.00  0.00    -0.010 C 
ATOM     15  C   UNL     1      -1.468  -0.478   0.079  0.00  0.00    -0.010 C 
ATOM     16  H   UNL     1       0.416   0.021   1.982  0.00  0.00    -0.084 HD
ATOM     17  H   UNL     1       0.341  -1.472   1.351  0.00  0.00    -0.084 HD
ENDBRANCH   2   9
ENDBRANCH   1   3
BRANCH   1  18
ATOM     18  S   UNL     1       5.867  -0.020  -4.824  0.00  0.00    -0.087 S 
BRANCH  18  19
ATOM     19  C   UNL     1       6.380  -0.764  -6.397  0.00  0.00    +0.339 C 
ATOM     20  N   UNL     1       5.338  -0.573  -7.420  0.00  0.00    -0.219 N 
ATOM     21  N   UNL     1       4.937  -1.864  -7.794  0.00  0.00    -0.145 NA
ATOM     22  C   UNL     1       5.612  -2.757  -7.120  0.00  0.00    +0.238 C 
ATOM     23  O   UNL     1       6.498  -2.188  -6.263  0.00  0.00    -0.443 OA
ATOM     24  H   UNL     1       5.000   0.269  -7.763  0.00  0.00    +0.173 HD
BRANCH  22  25
ATOM     25  C   UNL     1       5.444  -4.141  -7.266  0.00  0.00    +0.043 C 
ATOM     26  C   UNL     1       4.563  -4.798  -8.127  0.00  0.00    +0.008 A 
ATOM     27  C   UNL     1       3.621  -4.329  -9.067  0.00  0.00    +0.010 A 
ATOM     28  C   UNL     1       2.884  -5.216  -9.783  0.00  0.00    +0.001 A 
ATOM     29  C   UNL     1       3.034  -6.594  -9.615  0.00  0.00    +0.002 A 
ATOM     30  C   UNL     1       3.919  -7.115  -8.730  0.00  0.00    +0.026 A 
ATOM     31  C   UNL     1       4.725  -6.250  -7.946  0.00  0.00    +0.043 A 
ATOM     32  N   UNL     1       5.643  -6.501  -7.033  0.00  0.00    -0.380 N 
ATOM     33  C   UNL     1       6.182  -5.236  -6.527  0.00  0.00    +0.154 C 
ATOM     34  H   UNL     1       5.921  -7.385  -6.745  0.00  0.00    +0.160 HD
ENDBRANCH  22  25
ENDBRANCH  18  19
ENDBRANCH   1  18
TORSDOF 5
