REMARK  Name = ZINC63948073
REMARK  7 active torsions:
REMARK  status: ('A' for Active; 'I' for Inactive)
REMARK    1  A    between atoms: C_1  and  C_2
REMARK    2  A    between atoms: C_5  and  C_27
REMARK    3  A    between atoms: C_7  and  N_8
REMARK    4  A    between atoms: C_9  and  C_11
REMARK    5  A    between atoms: C_13  and  N_24
REMARK    6  A    between atoms: C_16  and  N_17
REMARK    7  A    between atoms: C_20  and  C_23
REMARK                            x       y       z     vdW  Elec       q    Type
REMARK                         _______ _______ _______ _____ _____    ______ ____
ROOT
ATOM      1  N   UNL     1       0.016  -0.009   2.416  0.00  0.00    -0.281 N 
ATOM      2  C   UNL     1      -0.065  -0.684   3.580  0.00  0.00    +0.250 C 
ATOM      3  O   UNL     1      -0.052  -1.900   3.580  0.00  0.00    -0.270 OA
ATOM      4  H   UNL     1       0.071   0.960   2.420  0.00  0.00    +0.155 HD
ENDROOT
BRANCH   1  11
ATOM      5  C   UNL     1      -1.274   1.185   0.184  0.00  0.00    +0.045 C 
ATOM      6  C   UNL     1      -0.598  -0.158   0.086  0.00  0.00    -0.029 A 
ATOM      7  C   UNL     1      -0.591  -0.839  -1.117  0.00  0.00    +0.006 A 
ATOM      8  C   UNL     1       0.026  -2.069  -1.215  0.00  0.00    +0.013 A 
ATOM      9  C   UNL     1       0.646  -2.630  -0.097  0.00  0.00    +0.038 A 
ATOM     10  C   UNL     1       0.639  -1.943   1.116  0.00  0.00    +0.036 A 
ATOM     11  C   UNL     1       0.021  -0.705   1.203  0.00  0.00    +0.037 A 
BRANCH   9  12
ATOM     12  C   UNL     1       1.308  -3.948  -0.199  0.00  0.00    +0.242 C 
ATOM     13  O   UNL     1       1.847  -4.435   0.775  0.00  0.00    -0.270 OA
ATOM     14  N   UNL     1       1.313  -4.611  -1.373  0.00  0.00    -0.325 N 
ATOM     15  H   UNL     1       0.883  -4.223  -2.151  0.00  0.00    +0.145 HD
ATOM     16  H   UNL     1       1.747  -5.476  -1.440  0.00  0.00    +0.145 HD
ENDBRANCH   9  12
ENDBRANCH   1  11
BRANCH   2  17
ATOM     17  C   UNL     1      -0.170   0.052   4.853  0.00  0.00    +0.060 A 
ATOM     18  C   UNL     1      -0.299   1.443   4.853  0.00  0.00    +0.047 A 
ATOM     19  C   UNL     1      -0.397   2.125   6.046  0.00  0.00    +0.127 A 
ATOM     20  C   UNL     1      -0.367   1.438   7.249  0.00  0.00    +0.034 A 
ATOM     21  C   UNL     1      -0.238   0.064   7.267  0.00  0.00    +0.026 A 
ATOM     22  C   UNL     1      -0.145  -0.641   6.073  0.00  0.00    +0.042 A 
BRANCH  22  23
ATOM     23  N   UNL     1      -0.022  -2.025   6.088  0.00  0.00    -0.329 N 
ATOM     24  C   UNL     1      -1.213  -2.881   6.164  0.00  0.00    +0.105 C 
ATOM     25  C   UNL     1      -1.050  -3.850   7.339  0.00  0.00    +0.022 C 
ATOM     26  C   UNL     1       0.266  -4.616   7.184  0.00  0.00    -0.011 C 
ATOM     27  C   UNL     1       1.437  -3.631   7.204  0.00  0.00    +0.022 C 
ATOM     28  C   UNL     1       1.301  -2.659   6.022  0.00  0.00    +0.105 C 
ATOM     29  C   UNL     1       0.416  -5.610   8.338  0.00  0.00    +0.007 C 
ENDBRANCH  22  23
BRANCH  19  30
ATOM     30  N   UNL     1      -0.534   3.599   6.042  0.00  0.00    +0.056 N 
ATOM     31  O   UNL     1      -0.560   4.201   4.995  0.00  0.00    -0.126 OA
ATOM     32  O   UNL     1      -0.620   4.200   7.088  0.00  0.00    -0.126 OA
ENDBRANCH  19  30
ENDBRANCH   2  17
TORSDOF 5
