REMARK  Name = ZINC04840160
REMARK  4 active torsions:
REMARK  status: ('A' for Active; 'I' for Inactive)
REMARK    1  A    between atoms: C_4  and  N_7
REMARK    2  A    between atoms: C_8  and  C_10
REMARK    3  A    between atoms: C_13  and  C_15
REMARK    4  A    between atoms: C_20  and  N_21
REMARK                            x       y       z     vdW  Elec       q    Type
REMARK                         _______ _______ _______ _____ _____    ______ ____
ROOT
ATOM      1  C   UNL     1       1.327  -0.383  -0.019  0.00  0.00    +0.190 A 
ATOM      2  C   UNL     1       0.002  -0.004  -0.004  0.00  0.00    +0.055 A 
ATOM      3  C   UNL     1      -0.017   1.395  -0.006  0.00  0.00    +0.051 A 
ATOM      4  C   UNL     1       1.283   1.814  -0.022  0.00  0.00    +0.138 A 
ATOM      5  O   UNL     1       2.083   0.735  -0.030  0.00  0.00    -0.450 OA
ENDROOT
BRANCH   4   6
ATOM      6  C   UNL     1       1.734   3.220  -0.031  0.00  0.00    +0.048 A 
ATOM      7  C   UNL     1       1.202   4.122  -0.956  0.00  0.00    +0.015 A 
ATOM      8  C   UNL     1       1.623   5.434  -0.955  0.00  0.00    +0.021 A 
ATOM      9  C   UNL     1       2.580   5.857  -0.048  0.00  0.00    +0.043 A 
ATOM     10  C   UNL     1       3.116   4.967   0.868  0.00  0.00    +0.053 A 
ATOM     11  C   UNL     1       2.698   3.652   0.881  0.00  0.00    +0.138 A 
ATOM     12 CL   UNL     1       3.110   7.510  -0.058  0.00  0.00    -0.083 Cl
BRANCH  11  13
ATOM     13  N   UNL     1       3.272   2.702   1.861  0.00  0.00    +0.057 N 
ATOM     14  O   UNL     1       4.113   3.081   2.656  0.00  0.00    -0.126 OA
ATOM     15  O   UNL     1       2.903   1.541   1.871  0.00  0.00    -0.126 OA
ENDBRANCH  11  13
ENDBRANCH   4   6
BRANCH   1  17
ATOM     16  N   UNL     1       3.154  -1.995  -0.038  0.00  0.00    -0.279 N 
ATOM     17  C   UNL     1       1.827  -1.760  -0.022  0.00  0.00    +0.284 C 
ATOM     18  O   UNL     1       1.044  -2.692  -0.011  0.00  0.00    -0.266 OA
ATOM     19  H   UNL     1       3.776  -1.255  -0.115  0.00  0.00    +0.155 HD
BRANCH  16  23
ATOM     20  C   UNL     1       4.581  -5.898   0.243  0.00  0.00    +0.000 A 
ATOM     21  C   UNL     1       3.406  -5.641  -0.439  0.00  0.00    +0.002 A 
ATOM     22  C   UNL     1       2.930  -4.348  -0.534  0.00  0.00    +0.023 A 
ATOM     23  C   UNL     1       3.633  -3.305   0.056  0.00  0.00    +0.034 A 
ATOM     24  C   UNL     1       4.816  -3.566   0.735  0.00  0.00    +0.023 A 
ATOM     25  C   UNL     1       5.283  -4.862   0.832  0.00  0.00    +0.002 A 
ENDBRANCH  16  23
ENDBRANCH   1  17
TORSDOF 4
