REMARK  Name = ZINC01291977
REMARK  8 active torsions:
REMARK  status: ('A' for Active; 'I' for Inactive)
REMARK    1  A    between atoms: C_1  and  C_2
REMARK    2  A    between atoms: C_3  and  C_21
REMARK    3  A    between atoms: C_4  and  C_12
REMARK    4  A    between atoms: C_15  and  N_18
REMARK    5  A    between atoms: N_18  and  C_19
REMARK    6  A    between atoms: N_18  and  C_20
REMARK    7  A    between atoms: C_21  and  O_23
REMARK    8  A    between atoms: O_23  and  C_24
REMARK                            x       y       z     vdW  Elec       q    Type
REMARK                         _______ _______ _______ _____ _____    ______ ____
ROOT
ATOM      1  C   UNL     1       5.239   2.651  -2.372  0.00  0.00    +0.061 C 
ATOM      2  C   UNL     1       4.448   2.258  -1.151  0.00  0.00    +0.020 C 
ATOM      3  C   UNL     1       3.347   1.507  -1.306  0.00  0.00    +0.082 C 
ATOM      4  C   UNL     1       2.480   1.071  -0.155  0.00  0.00    +0.181 C 
ATOM      5  N   UNL     1       3.170   1.340   1.101  0.00  0.00    -0.201 N 
ATOM      6  C   UNL     1       4.292   2.100   1.197  0.00  0.00    +0.240 A 
ATOM      7  N   UNL     1       4.628   2.135   2.455  0.00  0.00    -0.092 NA
ATOM      8  N   UNL     1       3.799   1.443   3.159  0.00  0.00    -0.021 NA
ATOM      9  N   UNL     1       2.885   0.928   2.401  0.00  0.00    -0.042 NA
ATOM     10  N   UNL     1       4.879   2.681   0.082  0.00  0.00    -0.286 N 
ATOM     11  H   UNL     1       5.567   3.359   0.171  0.00  0.00    +0.155 HD
ENDROOT
BRANCH   4  12
ATOM     12  C   UNL     1       1.180   1.834  -0.187  0.00  0.00    -0.018 A 
ATOM     13  C   UNL     1      -0.017   1.152  -0.308  0.00  0.00    +0.008 A 
ATOM     14  C   UNL     1      -1.209   1.849  -0.343  0.00  0.00    +0.023 A 
ATOM     15  C   UNL     1      -1.205   3.235  -0.247  0.00  0.00    +0.029 A 
ATOM     16  C   UNL     1      -0.001   3.916  -0.126  0.00  0.00    +0.023 A 
ATOM     17  C   UNL     1       1.188   3.213  -0.096  0.00  0.00    +0.008 A 
BRANCH  15  18
ATOM     18  N   UNL     1      -2.409   3.942  -0.277  0.00  0.00    -0.336 N 
ATOM     19  C   UNL     1      -2.403   5.403  -0.180  0.00  0.00    +0.129 C 
ATOM     20  C   UNL     1      -3.679   3.221  -0.405  0.00  0.00    +0.129 C 
ENDBRANCH  15  18
ENDBRANCH   4  12
BRANCH   3  21
ATOM     21  C   UNL     1       2.985   1.106  -2.611  0.00  0.00    +0.339 C 
ATOM     22  O   UNL     1       3.600   1.532  -3.571  0.00  0.00    -0.245 OA
BRANCH  21  23
ATOM     23  O   UNL     1       1.956   0.252  -2.794  0.00  0.00    -0.458 OA
BRANCH  23  24
ATOM     24  C   UNL     1       1.645  -0.111  -4.141  0.00  0.00    +0.177 C 
ATOM     25  C   UNL     1       0.623   0.875  -4.711  0.00  0.00    +0.044 C 
ATOM     26  C   UNL     1       0.290   0.487  -6.153  0.00  0.00    +0.004 C 
ATOM     27  C   UNL     1      -0.296  -0.926  -6.178  0.00  0.00    +0.000 C 
ATOM     28  C   UNL     1       0.726  -1.912  -5.608  0.00  0.00    +0.004 C 
ATOM     29  C   UNL     1       1.059  -1.524  -4.166  0.00  0.00    +0.044 C 
ENDBRANCH  23  24
ENDBRANCH  21  23
ENDBRANCH   3  21
TORSDOF 5
