REMARK  Name = ZINC13638421
REMARK  6 active torsions:
REMARK  status: ('A' for Active; 'I' for Inactive)
REMARK    1  A    between atoms: C_4  and  C_7
REMARK    2  A    between atoms: C_7  and  C_8
REMARK    3  A    between atoms: C_8  and  N_9
REMARK    4  A    between atoms: N_9  and  S_10
REMARK    5  A    between atoms: S_10  and  C_13
REMARK    6  A    between atoms: C_26  and  C_29
REMARK                            x       y       z     vdW  Elec       q    Type
REMARK                         _______ _______ _______ _____ _____    ______ ____
ROOT
ATOM      1  C   UNL     1      -1.229   3.133   0.028  0.00  0.00    +0.106 A 
ATOM      2  C   UNL     1      -1.217   1.750   0.017  0.00  0.00    +0.030 A 
ATOM      3  C   UNL     1      -0.013   1.076   0.008  0.00  0.00    +0.025 A 
ATOM      4  C   UNL     1       1.182   1.787   0.000  0.00  0.00    +0.031 A 
ATOM      5  C   UNL     1       1.174   3.171   0.009  0.00  0.00    -0.018 A 
ATOM      6  C   UNL     1      -0.043   3.839   0.021  0.00  0.00    +0.034 A 
ATOM      7  C   UNL     1       2.439   4.001  -0.003  0.00  0.00    +0.049 C 
ATOM      8  C   UNL     1       2.419   4.850   1.269  0.00  0.00    -0.023 C 
ATOM      9  C   UNL     1       3.115   4.278   2.219  0.00  0.00    -0.030 C 
ATOM     10  C   UNL     1       3.697   2.963   1.731  0.00  0.00    +0.033 C 
ATOM     11  C   UNL     1       3.697   3.135   0.194  0.00  0.00    +0.029 C 
ATOM     12  C   UNL     1       3.583   1.793  -0.505  0.00  0.00    +0.105 C 
ATOM     13  N   UNL     1       2.393   1.086  -0.019  0.00  0.00    -0.336 N 
ATOM     14  H   UNL     1       2.443   0.165   0.279  0.00  0.00    +0.147 HD
ENDROOT
BRANCH  12  15
ATOM     15  C   UNL     1       3.467   2.009  -1.992  0.00  0.00    -0.027 A 
ATOM     16  C   UNL     1       2.249   2.355  -2.547  0.00  0.00    +0.006 A 
ATOM     17  C   UNL     1       2.143   2.558  -3.910  0.00  0.00    +0.015 A 
ATOM     18  C   UNL     1       3.253   2.405  -4.720  0.00  0.00    +0.018 A 
ATOM     19  C   UNL     1       4.471   2.054  -4.165  0.00  0.00    +0.015 A 
ATOM     20  C   UNL     1       4.577   1.856  -2.801  0.00  0.00    +0.006 A 
ATOM     21 BR   UNL     1       3.107   2.675  -6.586  0.00  0.00    -0.050 Br
ENDBRANCH  12  15
BRANCH   1  22
ATOM     22  S   UNL     1      -2.764   3.997   0.042  0.00  0.00    +0.058 S 
ATOM     23  O   UNL     1      -3.725   3.110   0.598  0.00  0.00    -0.153 OA
ATOM     24  O   UNL     1      -2.503   5.280   0.596  0.00  0.00    -0.153 OA
BRANCH  22  25
ATOM     25  N   UNL     1      -3.203   4.243  -1.535  0.00  0.00    -0.190 NA
ATOM     26  H   UNL     1      -3.252   5.144  -1.890  0.00  0.00    +0.148 HD
BRANCH  25  27
ATOM     27  C   UNL     1      -3.516   3.099  -2.395  0.00  0.00    +0.110 C 
BRANCH  27  28
ATOM     28  C   UNL     1      -4.237   3.588  -3.652  0.00  0.00    +0.052 C 
BRANCH  28  32
ATOM     29  C   UNL     1      -5.151   0.252  -6.160  0.00  0.00    +0.000 A 
ATOM     30  C   UNL     1      -6.056   0.663  -5.199  0.00  0.00    +0.000 A 
ATOM     31  C   UNL     1      -5.760   1.743  -4.388  0.00  0.00    +0.003 A 
ATOM     32  C   UNL     1      -4.559   2.411  -4.537  0.00  0.00    -0.046 A 
ATOM     33  C   UNL     1      -3.656   2.003  -5.501  0.00  0.00    +0.003 A 
ATOM     34  C   UNL     1      -3.950   0.921  -6.309  0.00  0.00    +0.000 A 
ENDBRANCH  28  32
ENDBRANCH  27  28
ENDBRANCH  25  27
ENDBRANCH  22  25
ENDBRANCH   1  22
TORSDOF 6
