REMARK  Name = ZINC20151683
REMARK  13 active torsions:
REMARK  status: ('A' for Active; 'I' for Inactive)
REMARK    1  A    between atoms: C_1  and  C_2
REMARK    2  A    between atoms: C_2  and  C_3
REMARK    3  A    between atoms: C_2  and  C_4
REMARK    4  A    between atoms: C_2  and  C_5
REMARK    5  A    between atoms: C_8  and  C_11
REMARK    6  A    between atoms: N_13  and  C_14
REMARK    7  A    between atoms: C_14  and  N_16
REMARK    8  A    between atoms: N_16  and  C_17
REMARK    9  A    between atoms: C_20  and  C_25
REMARK   10  A    between atoms: C_21  and  O_23
REMARK   11  A    between atoms: O_23  and  C_24
REMARK   12  A    between atoms: C_28  and  C_30
REMARK   13  A    between atoms: C_30  and  O_31
REMARK                            x       y       z     vdW  Elec       q    Type
REMARK                         _______ _______ _______ _____ _____    ______ ____
ROOT
ATOM      1  N   UNL     1       5.896  -1.613  -6.284  0.00  0.00    -0.296 N 
ATOM      2  H   UNL     1       6.390  -1.239  -5.538  0.00  0.00    +0.154 HD
ENDROOT
BRANCH   1   3
ATOM      3  C   UNL     1       6.582  -2.148  -7.378  0.00  0.00    +0.036 A 
ATOM      4  C   UNL     1       6.181  -1.829  -8.671  0.00  0.00    +0.024 A 
ATOM      5  C   UNL     1       6.853  -2.353  -9.754  0.00  0.00    +0.017 A 
ATOM      6  C   UNL     1       7.940  -3.207  -9.555  0.00  0.00    +0.059 A 
ATOM      7  C   UNL     1       8.344  -3.527  -8.252  0.00  0.00    +0.132 A 
ATOM      8  C   UNL     1       7.666  -2.991  -7.171  0.00  0.00    +0.069 A 
BRANCH   6   9
ATOM      9  C   UNL     1       8.662  -3.770 -10.714  0.00  0.00    +0.139 A 
ATOM     10  C   UNL     1       8.094  -4.390 -11.783  0.00  0.00    +0.050 A 
ATOM     11  C   UNL     1       9.148  -4.766 -12.641  0.00  0.00    +0.047 A 
ATOM     12  C   UNL     1      10.293  -4.361 -12.060  0.00  0.00    +0.131 A 
ATOM     13  O   UNL     1       9.996  -3.754 -10.898  0.00  0.00    -0.457 OA
BRANCH  12  14
ATOM     14  C   UNL     1      11.678  -4.550 -12.622  0.00  0.00    +0.230 C 
BRANCH  14  15
ATOM     15  O   UNL     1      12.020  -3.426 -13.436  0.00  0.00    -0.387 OA
ATOM     16  H   UNL     1      12.901  -3.480 -13.832  0.00  0.00    +0.210 HD
ENDBRANCH  14  15
ENDBRANCH  12  14
ENDBRANCH   6   9
BRANCH   7  17
ATOM     17  O   UNL     1       9.401  -4.356  -8.051  0.00  0.00    -0.494 OA
ATOM     18  C   UNL     1       9.755  -4.638  -6.696  0.00  0.00    +0.277 C 
ENDBRANCH   7  17
ENDBRANCH   1   3
BRANCH   1  19
ATOM     19  C   UNL     1       4.549  -1.619  -6.265  0.00  0.00    +0.141 C 
ATOM     20  S   UNL     1       3.676  -2.180  -7.627  0.00  0.00    -0.018 S 
BRANCH  19  23
ATOM     21  C   UNL     1       2.541  -1.187  -5.156  0.00  0.00    +0.250 C 
ATOM     22  O   UNL     1       1.921  -1.586  -6.123  0.00  0.00    -0.270 OA
ATOM     23  N   UNL     1       3.888  -1.182  -5.175  0.00  0.00    -0.264 N 
ATOM     24  H   UNL     1       4.383  -0.864  -4.403  0.00  0.00    +0.157 HD
BRANCH  21  28
ATOM     25  C   UNL     1       0.459   0.189  -1.720  0.00  0.00    -0.042 A 
ATOM     26  C   UNL     1      -0.250  -0.264  -2.819  0.00  0.00    +0.005 A 
ATOM     27  C   UNL     1       0.420  -0.712  -3.938  0.00  0.00    +0.013 A 
ATOM     28  C   UNL     1       1.816  -0.708  -3.961  0.00  0.00    +0.037 A 
ATOM     29  C   UNL     1       2.525  -0.250  -2.848  0.00  0.00    +0.013 A 
ATOM     30  C   UNL     1       1.842   0.200  -1.737  0.00  0.00    +0.005 A 
BRANCH  25  32
ATOM     31  C   UNL     1       0.083   2.140  -0.236  0.00  0.00    +0.015 C 
ATOM     32  C   UNL     1      -0.280   0.677  -0.500  0.00  0.00    -0.013 C 
ATOM     33  C   UNL     1       0.114  -0.172   0.709  0.00  0.00    +0.015 C 
ATOM     34  C   UNL     1      -1.787   0.560  -0.736  0.00  0.00    +0.015 C 
ENDBRANCH  25  32
ENDBRANCH  21  28
ENDBRANCH  19  23
ENDBRANCH   1  19
TORSDOF 9
