REMARK  Name = ZINC06409953
REMARK  14 active torsions:
REMARK  status: ('A' for Active; 'I' for Inactive)
REMARK    1  A    between atoms: C_1  and  C_2
REMARK    2  A    between atoms: C_7  and  C_14
REMARK    3  A    between atoms: C_14  and  C_16
REMARK    4  A    between atoms: C_14  and  N_73
REMARK    5  A    between atoms: N_20  and  C_21
REMARK    6  A    between atoms: C_21  and  C_22
REMARK    7  A    between atoms: C_21  and  C_23
REMARK    8  A    between atoms: C_21  and  C_24
REMARK    9  A    between atoms: C_25  and  C_26
REMARK   10  A    between atoms: C_25  and  N_73
REMARK   11  A    between atoms: C_32  and  C_33
REMARK   12  A    between atoms: C_32  and  N_73
REMARK   13  A    between atoms: C_36  and  O_39
REMARK   14  A    between atoms: O_39  and  C_40
REMARK                            x       y       z     vdW  Elec       q    Type
REMARK                         _______ _______ _______ _____ _____    ______ ____
ROOT
ATOM      1  C   UNL     1       5.524  -1.418  -1.391  0.00  0.00    +0.040 C 
ENDROOT
BRANCH   1   8
ATOM      2  C   UNL     1       9.545   1.239   4.965  0.00  0.00    +0.044 C 
ATOM      3  C   UNL     1       8.856   0.525   3.830  0.00  0.00    -0.048 A 
ATOM      4  C   UNL     1       8.952  -0.857   3.729  0.00  0.00    +0.004 A 
ATOM      5  C   UNL     1       8.335  -1.523   2.709  0.00  0.00    +0.010 A 
ATOM      6  C   UNL     1       7.600  -0.808   1.758  0.00  0.00    -0.001 A 
ATOM      7  C   UNL     1       6.927  -1.491   0.651  0.00  0.00    +0.017 A 
ATOM      8  C   UNL     1       6.229  -0.746  -0.241  0.00  0.00    +0.011 A 
ATOM      9  C   UNL     1       6.165   0.657  -0.100  0.00  0.00    +0.251 A 
ATOM     10  O   UNL     1       5.536   1.308  -0.916  0.00  0.00    -0.268 OA
ATOM     11  N   UNL     1       6.775   1.292   0.916  0.00  0.00    -0.322 N 
ATOM     12  H   UNL     1       6.708   2.257   0.986  0.00  0.00    +0.169 HD
ATOM     13  C   UNL     1       7.500   0.592   1.857  0.00  0.00    +0.049 A 
ATOM     14  C   UNL     1       8.137   1.250   2.904  0.00  0.00    +0.029 A 
ENDBRANCH   1   8
BRANCH   1  15
ATOM     15  C   UNL     1       6.182  -1.016  -2.687  0.00  0.00    +0.143 A 
ATOM     16  N   UNL     1       6.202   0.183  -3.215  0.00  0.00    -0.115 NA
ATOM     17  N   UNL     1       6.863   0.120  -4.319  0.00  0.00    -0.023 NA
ATOM     18  N   UNL     1       7.257  -1.090  -4.513  0.00  0.00    -0.043 NA
ATOM     19  N   UNL     1       6.857  -1.821  -3.528  0.00  0.00    -0.225 N 
BRANCH  19  20
ATOM     20  C   UNL     1       7.093  -3.256  -3.358  0.00  0.00    +0.059 C 
ATOM     21  C   UNL     1       5.753  -3.994  -3.328  0.00  0.00    +0.036 C 
ATOM     22  C   UNL     1       7.936  -3.776  -4.524  0.00  0.00    +0.036 C 
ATOM     23  C   UNL     1       7.837  -3.498  -2.043  0.00  0.00    +0.036 C 
ENDBRANCH  19  20
ENDBRANCH   1  15
BRANCH   1  24
ATOM     24  N   UNL     1       4.113  -0.977  -1.409  0.00  0.00    +0.395 N 
ATOM     25  H   UNL     1       4.085   0.050  -1.400  0.00  0.00    -0.079 HD
BRANCH  24  26
ATOM     26  C   UNL     1       3.409  -1.488  -0.214  0.00  0.00    -0.041 C 
BRANCH  26  27
ATOM     27  C   UNL     1       3.500  -2.991  -0.150  0.00  0.00    -0.064 A 
ATOM     28  C   UNL     1       4.471  -3.592   0.628  0.00  0.00    +0.002 A 
ATOM     29  C   UNL     1       4.555  -4.970   0.687  0.00  0.00    +0.000 A 
ATOM     30  C   UNL     1       3.666  -5.748  -0.032  0.00  0.00    +0.000 A 
ATOM     31  C   UNL     1       2.694  -5.147  -0.809  0.00  0.00    +0.000 A 
ATOM     32  C   UNL     1       2.611  -3.768  -0.869  0.00  0.00    +0.002 A 
ENDBRANCH  26  27
ENDBRANCH  24  26
BRANCH  24  33
ATOM     33  C   UNL     1       3.447  -1.465  -2.635  0.00  0.00    -0.041 C 
BRANCH  33  34
ATOM     34  C   UNL     1       2.167  -0.694  -2.830  0.00  0.00    -0.064 A 
ATOM     35  C   UNL     1       1.013  -1.099  -2.184  0.00  0.00    +0.005 A 
ATOM     36  C   UNL     1      -0.161  -0.391  -2.356  0.00  0.00    +0.046 A 
ATOM     37  C   UNL     1      -0.183   0.721  -3.186  0.00  0.00    +0.120 A 
ATOM     38  C   UNL     1       0.974   1.122  -3.837  0.00  0.00    +0.046 A 
ATOM     39  C   UNL     1       2.147   0.413  -3.657  0.00  0.00    +0.005 A 
BRANCH  37  40
ATOM     40  O   UNL     1      -1.338   1.416  -3.361  0.00  0.00    -0.495 OA
ATOM     41  C   UNL     1      -2.491   0.946  -2.660  0.00  0.00    +0.277 C 
ENDBRANCH  37  40
ENDBRANCH  33  34
ENDBRANCH  24  33
ENDBRANCH   1  24
TORSDOF 9
