REMARK  Name = ZINC31024020
REMARK  9 active torsions:
REMARK  status: ('A' for Active; 'I' for Inactive)
REMARK    1  A    between atoms: C_1  and  C_2
REMARK    2  A    between atoms: C_2  and  C_3
REMARK    3  A    between atoms: C_2  and  N_4
REMARK    4  A    between atoms: N_7  and  C_8
REMARK    5  A    between atoms: C_11  and  N_14
REMARK    6  A    between atoms: C_15  and  C_17
REMARK    7  A    between atoms: C_19  and  S_26
REMARK    8  A    between atoms: C_22  and  N_23
REMARK    9  A    between atoms: S_26  and  C_27
REMARK                            x       y       z     vdW  Elec       q    Type
REMARK                         _______ _______ _______ _____ _____    ______ ____
ROOT
ATOM      1  C   UNL     1      -2.306   1.042   0.169  0.00  0.00    +0.035 A 
ATOM      2  C   UNL     1      -2.249  -0.340   0.289  0.00  0.00    +0.025 A 
ATOM      3  C   UNL     1      -3.415  -1.075   0.363  0.00  0.00    +0.025 A 
ATOM      4  C   UNL     1      -4.645  -0.433   0.307  0.00  0.00    +0.034 A 
ATOM      5  C   UNL     1      -4.702   0.949   0.181  0.00  0.00    +0.025 A 
ATOM      6  C   UNL     1      -3.536   1.684   0.113  0.00  0.00    +0.025 A 
ENDROOT
BRANCH   1  10
ATOM      7  N   UNL     1       0.101   3.690   0.681  0.00  0.00    -0.297 N 
ATOM      8  C   UNL     1      -1.064   3.013   0.662  0.00  0.00    +0.304 C 
ATOM      9  O   UNL     1      -2.060   3.503   1.157  0.00  0.00    -0.253 OA
ATOM     10  N   UNL     1      -1.123   1.789   0.100  0.00  0.00    -0.269 N 
ATOM     11  H   UNL     1       1.003   3.247   0.234  0.00  0.00    +0.151 HD
ATOM     12  H   UNL     1      -0.242   1.377  -0.414  0.00  0.00    +0.156 HD
BRANCH   7  14
ATOM     13  C   UNL     1       0.398   4.870   2.803  0.00  0.00    +0.027 C 
ATOM     14  C   UNL     1       0.167   5.018   1.298  0.00  0.00    +0.068 C 
ATOM     15  C   UNL     1       1.321   5.810   0.680  0.00  0.00    +0.027 C 
ENDBRANCH   7  14
ENDBRANCH   1  10
BRANCH   4  16
ATOM     16  N   UNL     1      -5.828  -1.180   0.377  0.00  0.00    -0.281 N 
ATOM     17  C   UNL     1      -5.837  -2.466  -0.024  0.00  0.00    +0.250 C 
ATOM     18  O   UNL     1      -4.851  -2.948  -0.547  0.00  0.00    -0.270 OA
ATOM     19  H   UNL     1      -6.749  -0.716   0.759  0.00  0.00    +0.155 HD
BRANCH  17  20
ATOM     20  C   UNL     1      -7.047  -3.293   0.173  0.00  0.00    +0.068 A 
ATOM     21  C   UNL     1      -7.596  -3.437   1.447  0.00  0.00    +0.030 A 
ATOM     22  C   UNL     1      -8.732  -4.214   1.623  0.00  0.00    +0.008 A 
ATOM     23  C   UNL     1      -9.319  -4.845   0.531  0.00  0.00    +0.017 A 
ATOM     24  C   UNL     1      -8.774  -4.701  -0.731  0.00  0.00    +0.034 A 
ATOM     25  C   UNL     1      -7.647  -3.926  -0.917  0.00  0.00    +0.138 A 
BRANCH  25  26
ATOM     26  N   UNL     1      -7.072  -3.771  -2.272  0.00  0.00    +0.057 N 
ATOM     27  O   UNL     1      -7.640  -4.257  -3.234  0.00  0.00    -0.126 OA
ATOM     28  O   UNL     1      -6.031  -3.158  -2.425  0.00  0.00    -0.126 OA
ENDBRANCH  25  26
BRANCH  22  29
ATOM     29  S   UNL     1      -9.431  -4.401   3.229  0.00  0.00    -0.129 S 
ATOM     30  C   UNL     1     -10.866  -5.478   2.961  0.00  0.00    +0.090 C 
ENDBRANCH  22  29
ENDBRANCH  17  20
ENDBRANCH   4  16
TORSDOF 6
