REMARK  Name = ZINC63172471
REMARK  6 active torsions:
REMARK  status: ('A' for Active; 'I' for Inactive)
REMARK    1  A    between atoms: C_1  and  O_2
REMARK    2  A    between atoms: O_2  and  C_3
REMARK    3  A    between atoms: C_6  and  C_23
REMARK    4  A    between atoms: C_8  and  C_9
REMARK    5  A    between atoms: C_9  and  N_10
REMARK    6  A    between atoms: N_13  and  C_16
REMARK                            x       y       z     vdW  Elec       q    Type
REMARK                         _______ _______ _______ _____ _____    ______ ____
ROOT
ATOM      1  C   UNL     1       0.626  -0.618   1.042  0.00  0.00    +0.121 A 
ATOM      2  C   UNL     1       1.202   0.139   2.051  0.00  0.00    +0.046 A 
ATOM      3  C   UNL     1       1.835  -0.488   3.107  0.00  0.00    +0.009 A 
ATOM      4  C   UNL     1       1.895  -1.869   3.158  0.00  0.00    -0.028 A 
ATOM      5  C   UNL     1       1.321  -2.625   2.153  0.00  0.00    +0.010 A 
ATOM      6  C   UNL     1       0.682  -2.003   1.097  0.00  0.00    -0.022 A 
ENDROOT
BRANCH   4   7
ATOM      7  C   UNL     1       2.586  -2.550   4.311  0.00  0.00    +0.111 C 
ATOM      8  C   UNL     1       4.101  -2.522   4.093  0.00  0.00    +0.128 C 
ATOM      9  C   UNL     1       4.725  -3.071   5.372  0.00  0.00    -0.035 C 
ATOM     10  C   UNL     1       5.521  -4.064   5.003  0.00  0.00    -0.001 A 
ATOM     11  C   UNL     1       6.448  -4.915   5.768  0.00  0.00    +0.010 A 
ATOM     12  C   UNL     1       7.110  -5.867   5.060  0.00  0.00    +0.001 A 
ATOM     13  C   UNL     1       6.947  -6.057   3.684  0.00  0.00    +0.002 A 
ATOM     14  C   UNL     1       6.121  -5.317   2.901  0.00  0.00    +0.026 A 
ATOM     15  C   UNL     1       5.373  -4.281   3.531  0.00  0.00    +0.043 A 
ATOM     16  N   UNL     1       4.531  -3.408   3.013  0.00  0.00    -0.376 N 
ATOM     17  C   UNL     1       4.333  -2.547   6.732  0.00  0.00    +0.048 C 
ATOM     18  C   UNL     1       2.794  -2.518   6.755  0.00  0.00    +0.086 C 
ATOM     19  N   UNL     1       2.284  -1.836   5.562  0.00  0.00    -0.307 NA
ATOM     20  H   UNL     1       2.612  -0.883   5.523  0.00  0.00    +0.123 HD
ATOM     21  H   UNL     1       4.240  -3.358   2.089  0.00  0.00    +0.160 HD
ENDBRANCH   4   7
BRANCH   1  23
ATOM     22  C   UNL     1      -0.017   1.425   0.010  0.00  0.00    +0.277 C 
ATOM     23  O   UNL     1       0.002  -0.004   0.002  0.00  0.00    -0.495 OA
ENDBRANCH   1  23
BRANCH   6  24
ATOM     24  C   UNL     1       0.052  -2.828   0.005  0.00  0.00    -0.039 C 
BRANCH  24  25
ATOM     25  N   UNL     1      -1.408  -2.816   0.163  0.00  0.00    +0.384 N 
ATOM     26  C   UNL     1      -1.769  -3.480   1.422  0.00  0.00    -0.059 C 
ATOM     27  C   UNL     1      -3.281  -3.367   1.644  0.00  0.00    +0.086 C 
ATOM     28  N   UNL     1      -3.967  -3.902   0.457  0.00  0.00    -0.331 N 
ATOM     29  C   UNL     1      -3.552  -3.409  -0.865  0.00  0.00    +0.086 C 
ATOM     30  C   UNL     1      -2.027  -3.519  -0.968  0.00  0.00    -0.059 C 
ATOM     31  H   UNL     1      -1.735  -1.862   0.183  0.00  0.00    -0.081 HD
BRANCH  28  32
ATOM     32  C   UNL     1      -4.985  -4.852   0.583  0.00  0.00    +0.065 A 
ATOM     33  C   UNL     1      -6.305  -4.445   0.713  0.00  0.00    +0.026 A 
ATOM     34  C   UNL     1      -7.309  -5.386   0.837  0.00  0.00    +0.002 A 
ATOM     35  C   UNL     1      -7.000  -6.734   0.832  0.00  0.00    +0.003 A 
ATOM     36  C   UNL     1      -5.686  -7.145   0.703  0.00  0.00    +0.040 A 
ATOM     37  C   UNL     1      -4.677  -6.209   0.572  0.00  0.00    +0.144 A 
ATOM     38  F   UNL     1      -3.394  -6.610   0.440  0.00  0.00    -0.204 F 
ENDBRANCH  28  32
ENDBRANCH  24  25
ENDBRANCH   6  24
TORSDOF 5
