REMARK  Name = ZINC20686109
REMARK  6 active torsions:
REMARK  status: ('A' for Active; 'I' for Inactive)
REMARK    1  A    between atoms: C_1  and  C_2
REMARK    2  A    between atoms: C_4  and  N_27
REMARK    3  A    between atoms: C_9  and  C_18
REMARK    4  A    between atoms: C_21  and  N_24
REMARK    5  A    between atoms: N_24  and  C_25
REMARK    6  A    between atoms: N_24  and  C_26
REMARK                            x       y       z     vdW  Elec       q    Type
REMARK                         _______ _______ _______ _____ _____    ______ ____
ROOT
ATOM      1  C   UNL     1       5.013   3.001  -2.828  0.00  0.00    +0.046 C 
ATOM      2  C   UNL     1       4.904   3.500  -1.411  0.00  0.00    -0.027 A 
ATOM      3  C   UNL     1       5.619   4.612  -1.024  0.00  0.00    +0.038 A 
ATOM      4  C   UNL     1       5.528   5.081   0.274  0.00  0.00    +0.127 A 
ATOM      5  C   UNL     1       4.710   4.433   1.179  0.00  0.00    +0.038 A 
ATOM      6  C   UNL     1       3.986   3.322   0.799  0.00  0.00    -0.017 A 
ATOM      7  C   UNL     1       4.079   2.829  -0.506  0.00  0.00    +0.034 A 
ATOM      8  N   UNL     1       3.417   1.691  -0.959  0.00  0.00    -0.336 N 
ATOM      9  C   UNL     1       2.490   1.044  -0.016  0.00  0.00    +0.105 C 
ATOM     10  C   UNL     1       3.133   1.105   1.353  0.00  0.00    +0.029 C 
ATOM     11  C   UNL     1       3.091   2.616   1.741  0.00  0.00    +0.049 C 
ATOM     12  C   UNL     1       3.328   2.594   3.206  0.00  0.00    -0.023 C 
ATOM     13  C   UNL     1       2.879   1.440   3.688  0.00  0.00    -0.030 C 
ATOM     14  C   UNL     1       2.333   0.575   2.549  0.00  0.00    +0.033 C 
ATOM     15  H   UNL     1       3.558   1.272  -1.966  0.00  0.00    +0.147 HD
ENDROOT
BRANCH   9  16
ATOM     16  C   UNL     1       1.176   1.783   0.000  0.00  0.00    -0.027 A 
ATOM     17  C   UNL     1       0.024   1.132   0.401  0.00  0.00    +0.007 A 
ATOM     18  C   UNL     1      -1.183   1.804   0.412  0.00  0.00    +0.023 A 
ATOM     19  C   UNL     1      -1.236   3.138   0.031  0.00  0.00    +0.029 A 
ATOM     20  C   UNL     1      -0.077   3.789  -0.371  0.00  0.00    +0.023 A 
ATOM     21  C   UNL     1       1.125   3.110  -0.385  0.00  0.00    +0.007 A 
BRANCH  19  22
ATOM     22  N   UNL     1      -2.454   3.822   0.046  0.00  0.00    -0.336 N 
ATOM     23  C   UNL     1      -2.509   5.228  -0.362  0.00  0.00    +0.129 C 
ATOM     24  C   UNL     1      -3.675   3.134   0.470  0.00  0.00    +0.129 C 
ENDBRANCH  19  22
ENDBRANCH   9  16
BRANCH   4  25
ATOM     25  N   UNL     1       6.303   6.272   0.690  0.00  0.00    +0.056 N 
ATOM     26  O   UNL     1       7.022   6.841  -0.111  0.00  0.00    -0.126 OA
ATOM     27  O   UNL     1       6.221   6.682   1.834  0.00  0.00    -0.126 OA
ENDBRANCH   4  25
TORSDOF 3
