REMARK  Name = ZINC39678291
REMARK  6 active torsions:
REMARK  status: ('A' for Active; 'I' for Inactive)
REMARK    1  A    between atoms: C_1  and  C_2
REMARK    2  A    between atoms: C_5  and  C_9
REMARK    3  A    between atoms: C_13  and  C_22
REMARK    4  A    between atoms: N_24  and  C_25
REMARK    5  A    between atoms: C_25  and  C_26
REMARK    6  A    between atoms: C_31  and  N_32
REMARK                            x       y       z     vdW  Elec       q    Type
REMARK                         _______ _______ _______ _____ _____    ______ ____
ROOT
ATOM      1  C   UNL     1      -0.608  -3.254  -0.287  0.00  0.00    +0.247 C 
ATOM      2  O   UNL     1      -0.630  -3.721  -1.410  0.00  0.00    -0.270 OA
ATOM      3  N   UNL     1      -0.464  -4.068   0.777  0.00  0.00    -0.296 N 
ATOM      4  C   UNL     1      -0.538  -3.707   2.213  0.00  0.00    +0.121 C 
ATOM      5  C   UNL     1      -1.287  -4.885   2.873  0.00  0.00    +0.100 C 
ATOM      6  C   UNL     1      -1.057  -6.076   1.928  0.00  0.00    -0.004 C 
ATOM      7  C   UNL     1      -0.201  -5.527   0.777  0.00  0.00    +0.115 C 
ATOM      8  C   UNL     1      -2.389  -6.588   1.389  0.00  0.00    -0.010 C 
ATOM      9  C   UNL     1      -2.139  -7.807   0.496  0.00  0.00    -0.082 C 
ATOM     10  N   UNL     1      -1.467  -8.856   1.275  0.00  0.00    +0.379 N 
ATOM     11  C   UNL     1      -0.147  -8.387   1.712  0.00  0.00    -0.082 C 
ATOM     12  C   UNL     1      -0.313  -7.192   2.655  0.00  0.00    -0.010 C 
ATOM     13  H   UNL     1      -2.027  -9.083   2.083  0.00  0.00    -0.086 HD
ATOM     14  H   UNL     1      -1.358  -9.680   0.703  0.00  0.00    -0.086 HD
ENDROOT
BRANCH   1  19
ATOM     15  C   UNL     1      -1.120   2.428   0.475  0.00  0.00    +0.047 C 
ATOM     16  C   UNL     1      -0.985   0.941   0.276  0.00  0.00    -0.015 A 
ATOM     17  C   UNL     1      -1.310   0.377  -0.945  0.00  0.00    +0.007 A 
ATOM     18  C   UNL     1      -1.190  -0.985  -1.134  0.00  0.00    +0.013 A 
ATOM     19  C   UNL     1      -0.738  -1.795  -0.091  0.00  0.00    +0.040 A 
ATOM     20  C   UNL     1      -0.411  -1.222   1.139  0.00  0.00    +0.051 A 
ATOM     21  C   UNL     1      -0.531   0.144   1.314  0.00  0.00    +0.127 A 
ATOM     22  F   UNL     1      -0.210   0.702   2.502  0.00  0.00    -0.205 F 
ENDBRANCH   1  19
BRANCH   5  23
ATOM     23  C   UNL     1      -2.758  -4.577   2.983  0.00  0.00    +0.218 C 
ATOM     24  O   UNL     1      -3.296  -3.883   2.146  0.00  0.00    -0.275 OA
ATOM     25  N   UNL     1      -3.476  -5.071   4.011  0.00  0.00    -0.311 N 
ATOM     26  H   UNL     1      -3.032  -5.563   4.720  0.00  0.00    +0.149 HD
BRANCH  25  27
ATOM     27  C   UNL     1      -4.926  -4.866   4.058  0.00  0.00    +0.141 C 
BRANCH  27  28
ATOM     28  C   UNL     1      -5.468  -5.412   5.354  0.00  0.00    -0.009 A 
ATOM     29  C   UNL     1      -6.101  -6.639   5.376  0.00  0.00    +0.007 A 
ATOM     30  C   UNL     1      -6.600  -7.141   6.564  0.00  0.00    +0.000 A 
ATOM     31  C   UNL     1      -6.467  -6.416   7.734  0.00  0.00    +0.002 A 
ATOM     32  C   UNL     1      -5.835  -5.188   7.720  0.00  0.00    +0.023 A 
ATOM     33  C   UNL     1      -5.328  -4.684   6.528  0.00  0.00    +0.034 A 
BRANCH  33  34
ATOM     34  N   UNL     1      -4.684  -3.444   6.511  0.00  0.00    -0.330 N 
ATOM     35  C   UNL     1      -5.435  -2.215   6.223  0.00  0.00    +0.105 C 
ATOM     36  C   UNL     1      -5.186  -1.210   7.353  0.00  0.00    +0.019 C 
ATOM     37  C   UNL     1      -3.680  -1.001   7.522  0.00  0.00    +0.003 C 
ATOM     38  C   UNL     1      -3.019  -2.329   7.902  0.00  0.00    +0.019 C 
ATOM     39  C   UNL     1      -3.244  -3.345   6.785  0.00  0.00    +0.105 C 
ENDBRANCH  33  34
ENDBRANCH  27  28
ENDBRANCH  25  27
ENDBRANCH   5  23
TORSDOF 5
