REMARK  Name = ZINC02145367
REMARK  7 active torsions:
REMARK  status: ('A' for Active; 'I' for Inactive)
REMARK    1  A    between atoms: C_2  and  C_9
REMARK    2  A    between atoms: N_12  and  C_14
REMARK    3  A    between atoms: C_14  and  C_15
REMARK    4  A    between atoms: N_17  and  N_18
REMARK    5  A    between atoms: N_18  and  C_19
REMARK    6  A    between atoms: C_19  and  N_21
REMARK    7  A    between atoms: C_22  and  C_24
REMARK                            x       y       z     vdW  Elec       q    Type
REMARK                         _______ _______ _______ _____ _____    ______ ____
ROOT
ATOM      1  C   UNL     1      -1.728  -3.638   1.420  0.00  0.00    +0.252 C 
ATOM      2  O   UNL     1      -1.267  -2.998   2.341  0.00  0.00    -0.272 OA
ATOM      3  N   UNL     1      -2.486  -4.725   1.667  0.00  0.00    -0.234 N 
ATOM      4  H   UNL     1      -2.854  -5.237   0.930  0.00  0.00    +0.173 HD
ENDROOT
BRANCH   3   5
ATOM      5  N   UNL     1      -2.742  -5.114   2.988  0.00  0.00    -0.245 N 
ATOM      6  H   UNL     1      -2.374  -4.602   3.725  0.00  0.00    +0.172 HD
BRANCH   5   7
ATOM      7  C   UNL     1      -3.500  -6.201   3.235  0.00  0.00    +0.153 C 
ATOM      8  S   UNL     1      -3.813  -6.677   4.850  0.00  0.00    -0.017 S 
BRANCH   7   9
ATOM      9  N   UNL     1      -4.012  -6.912   2.212  0.00  0.00    -0.266 N 
ATOM     10  C   UNL     1      -4.771  -7.999   2.459  0.00  0.00    +0.222 C 
ATOM     11  O   UNL     1      -4.992  -8.336   3.602  0.00  0.00    -0.275 OA
ATOM     12  H   UNL     1      -3.835  -6.643   1.297  0.00  0.00    +0.157 HD
BRANCH  10  13
ATOM     13  C   UNL     1      -5.343  -8.794   1.314  0.00  0.00    +0.075 C 
ATOM     14  C   UNL     1      -6.859  -8.750   1.111  0.00  0.00    +0.013 C 
ATOM     15  C   UNL     1      -6.197 -10.016   1.660  0.00  0.00    +0.013 C 
ENDBRANCH  10  13
ENDBRANCH   7   9
ENDBRANCH   5   7
ENDBRANCH   3   5
BRANCH   1  16
ATOM     16  C   UNL     1      -1.452  -3.219  -0.001  0.00  0.00    +0.265 C 
BRANCH  16  20
ATOM     17  C   UNL     1       0.002  -0.004   0.002  0.00  0.00    +0.205 A 
ATOM     18  N   UNL     1       1.088  -0.790  -0.012  0.00  0.00    -0.108 NA
ATOM     19  N   UNL     1       0.676  -2.012  -0.015  0.00  0.00    -0.045 NA
ATOM     20  N   UNL     1      -0.611  -2.019  -0.003  0.00  0.00    -0.154 N 
ATOM     21  N   UNL     1      -1.044  -0.806   0.013  0.00  0.00    -0.130 NA
BRANCH  17  23
ATOM     22  C   UNL     1       1.177   2.195   0.003  0.00  0.00    +0.031 A 
ATOM     23  C   UNL     1      -0.018   1.480   0.010  0.00  0.00    +0.025 A 
ATOM     24  C   UNL     1      -1.232   2.163   0.020  0.00  0.00    +0.031 A 
ATOM     25  C   UNL     1      -1.246   3.544   0.033  0.00  0.00    +0.043 A 
ATOM     26  C   UNL     1      -0.056   4.250   0.025  0.00  0.00    +0.040 A 
ATOM     27  C   UNL     1       1.153   3.577   0.010  0.00  0.00    +0.043 A 
ATOM     28 CL   UNL     1       2.643   4.469   0.001  0.00  0.00    -0.083 Cl
ATOM     29 CL   UNL     1      -2.759   4.396   0.051  0.00  0.00    -0.083 Cl
ENDBRANCH  17  23
ENDBRANCH  16  20
ENDBRANCH   1  16
TORSDOF 7
