REMARK  Name = ZINC06135250
REMARK  8 active torsions:
REMARK  status: ('A' for Active; 'I' for Inactive)
REMARK    1  A    between atoms: C_1  and  C_2
REMARK    2  A    between atoms: C_2  and  C_3
REMARK    3  A    between atoms: C_10  and  C_15
REMARK    4  A    between atoms: C_15  and  C_17
REMARK    5  A    between atoms: C_15  and  N_69
REMARK    6  A    between atoms: N_21  and  C_22
REMARK    7  A    between atoms: C_22  and  C_23
REMARK    8  A    between atoms: N_32  and  C_35
REMARK                            x       y       z     vdW  Elec       q    Type
REMARK                         _______ _______ _______ _____ _____    ______ ____
ROOT
ATOM      1  C   UNL     1       6.539  -0.270  -0.307  0.00  0.00    +0.039 C 
ENDROOT
BRANCH   1   9
ATOM      2  C   UNL     1       1.852   3.513  -1.726  0.00  0.00    -0.047 A 
ATOM      3  C   UNL     1       1.405   3.701  -0.425  0.00  0.00    +0.005 A 
ATOM      4  C   UNL     1       2.039   3.087   0.633  0.00  0.00    +0.026 A 
ATOM      5  C   UNL     1       3.139   2.268   0.397  0.00  0.00    +0.049 A 
ATOM      6  C   UNL     1       3.589   2.079  -0.923  0.00  0.00    -0.001 A 
ATOM      7  C   UNL     1       2.930   2.713  -1.982  0.00  0.00    +0.013 A 
ATOM      8  C   UNL     1       4.747   1.214  -1.161  0.00  0.00    +0.017 A 
ATOM      9  C   UNL     1       5.345   0.626  -0.097  0.00  0.00    +0.011 A 
ATOM     10  C   UNL     1       4.854   0.848   1.208  0.00  0.00    +0.251 A 
ATOM     11  O   UNL     1       5.407   0.309   2.151  0.00  0.00    -0.268 OA
ATOM     12  N   UNL     1       3.792   1.640   1.436  0.00  0.00    -0.322 N 
ATOM     13  H   UNL     1       3.470   1.775   2.373  0.00  0.00    +0.169 HD
BRANCH   2  15
ATOM     14  C   UNL     1       1.777   5.564  -3.116  0.00  0.00    +0.009 C 
ATOM     15  C   UNL     1       1.142   4.195  -2.866  0.00  0.00    +0.032 C 
ENDBRANCH   2  15
ENDBRANCH   1   9
BRANCH   1  21
ATOM     16  C   UNL     1       7.984   1.615   0.166  0.00  0.00    -0.058 C 
ATOM     17  C   UNL     1       9.107   2.111   1.079  0.00  0.00    +0.086 C 
ATOM     18  N   UNL     1      10.287   1.251   0.912  0.00  0.00    -0.333 N 
ATOM     19  C   UNL     1       9.969  -0.144   1.244  0.00  0.00    +0.086 C 
ATOM     20  C   UNL     1       8.846  -0.640   0.331  0.00  0.00    -0.058 C 
ATOM     21  N   UNL     1       7.659   0.219   0.525  0.00  0.00    +0.391 N 
ATOM     22  H   UNL     1       7.380   0.185   1.513  0.00  0.00    -0.080 HD
BRANCH  18  23
ATOM     23  C   UNL     1      11.359   1.716   1.677  0.00  0.00    +0.030 A 
ATOM     24  C   UNL     1      11.964   0.881   2.607  0.00  0.00    +0.023 A 
ATOM     25  C   UNL     1      13.027   1.343   3.359  0.00  0.00    +0.002 A 
ATOM     26  C   UNL     1      13.481   2.639   3.195  0.00  0.00    +0.000 A 
ATOM     27  C   UNL     1      12.877   3.475   2.274  0.00  0.00    +0.002 A 
ATOM     28  C   UNL     1      11.817   3.018   1.515  0.00  0.00    +0.023 A 
ENDBRANCH  18  23
ENDBRANCH   1  21
BRANCH   1  29
ATOM     29  C   UNL     1       6.922  -0.262  -1.764  0.00  0.00    +0.143 A 
ATOM     30  N   UNL     1       7.472   0.729  -2.424  0.00  0.00    -0.115 NA
ATOM     31  N   UNL     1       7.645   0.348  -3.642  0.00  0.00    -0.023 NA
ATOM     32  N   UNL     1       7.221  -0.860  -3.777  0.00  0.00    -0.044 NA
ATOM     33  N   UNL     1       6.772  -1.273  -2.640  0.00  0.00    -0.226 N 
BRANCH  33  34
ATOM     34  C   UNL     1       6.203  -2.593  -2.357  0.00  0.00    +0.182 C 
BRANCH  34  35
ATOM     35  C   UNL     1       4.733  -2.587  -2.687  0.00  0.00    -0.026 A 
ATOM     36  C   UNL     1       3.804  -2.319  -1.699  0.00  0.00    +0.008 A 
ATOM     37  C   UNL     1       2.455  -2.309  -2.002  0.00  0.00    +0.038 A 
ATOM     38  C   UNL     1       2.034  -2.578  -3.293  0.00  0.00    +0.123 A 
ATOM     39  C   UNL     1       2.965  -2.852  -4.280  0.00  0.00    +0.038 A 
ATOM     40  C   UNL     1       4.313  -2.856  -3.976  0.00  0.00    +0.008 A 
ATOM     41  F   UNL     1       0.716  -2.573  -3.589  0.00  0.00    -0.205 F 
ENDBRANCH  34  35
ENDBRANCH  33  34
ENDBRANCH   1  29
TORSDOF 7
