REMARK  Name = ZINC16966217
REMARK  6 active torsions:
REMARK  status: ('A' for Active; 'I' for Inactive)
REMARK    1  A    between atoms: C_3  and  C_22
REMARK    2  A    between atoms: C_5  and  N_7
REMARK    3  A    between atoms: C_8  and  C_10
REMARK    4  A    between atoms: C_11  and  C_12
REMARK    5  A    between atoms: C_16  and  N_18
REMARK    6  A    between atoms: N_24  and  C_25
REMARK                            x       y       z     vdW  Elec       q    Type
REMARK                         _______ _______ _______ _____ _____    ______ ____
ROOT
ATOM      1  N   UNL     1      -0.016   1.344   0.009  0.00  0.00    -0.282 N 
ATOM      2  C   UNL     1      -0.962   1.906   0.788  0.00  0.00    +0.241 C 
ATOM      3  O   UNL     1      -0.687   2.869   1.480  0.00  0.00    -0.270 OA
ATOM      4  H   UNL     1      -0.212   0.529  -0.480  0.00  0.00    +0.155 HD
ENDROOT
BRANCH   1   9
ATOM      5  C   UNL     1       3.628   1.706  -0.350  0.00  0.00    +0.003 A 
ATOM      6  C   UNL     1       3.771   3.077  -0.283  0.00  0.00    +0.013 A 
ATOM      7  C   UNL     1       2.647   3.888  -0.117  0.00  0.00    +0.038 A 
ATOM      8  C   UNL     1       1.381   3.309  -0.024  0.00  0.00    +0.036 A 
ATOM      9  C   UNL     1       1.250   1.930  -0.087  0.00  0.00    +0.034 A 
ATOM     10  C   UNL     1       2.375   1.131  -0.253  0.00  0.00    +0.023 A 
BRANCH   7  11
ATOM     11  C   UNL     1       2.797   5.358  -0.045  0.00  0.00    +0.244 C 
ATOM     12  O   UNL     1       1.817   6.062   0.100  0.00  0.00    -0.270 OA
ATOM     13  N   UNL     1       4.020   5.916  -0.141  0.00  0.00    -0.308 N 
ATOM     14  H   UNL     1       4.802   5.354  -0.256  0.00  0.00    +0.149 HD
BRANCH  13  15
ATOM     15  C   UNL     1       4.168   7.372  -0.070  0.00  0.00    +0.073 C 
ATOM     16  C   UNL     1       5.114   8.035  -1.073  0.00  0.00    +0.024 C 
ATOM     17  C   UNL     1       5.516   7.922   0.399  0.00  0.00    +0.024 C 
ENDBRANCH  13  15
ENDBRANCH   7  11
ENDBRANCH   1   9
BRANCH   2  18
ATOM     18  C   UNL     1      -2.320   1.360   0.800  0.00  0.00    +0.068 C 
ATOM     19  C   UNL     1      -3.266   1.923   1.579  0.00  0.00    +0.013 C 
BRANCH  19  20
ATOM     20  C   UNL     1      -4.631   1.374   1.591  0.00  0.00    -0.023 A 
ATOM     21  C   UNL     1      -4.951   0.268   0.796  0.00  0.00    +0.009 A 
ATOM     22  C   UNL     1      -6.231  -0.241   0.814  0.00  0.00    +0.023 A 
ATOM     23  C   UNL     1      -7.201   0.340   1.615  0.00  0.00    +0.071 A 
ATOM     24  C   UNL     1      -6.892   1.435   2.404  0.00  0.00    +0.145 A 
ATOM     25  C   UNL     1      -5.613   1.952   2.402  0.00  0.00    +0.042 A 
ATOM     26 CL   UNL     1      -8.812  -0.308   1.629  0.00  0.00    -0.081 Cl
BRANCH  24  27
ATOM     27  N   UNL     1      -7.934   2.050   3.256  0.00  0.00    +0.058 N 
ATOM     28  O   UNL     1      -7.664   3.013   3.950  0.00  0.00    -0.126 OA
ATOM     29  O   UNL     1      -9.063   1.591   3.263  0.00  0.00    -0.126 OA
ENDBRANCH  24  27
ENDBRANCH  19  20
ENDBRANCH   2  18
TORSDOF 6
