REMARK  Name = ZINC46998330
REMARK  7 active torsions:
REMARK  status: ('A' for Active; 'I' for Inactive)
REMARK    1  A    between atoms: C_1  and  C_2
REMARK    2  A    between atoms: C_2  and  C_3
REMARK    3  A    between atoms: C_2  and  C_4
REMARK    4  A    between atoms: C_4  and  C_6
REMARK    5  A    between atoms: C_4  and  N_18
REMARK    6  A    between atoms: N_8  and  C_9
REMARK    7  A    between atoms: C_19  and  C_21
REMARK                            x       y       z     vdW  Elec       q    Type
REMARK                         _______ _______ _______ _____ _____    ______ ____
ROOT
ATOM      1  C   UNL     1      -1.430  -0.582  -0.147  0.00  0.00    +0.162 C 
ENDROOT
BRANCH   1   2
ATOM      2  C   UNL     1      -2.334   0.061   0.874  0.00  0.00    +0.234 C 
ATOM      3  O   UNL     1      -3.347   0.624   0.517  0.00  0.00    -0.274 OA
ATOM      4  N   UNL     1      -2.017   0.009   2.183  0.00  0.00    -0.313 N 
ATOM      5  H   UNL     1      -1.242  -0.497   2.474  0.00  0.00    +0.149 HD
BRANCH   4   6
ATOM      6  C   UNL     1      -2.841   0.717   3.165  0.00  0.00    +0.058 C 
ATOM      7  C   UNL     1      -3.946  -0.215   3.737  0.00  0.00    +0.002 C 
ATOM      8  C   UNL     1      -4.019   0.130   5.244  0.00  0.00    -0.077 C 
ATOM      9  N   UNL     1      -3.090   1.243   5.447  0.00  0.00    +0.383 N 
ATOM     10  C   UNL     1      -2.026   1.056   4.425  0.00  0.00    -0.048 C 
ATOM     11  C   UNL     1      -1.258   2.366   4.321  0.00  0.00    -0.014 C 
ATOM     12  C   UNL     1      -0.585   2.615   5.680  0.00  0.00    -0.003 C 
ATOM     13  C   UNL     1      -1.621   2.603   6.803  0.00  0.00    -0.019 C 
ATOM     14  C   UNL     1      -2.459   1.316   6.756  0.00  0.00    -0.078 C 
ATOM     15  H   UNL     1      -3.567   2.112   5.258  0.00  0.00    -0.081 HD
ENDBRANCH   4   6
ENDBRANCH   1   2
BRANCH   1  16
ATOM     16  N   UNL     1      -2.197  -0.882  -1.358  0.00  0.00    -0.300 N 
ATOM     17  C   UNL     1      -1.793  -1.866  -2.185  0.00  0.00    +0.250 C 
ATOM     18  O   UNL     1      -0.791  -2.505  -1.925  0.00  0.00    -0.270 OA
ATOM     19  H   UNL     1      -2.996  -0.372  -1.565  0.00  0.00    +0.150 HD
BRANCH  17  20
ATOM     20  C   UNL     1      -2.565  -2.169  -3.405  0.00  0.00    +0.107 A 
ATOM     21  C   UNL     1      -2.261  -1.522  -4.608  0.00  0.00    +0.138 A 
ATOM     22  C   UNL     1      -2.990  -1.812  -5.747  0.00  0.00    +0.039 A 
ATOM     23  C   UNL     1      -4.017  -2.737  -5.699  0.00  0.00    +0.006 A 
ATOM     24  C   UNL     1      -4.324  -3.380  -4.514  0.00  0.00    +0.039 A 
ATOM     25  C   UNL     1      -3.602  -3.107  -3.367  0.00  0.00    +0.138 A 
ATOM     26  F   UNL     1      -3.900  -3.741  -2.212  0.00  0.00    -0.205 F 
ATOM     27  F   UNL     1      -1.260  -0.617  -4.657  0.00  0.00    -0.205 F 
ENDBRANCH  17  20
ENDBRANCH   1  16
BRANCH   1  29
ATOM     28  C   UNL     1       0.704  -0.326  -1.421  0.00  0.00    +0.009 C 
ATOM     29  C   UNL     1      -0.287   0.376  -0.490  0.00  0.00    +0.012 C 
ATOM     30  C   UNL     1      -0.853   1.615  -1.189  0.00  0.00    +0.009 C 
ENDBRANCH   1  29
TORSDOF 5
