REMARK  Name = ZINC18750106
REMARK  9 active torsions:
REMARK  status: ('A' for Active; 'I' for Inactive)
REMARK    1  A    between atoms: C_1  and  C_2
REMARK    2  A    between atoms: C_2  and  C_4
REMARK    3  A    between atoms: C_2  and  O_20
REMARK    4  A    between atoms: N_6  and  C_7
REMARK    5  A    between atoms: C_7  and  C_8
REMARK    6  A    between atoms: N_10  and  C_11
REMARK    7  A    between atoms: O_20  and  C_21
REMARK    8  A    between atoms: C_21  and  C_23
REMARK    9  A    between atoms: C_28  and  N_29
REMARK                            x       y       z     vdW  Elec       q    Type
REMARK                         _______ _______ _______ _____ _____    ______ ____
ROOT
ATOM      1  C   UNL     1      -4.839   1.117   0.257  0.00  0.00    +0.254 C 
ATOM      2  O   UNL     1      -5.242   2.260   0.283  0.00  0.00    -0.272 OA
ATOM      3  N   UNL     1      -3.515   0.869   0.246  0.00  0.00    -0.304 N 
ATOM      4  H   UNL     1      -3.192  -0.046   0.226  0.00  0.00    +0.149 HD
ENDROOT
BRANCH   1   6
ATOM      5  C   UNL     1      -5.695  -0.784  -1.087  0.00  0.00    +0.062 C 
ATOM      6  C   UNL     1      -5.820  -0.028   0.237  0.00  0.00    +0.259 C 
BRANCH   6   7
ATOM      7  O   UNL     1      -7.170   0.490   0.373  0.00  0.00    -0.449 OA
BRANCH   7   8
ATOM      8  C   UNL     1      -8.073  -0.307   0.979  0.00  0.00    +0.342 C 
ATOM      9  O   UNL     1      -7.740  -1.405   1.382  0.00  0.00    -0.245 OA
BRANCH   8  10
ATOM     10  C   UNL     1      -9.460   0.151   1.151  0.00  0.00    +0.080 A 
ATOM     11  C   UNL     1      -9.876   1.362   0.588  0.00  0.00    +0.019 A 
ATOM     12  C   UNL     1     -11.175   1.786   0.752  0.00  0.00    +0.039 A 
ATOM     13  C   UNL     1     -12.078   1.016   1.475  0.00  0.00    +0.125 A 
ATOM     14  C   UNL     1     -11.682  -0.183   2.038  0.00  0.00    +0.061 A 
ATOM     15  C   UNL     1     -10.377  -0.628   1.878  0.00  0.00    +0.041 A 
ATOM     16  F   UNL     1     -13.351   1.442   1.630  0.00  0.00    -0.205 F 
BRANCH  15  17
ATOM     17  N   UNL     1      -9.977  -1.834   2.437  0.00  0.00    -0.357 N 
ATOM     18  H   UNL     1      -9.088  -2.179   2.261  0.00  0.00    +0.142 HD
ATOM     19  H   UNL     1     -10.588  -2.332   3.002  0.00  0.00    +0.142 HD
ENDBRANCH  15  17
ENDBRANCH   8  10
ENDBRANCH   7   8
ENDBRANCH   6   7
ENDBRANCH   1   6
BRANCH   3  20
ATOM     20  C   UNL     1      -2.561   1.981   0.266  0.00  0.00    +0.200 C 
BRANCH  20  21
ATOM     21  C   UNL     1      -1.156   1.438   0.248  0.00  0.00    +0.234 C 
ATOM     22  O   UNL     1      -0.969   0.240   0.223  0.00  0.00    -0.274 OA
ATOM     23  N   UNL     1      -0.106   2.284   0.256  0.00  0.00    -0.282 N 
ATOM     24  H   UNL     1      -0.255   3.241   0.214  0.00  0.00    +0.155 HD
BRANCH  23  25
ATOM     25  C   UNL     1       1.200   1.780   0.324  0.00  0.00    +0.072 A 
ATOM     26  C   UNL     1       1.515   0.581  -0.300  0.00  0.00    +0.029 A 
ATOM     27  C   UNL     1       2.804   0.087  -0.236  0.00  0.00    +0.043 A 
ATOM     28  C   UNL     1       3.780   0.781   0.459  0.00  0.00    +0.161 A 
ATOM     29  C   UNL     1       3.468   1.976   1.089  0.00  0.00    +0.195 A 
ATOM     30  C   UNL     1       2.179   2.477   1.022  0.00  0.00    +0.182 A 
ATOM     31  F   UNL     1       1.873   3.642   1.635  0.00  0.00    -0.200 F 
ATOM     32  F   UNL     1       4.421   2.651   1.767  0.00  0.00    -0.199 F 
ATOM     33  F   UNL     1       5.038   0.292   0.524  0.00  0.00    -0.202 F 
ENDBRANCH  23  25
ENDBRANCH  20  21
ENDBRANCH   3  20
TORSDOF 8
