REMARK  Name = ZINC08800321
REMARK  10 active torsions:
REMARK  status: ('A' for Active; 'I' for Inactive)
REMARK    1  A    between atoms: C_1  and  C_2
REMARK    2  A    between atoms: C_2  and  O_3
REMARK    3  A    between atoms: O_3  and  C_4
REMARK    4  A    between atoms: C_7  and  S_11
REMARK    5  A    between atoms: S_11  and  N_14
REMARK    6  A    between atoms: N_14  and  C_15
REMARK    7  A    between atoms: C_15  and  C_16
REMARK    8  A    between atoms: C_16  and  C_18
REMARK    9  A    between atoms: C_16  and  N_67
REMARK   10  A    between atoms: N_27  and  C_28
REMARK                            x       y       z     vdW  Elec       q    Type
REMARK                         _______ _______ _______ _____ _____    ______ ____
ROOT
ATOM      1  C   UNL     1       3.544  -2.090   4.098  0.00  0.00    -0.022 C 
ENDROOT
BRANCH   1   2
ATOM      2  C   UNL     1       2.767  -1.358   3.035  0.00  0.00    -0.059 A 
ATOM      3  C   UNL     1       1.698  -1.974   2.410  0.00  0.00    +0.004 A 
ATOM      4  C   UNL     1       0.991  -1.304   1.436  0.00  0.00    +0.023 A 
ATOM      5  C   UNL     1       1.345  -0.003   1.074  0.00  0.00    +0.033 A 
ATOM      6  C   UNL     1       2.412   0.611   1.706  0.00  0.00    -0.026 A 
ATOM      7  C   UNL     1       3.121  -0.071   2.683  0.00  0.00    +0.007 A 
ATOM      8  C   UNL     1       2.835   2.020   1.374  0.00  0.00    +0.038 C 
ATOM      9  C   UNL     1       2.204   2.448   0.047  0.00  0.00    +0.024 C 
ATOM     10  C   UNL     1       0.716   2.078   0.091  0.00  0.00    +0.105 C 
ATOM     11  N   UNL     1       0.595   0.619   0.077  0.00  0.00    -0.333 N 
ATOM     12  C   UNL     1      -0.814   0.208   0.145  0.00  0.00    +0.129 C 
ENDBRANCH   1   2
BRANCH   1  18
ATOM     13  C   UNL     1       3.060  -3.429   6.056  0.00  0.00    -0.078 C 
ATOM     14  C   UNL     1       2.086  -4.454   6.641  0.00  0.00    -0.019 C 
ATOM     15  C   UNL     1       2.169  -5.750   5.829  0.00  0.00    -0.004 C 
ATOM     16  C   UNL     1       1.855  -5.445   4.362  0.00  0.00    -0.019 C 
ATOM     17  C   UNL     1       2.836  -4.391   3.844  0.00  0.00    -0.078 C 
ATOM     18  N   UNL     1       2.689  -3.161   4.651  0.00  0.00    +0.385 N 
ATOM     19  H   UNL     1       1.710  -2.856   4.617  0.00  0.00    -0.081 HD
ENDBRANCH   1  18
BRANCH   1  20
ATOM     20  C   UNL     1       4.814  -2.683   3.485  0.00  0.00    +0.095 C 
BRANCH  20  21
ATOM     21  N   UNL     1       5.596  -3.349   4.529  0.00  0.00    -0.191 NA
ATOM     22  H   UNL     1       5.436  -3.140   5.463  0.00  0.00    +0.148 HD
BRANCH  21  23
ATOM     23  S   UNL     1       6.753  -4.461   4.116  0.00  0.00    +0.058 S 
ATOM     24  O   UNL     1       7.345  -4.901   5.331  0.00  0.00    -0.153 OA
ATOM     25  O   UNL     1       6.144  -5.357   3.196  0.00  0.00    -0.153 OA
BRANCH  23  29
ATOM     26  C   UNL     1       9.978  -2.252   1.828  0.00  0.00    +0.156 A 
ATOM     27  C   UNL     1       8.904  -2.810   1.152  0.00  0.00    +0.050 A 
ATOM     28  C   UNL     1       7.924  -3.488   1.852  0.00  0.00    +0.032 A 
ATOM     29  C   UNL     1       8.007  -3.601   3.227  0.00  0.00    +0.108 A 
ATOM     30  C   UNL     1       9.076  -3.045   3.906  0.00  0.00    +0.070 A 
ATOM     31  C   UNL     1      10.063  -2.370   3.209  0.00  0.00    +0.167 A 
ATOM     32  F   UNL     1      11.107  -1.827   3.872  0.00  0.00    -0.202 F 
BRANCH  26  33
ATOM     33  O   UNL     1      10.946  -1.589   1.141  0.00  0.00    -0.489 OA
BRANCH  33  35
ATOM     34  C   UNL     1      11.970  -0.730  -0.873  0.00  0.00    +0.048 C 
ATOM     35  C   UNL     1      10.793  -1.506  -0.278  0.00  0.00    +0.226 C 
ENDBRANCH  33  35
ENDBRANCH  26  33
ENDBRANCH  23  29
ENDBRANCH  21  23
ENDBRANCH  20  21
ENDBRANCH   1  20
TORSDOF 8
