REMARK  Name = ZINC04059059
REMARK  7 active torsions:
REMARK  status: ('A' for Active; 'I' for Inactive)
REMARK    1  A    between atoms: C_1  and  C_2
REMARK    2  A    between atoms: C_9  and  N_13
REMARK    3  A    between atoms: C_10  and  C_11
REMARK    4  A    between atoms: C_14  and  C_16
REMARK    5  A    between atoms: C_19  and  N_22
REMARK    6  A    between atoms: N_22  and  C_23
REMARK    7  A    between atoms: N_22  and  C_24
REMARK                            x       y       z     vdW  Elec       q    Type
REMARK                         _______ _______ _______ _____ _____    ______ ____
ROOT
ATOM      1  N   UNL     1       0.011  -4.143  -4.902  0.00  0.00    -0.275 N 
ATOM      2  C   UNL     1      -0.007  -2.796  -4.894  0.00  0.00    +0.249 C 
ATOM      3  O   UNL     1      -0.025  -2.182  -5.944  0.00  0.00    -0.270 OA
ATOM      4  H   UNL     1       0.026  -4.633  -4.065  0.00  0.00    +0.156 HD
ENDROOT
BRANCH   1  12
ATOM      5  C   UNL     1      -0.099  -7.639 -11.899  0.00  0.00    +0.008 C 
ATOM      6  C   UNL     1      -0.376  -7.340 -10.424  0.00  0.00    -0.009 C 
ATOM      7  C   UNL     1       0.482  -8.255  -9.545  0.00  0.00    +0.008 C 
ATOM      8  C   UNL     1       0.037  -8.142  -8.086  0.00  0.00    +0.037 C 
ATOM      9  C   UNL     1       0.020  -6.670  -7.692  0.00  0.00    -0.018 A 
ATOM     10  C   UNL     1      -0.003  -5.699  -8.631  0.00  0.00    -0.004 A 
ATOM     11  S   UNL     1      -0.015  -4.184  -7.714  0.00  0.00    -0.077 S 
ATOM     12  C   UNL     1       0.009  -4.830  -6.107  0.00  0.00    +0.090 A 
ATOM     13  C   UNL     1       0.031  -6.201  -6.317  0.00  0.00    +0.084 A 
ATOM     14  C   UNL     1      -0.015  -5.880 -10.117  0.00  0.00    +0.046 C 
BRANCH  13  15
ATOM     15  C   UNL     1       0.061  -7.120  -5.220  0.00  0.00    +0.102 C 
ATOM     16  N   UNL     1       0.084  -7.850  -4.349  0.00  0.00    -0.191 NA
ENDBRANCH  13  15
ENDBRANCH   1  12
BRANCH   2  17
ATOM     17  C   UNL     1      -0.004  -2.065  -3.613  0.00  0.00    +0.037 A 
ATOM     18  C   UNL     1      -0.023  -0.667  -3.604  0.00  0.00    +0.015 A 
ATOM     19  C   UNL     1      -0.021   0.011  -2.407  0.00  0.00    +0.024 A 
ATOM     20  C   UNL     1       0.000  -0.693  -1.206  0.00  0.00    +0.029 A 
ATOM     21  C   UNL     1       0.025  -2.085  -1.212  0.00  0.00    +0.024 A 
ATOM     22  C   UNL     1       0.017  -2.769  -2.406  0.00  0.00    +0.015 A 
BRANCH  20  23
ATOM     23  N   UNL     1       0.002  -0.004   0.002  0.00  0.00    -0.336 N 
ATOM     24  C   UNL     1      -0.018   1.461   0.010  0.00  0.00    +0.129 C 
ATOM     25  C   UNL     1       0.024  -0.743   1.267  0.00  0.00    +0.129 C 
ENDBRANCH  20  23
ENDBRANCH   2  17
TORSDOF 4
