REMARK  Name = ZINC13615022
REMARK  11 active torsions:
REMARK  status: ('A' for Active; 'I' for Inactive)
REMARK    1  A    between atoms: C_1  and  C_2
REMARK    2  A    between atoms: C_2  and  C_3
REMARK    3  A    between atoms: C_3  and  O_4
REMARK    4  A    between atoms: O_4  and  C_5
REMARK    5  A    between atoms: C_8  and  C_12
REMARK    6  A    between atoms: N_14  and  C_15
REMARK    7  A    between atoms: C_15  and  N_17
REMARK    8  A    between atoms: N_17  and  C_18
REMARK    9  A    between atoms: C_21  and  N_24
REMARK   10  A    between atoms: C_25  and  C_27
REMARK   11  A    between atoms: C_27  and  C_28
REMARK                            x       y       z     vdW  Elec       q    Type
REMARK                         _______ _______ _______ _____ _____    ______ ____
ROOT
ATOM      1  C   UNL     1      -4.726   5.152  -0.088  0.00  0.00    +0.141 C 
ATOM      2  S   UNL     1      -3.220   5.958  -0.204  0.00  0.00    -0.018 S 
ENDROOT
BRANCH   1   5
ATOM      3  C   UNL     1      -5.837   7.188  -0.352  0.00  0.00    +0.250 C 
ATOM      4  O   UNL     1      -4.768   7.761  -0.434  0.00  0.00    -0.270 OA
ATOM      5  N   UNL     1      -5.874   5.852  -0.175  0.00  0.00    -0.264 N 
ATOM      6  H   UNL     1      -6.727   5.395  -0.109  0.00  0.00    +0.157 HD
BRANCH   3  10
ATOM      7  C   UNL     1      -9.455   9.395  -0.624  0.00  0.00    +0.134 A 
ATOM      8  C   UNL     1      -9.495   8.017  -0.440  0.00  0.00    +0.047 A 
ATOM      9  C   UNL     1      -8.324   7.297  -0.358  0.00  0.00    +0.017 A 
ATOM     10  C   UNL     1      -7.093   7.955  -0.446  0.00  0.00    +0.038 A 
ATOM     11  C   UNL     1      -7.057   9.340  -0.630  0.00  0.00    +0.032 A 
ATOM     12  C   UNL     1      -8.233  10.052  -0.718  0.00  0.00    +0.060 A 
ATOM     13 BR   UNL     1      -8.186  11.926  -0.966  0.00  0.00    -0.046 Br
BRANCH   7  14
ATOM     14  O   UNL     1     -10.611  10.100  -0.711  0.00  0.00    -0.491 OA
BRANCH  14  15
ATOM     15  C   UNL     1     -11.830   9.361  -0.606  0.00  0.00    +0.229 C 
BRANCH  15  17
ATOM     16  C   UNL     1     -14.323   9.528  -0.614  0.00  0.00    +0.007 C 
ATOM     17  C   UNL     1     -13.018  10.319  -0.726  0.00  0.00    +0.038 C 
ENDBRANCH  15  17
ENDBRANCH  14  15
ENDBRANCH   7  14
ENDBRANCH   3  10
ENDBRANCH   1   5
BRANCH   1  18
ATOM     18  N   UNL     1      -4.763   3.816   0.089  0.00  0.00    -0.297 N 
ATOM     19  H   UNL     1      -5.614   3.366   0.209  0.00  0.00    +0.154 HD
BRANCH  18  20
ATOM     20  C   UNL     1      -3.573   3.078   0.100  0.00  0.00    +0.033 A 
ATOM     21  C   UNL     1      -2.471   3.548   0.801  0.00  0.00    +0.025 A 
ATOM     22  C   UNL     1      -1.298   2.820   0.813  0.00  0.00    +0.025 A 
ATOM     23  C   UNL     1      -1.221   1.617   0.124  0.00  0.00    +0.033 A 
ATOM     24  C   UNL     1      -2.321   1.149  -0.582  0.00  0.00    +0.025 A 
ATOM     25  C   UNL     1      -3.496   1.875  -0.589  0.00  0.00    +0.025 A 
BRANCH  23  26
ATOM     26  N   UNL     1      -0.031   0.878   0.136  0.00  0.00    -0.286 N 
ATOM     27  C   UNL     1       0.732   0.847   1.246  0.00  0.00    +0.217 C 
ATOM     28  O   UNL     1       0.413   1.496   2.220  0.00  0.00    -0.275 OA
ATOM     29  H   UNL     1       0.246   0.392  -0.657  0.00  0.00    +0.155 HD
BRANCH  27  30
ATOM     30  C   UNL     1       1.982   0.005   1.279  0.00  0.00    +0.093 C 
ATOM     31  C   UNL     1       2.656   0.147   2.645  0.00  0.00    +0.013 C 
ENDBRANCH  27  30
ENDBRANCH  23  26
ENDBRANCH  18  20
ENDBRANCH   1  18
TORSDOF 9
