REMARK  Name = ZINC02869033
REMARK  6 active torsions:
REMARK  status: ('A' for Active; 'I' for Inactive)
REMARK    1  A    between atoms: C_1  and  O_2
REMARK    2  A    between atoms: O_2  and  C_3
REMARK    3  A    between atoms: C_6  and  N_9
REMARK    4  A    between atoms: C_18  and  C_22
REMARK    5  A    between atoms: C_18  and  N_26
REMARK    6  A    between atoms: C_28  and  C_30
REMARK                            x       y       z     vdW  Elec       q    Type
REMARK                         _______ _______ _______ _____ _____    ______ ____
ROOT
ATOM      1  N   UNL     1      -2.343   3.243  -0.098  0.00  0.00    -0.249 N 
ATOM      2  C   UNL     1      -3.624   2.728  -0.112  0.00  0.00    +0.125 A 
ATOM      3  C   UNL     1      -4.671   3.599  -0.157  0.00  0.00    +0.097 A 
ATOM      4  C   UNL     1      -4.439   4.979  -0.198  0.00  0.00    +0.262 A 
ATOM      5  O   UNL     1      -5.373   5.760  -0.243  0.00  0.00    -0.267 OA
ATOM      6  N   UNL     1      -3.169   5.436  -0.188  0.00  0.00    -0.274 N 
ATOM      7  H   UNL     1      -2.992   6.420  -0.217  0.00  0.00    +0.173 HD
ATOM      8  C   UNL     1      -2.140   4.570  -0.138  0.00  0.00    +0.335 A 
ATOM      9  O   UNL     1      -1.002   4.999  -0.129  0.00  0.00    -0.246 OA
ATOM     10  C   UNL     1      -5.929   2.763  -0.153  0.00  0.00    +0.240 C 
ATOM     11  C   UNL     1      -5.409   1.340  -0.094  0.00  0.00    +0.256 C 
ATOM     12  O   UNL     1      -6.071   0.325  -0.073  0.00  0.00    -0.272 OA
ATOM     13  N   UNL     1      -4.067   1.428  -0.070  0.00  0.00    -0.269 N 
ATOM     14  H   UNL     1      -3.478   0.658  -0.032  0.00  0.00    +0.156 HD
ENDROOT
BRANCH   1  18
ATOM     15  C   UNL     1       0.924   0.654   0.053  0.00  0.00    +0.120 A 
ATOM     16  C   UNL     1       0.447   1.237   1.218  0.00  0.00    +0.047 A 
ATOM     17  C   UNL     1      -0.638   2.090   1.169  0.00  0.00    +0.030 A 
ATOM     18  C   UNL     1      -1.244   2.372  -0.047  0.00  0.00    +0.053 A 
ATOM     19  C   UNL     1      -0.767   1.788  -1.212  0.00  0.00    +0.030 A 
ATOM     20  C   UNL     1       0.315   0.931  -1.162  0.00  0.00    +0.047 A 
BRANCH  15  22
ATOM     21  C   UNL     1       2.427  -0.755  -1.135  0.00  0.00    +0.277 C 
ATOM     22  O   UNL     1       1.989  -0.190   0.103  0.00  0.00    -0.495 OA
ENDBRANCH  15  22
ENDBRANCH   1  18
BRANCH  10  23
ATOM     23  C   UNL     1      -6.733   2.993  -1.435  0.00  0.00    +0.424 C 
ATOM     24  F   UNL     1      -5.919   2.749  -2.546  0.00  0.00    -0.167 F 
ATOM     25  F   UNL     1      -7.829   2.125  -1.460  0.00  0.00    -0.167 F 
ATOM     26  F   UNL     1      -7.185   4.317  -1.470  0.00  0.00    -0.167 F 
ENDBRANCH  10  23
BRANCH  10  27
ATOM     27  N   UNL     1      -6.745   3.063   1.026  0.00  0.00    -0.290 N 
ATOM     28  H   UNL     1      -7.669   3.338   0.919  0.00  0.00    +0.150 HD
ATOM     29  C   UNL     1      -6.212   2.957   2.259  0.00  0.00    +0.217 C 
ATOM     30  O   UNL     1      -5.078   2.548   2.396  0.00  0.00    -0.275 OA
BRANCH  29  31
ATOM     31  C   UNL     1      -7.024   3.346   3.468  0.00  0.00    +0.075 C 
ATOM     32  C   UNL     1      -7.420   4.820   3.362  0.00  0.00    +0.013 C 
ATOM     33  C   UNL     1      -8.245   5.215   4.589  0.00  0.00    +0.001 C 
ATOM     34  C   UNL     1      -7.412   5.000   5.854  0.00  0.00    +0.000 C 
ATOM     35  C   UNL     1      -7.015   3.526   5.960  0.00  0.00    +0.001 C 
ATOM     36  C   UNL     1      -6.190   3.131   4.733  0.00  0.00    +0.013 C 
ENDBRANCH  29  31
ENDBRANCH  10  27
TORSDOF 5
