REMARK  Name = ZINC39696862
REMARK  6 active torsions:
REMARK  status: ('A' for Active; 'I' for Inactive)
REMARK    1  A    between atoms: C_1  and  N_2
REMARK    2  A    between atoms: C_6  and  C_9
REMARK    3  A    between atoms: C_9  and  N_10
REMARK    4  A    between atoms: C_11  and  C_13
REMARK    5  A    between atoms: C_24  and  C_26
REMARK    6  A    between atoms: C_29  and  C_31
REMARK                            x       y       z     vdW  Elec       q    Type
REMARK                         _______ _______ _______ _____ _____    ______ ____
ROOT
ATOM      1  C   UNL     1       2.284  -6.267   3.106  0.00  0.00    +0.100 C 
ATOM      2  C   UNL     1       0.901  -6.955   3.124  0.00  0.00    +0.121 C 
ATOM      3  N   UNL     1       1.116  -8.208   3.885  0.00  0.00    -0.294 N 
ATOM      4  C   UNL     1       2.035  -7.821   4.982  0.00  0.00    +0.115 C 
ATOM      5  C   UNL     1       3.025  -6.837   4.327  0.00  0.00    -0.004 C 
ATOM      6  C   UNL     1       3.378  -5.718   5.302  0.00  0.00    -0.010 C 
ATOM      7  C   UNL     1       4.165  -6.301   6.479  0.00  0.00    -0.082 C 
ATOM      8  N   UNL     1       5.385  -6.947   5.982  0.00  0.00    +0.379 N 
ATOM      9  C   UNL     1       5.035  -8.081   5.119  0.00  0.00    -0.082 C 
ATOM     10  C   UNL     1       4.286  -7.574   3.885  0.00  0.00    -0.010 C 
ATOM     11  C   UNL     1       0.594  -9.425   3.635  0.00  0.00    +0.282 C 
ATOM     12  O   UNL     1       0.868 -10.365   4.359  0.00  0.00    -0.267 OA
ATOM     13  H   UNL     1       5.927  -6.279   5.455  0.00  0.00    -0.086 HD
ATOM     14  H   UNL     1       5.932  -7.277   6.764  0.00  0.00    -0.086 HD
ENDROOT
BRANCH  11  15
ATOM     15  C   UNL     1      -0.302  -9.618   2.493  0.00  0.00    +0.190 A 
ATOM     16  C   UNL     1      -0.906 -10.802   2.129  0.00  0.00    +0.055 A 
ATOM     17  C   UNL     1      -1.670 -10.531   0.989  0.00  0.00    +0.050 A 
ATOM     18  C   UNL     1      -1.507  -9.207   0.702  0.00  0.00    +0.136 A 
ATOM     19  O   UNL     1      -0.686  -8.665   1.617  0.00  0.00    -0.450 OA
BRANCH  18  20
ATOM     20  C   UNL     1      -2.133  -8.487  -0.425  0.00  0.00    +0.017 A 
ATOM     21  C   UNL     1      -2.981  -9.164  -1.305  0.00  0.00    +0.014 A 
ATOM     22  C   UNL     1      -3.563  -8.487  -2.355  0.00  0.00    +0.039 A 
ATOM     23  C   UNL     1      -3.309  -7.137  -2.539  0.00  0.00    +0.123 A 
ATOM     24  C   UNL     1      -2.469  -6.460  -1.669  0.00  0.00    +0.039 A 
ATOM     25  C   UNL     1      -1.885  -7.125  -0.612  0.00  0.00    +0.014 A 
ATOM     26  F   UNL     1      -3.883  -6.478  -3.570  0.00  0.00    -0.205 F 
ENDBRANCH  18  20
ENDBRANCH  11  15
BRANCH   1  28
ATOM     27  N   UNL     1       3.050  -3.951   2.695  0.00  0.00    -0.313 N 
ATOM     28  C   UNL     1       2.130  -4.773   3.237  0.00  0.00    +0.218 C 
ATOM     29  O   UNL     1       1.178  -4.312   3.829  0.00  0.00    -0.275 OA
ATOM     30  H   UNL     1       3.811  -4.320   2.221  0.00  0.00    +0.149 HD
BRANCH  27  31
ATOM     31  C   UNL     1       2.899  -2.499   2.822  0.00  0.00    +0.137 C 
BRANCH  31  37
ATOM     32  C   UNL     1       5.044   1.827   1.865  0.00  0.00    +0.105 C 
ATOM     33  N   UNL     1       5.061   0.378   1.622  0.00  0.00    -0.301 NA
ATOM     34  C   UNL     1       4.973   0.084   0.184  0.00  0.00    +0.112 C 
ATOM     35  C   UNL     1       5.054  -1.430  -0.028  0.00  0.00    +0.175 C 
ATOM     36  O   UNL     1       4.014  -2.067   0.720  0.00  0.00    -0.372 OA
ATOM     37  C   UNL     1       4.069  -1.802   2.124  0.00  0.00    +0.149 C 
ATOM     38  C   UNL     1       3.979  -0.292   2.357  0.00  0.00    +0.117 C 
ENDBRANCH  31  37
ENDBRANCH  27  31
ENDBRANCH   1  28
TORSDOF 5
