REMARK  Name = ZINC06648051
REMARK  8 active torsions:
REMARK  status: ('A' for Active; 'I' for Inactive)
REMARK    1  A    between atoms: C_1  and  C_2
REMARK    2  A    between atoms: C_2  and  C_3
REMARK    3  A    between atoms: C_3  and  C_4
REMARK    4  A    between atoms: C_4  and  N_5
REMARK    5  A    between atoms: N_14  and  C_25
REMARK    6  A    between atoms: C_15  and  C_17
REMARK    7  A    between atoms: C_20  and  S_23
REMARK    8  A    between atoms: S_23  and  C_24
REMARK                            x       y       z     vdW  Elec       q    Type
REMARK                         _______ _______ _______ _____ _____    ______ ____
ROOT
ATOM      1  N   UNL     1       1.505  -3.189  -0.231  0.00  0.00    -0.277 N 
ATOM      2  C   UNL     1       0.752  -2.029  -0.145  0.00  0.00    +0.169 A 
ATOM      3  C   UNL     1      -0.512  -2.091   0.433  0.00  0.00    +0.151 A 
ATOM      4  C   UNL     1      -0.988  -3.329   0.912  0.00  0.00    +0.280 A 
ATOM      5  O   UNL     1      -2.091  -3.408   1.422  0.00  0.00    -0.265 OA
ATOM      6  N   UNL     1      -0.208  -4.423   0.799  0.00  0.00    -0.273 N 
ATOM      7  H   UNL     1      -0.542  -5.303   1.138  0.00  0.00    +0.173 HD
ATOM      8  C   UNL     1       1.012  -4.350   0.239  0.00  0.00    +0.331 A 
ATOM      9  O   UNL     1       1.686  -5.359   0.154  0.00  0.00    -0.246 OA
ATOM     10  N   UNL     1      -1.028  -0.809   0.388  0.00  0.00    -0.321 N 
ATOM     11  C   UNL     1      -0.082  -0.026  -0.203  0.00  0.00    +0.143 A 
ATOM     12  N   UNL     1       0.964  -0.766  -0.516  0.00  0.00    -0.210 NA
ATOM     13  C   UNL     1      -2.338  -0.376   0.879  0.00  0.00    +0.151 C 
ENDROOT
BRANCH  11  14
ATOM     14  C   UNL     1      -0.210   1.423  -0.458  0.00  0.00    +0.018 A 
ATOM     15  C   UNL     1      -1.474   2.018  -0.496  0.00  0.00    +0.012 A 
ATOM     16  C   UNL     1      -1.590   3.370  -0.729  0.00  0.00    +0.015 A 
ATOM     17  C   UNL     1      -0.450   4.142  -0.938  0.00  0.00    +0.008 A 
ATOM     18  C   UNL     1       0.810   3.550  -0.906  0.00  0.00    +0.015 A 
ATOM     19  C   UNL     1       0.932   2.200  -0.668  0.00  0.00    +0.012 A 
BRANCH  17  20
ATOM     20  S   UNL     1      -0.603   5.870  -1.243  0.00  0.00    -0.129 S 
ATOM     21  C   UNL     1      -2.391   6.169  -1.190  0.00  0.00    +0.090 C 
ENDBRANCH  17  20
ENDBRANCH  11  14
BRANCH   1  22
ATOM     22  C   UNL     1       2.839  -3.153  -0.835  0.00  0.00    +0.128 C 
BRANCH  22  23
ATOM     23  C   UNL     1       2.727  -3.418  -2.337  0.00  0.00    +0.021 C 
BRANCH  23  25
ATOM     24  C   UNL     1       4.008  -3.646  -4.471  0.00  0.00    +0.004 C 
ATOM     25  C   UNL     1       4.120  -3.380  -2.968  0.00  0.00    -0.002 C 
ENDBRANCH  23  25
ENDBRANCH  22  23
ENDBRANCH   1  22
TORSDOF 5
