REMARK  Name = ZINC35744528
REMARK  10 active torsions:
REMARK  status: ('A' for Active; 'I' for Inactive)
REMARK    1  A    between atoms: C_4  and  C_7
REMARK    2  A    between atoms: C_7  and  C_8
REMARK    3  A    between atoms: C_8  and  C_10
REMARK    4  A    between atoms: C_8  and  N_22
REMARK    5  A    between atoms: C_12  and  C_15
REMARK    6  A    between atoms: N_22  and  C_23
REMARK    7  A    between atoms: C_23  and  C_24
REMARK    8  A    between atoms: C_24  and  C_26
REMARK    9  A    between atoms: C_24  and  O_33
REMARK   10  A    between atoms: C_26  and  N_27
REMARK                            x       y       z     vdW  Elec       q    Type
REMARK                         _______ _______ _______ _____ _____    ______ ____
ROOT
ATOM      1  C   UNL     1       4.013  -1.068   1.688  0.00  0.00    +0.023 C 
ENDROOT
BRANCH   1   2
ATOM      2  C   UNL     1       5.327  -1.806   1.724  0.00  0.00    +0.214 A 
ATOM      3  N   UNL     1       5.496  -3.040   2.105  0.00  0.00    -0.193 NA
ATOM      4  C   UNL     1       6.795  -3.377   2.011  0.00  0.00    +0.202 A 
ATOM      5  N   UNL     1       7.465  -2.343   1.565  0.00  0.00    -0.056 NA
ATOM      6  O   UNL     1       6.516  -1.305   1.366  0.00  0.00    -0.339 OA
BRANCH   4   7
ATOM      7  C   UNL     1       7.374  -4.699   2.357  0.00  0.00    +0.023 A 
ATOM      8  C   UNL     1       6.550  -5.724   2.818  0.00  0.00    +0.013 A 
ATOM      9  C   UNL     1       7.092  -6.951   3.138  0.00  0.00    +0.016 A 
ATOM     10  C   UNL     1       8.453  -7.166   3.001  0.00  0.00    +0.018 A 
ATOM     11  C   UNL     1       9.276  -6.152   2.543  0.00  0.00    +0.016 A 
ATOM     12  C   UNL     1       8.742  -4.922   2.215  0.00  0.00    +0.013 A 
ATOM     13 BR   UNL     1       9.190  -8.851   3.442  0.00  0.00    -0.050 Br
ENDBRANCH   4   7
ENDBRANCH   1   2
BRANCH   1  14
ATOM     14  N   UNL     1       4.190   0.276   2.254  0.00  0.00    +0.389 N 
ATOM     15  H   UNL     1       4.600   0.202   3.173  0.00  0.00    -0.085 HD
ATOM     16  H   UNL     1       4.799   0.815   1.657  0.00  0.00    -0.085 HD
BRANCH  14  17
ATOM     17  C   UNL     1       2.885   0.942   2.352  0.00  0.00    -0.049 C 
BRANCH  17  18
ATOM     18  C   UNL     1       3.050   2.286   3.063  0.00  0.00    +0.112 C 
BRANCH  18  19
ATOM     19  O   UNL     1       3.574   2.070   4.375  0.00  0.00    -0.392 OA
ATOM     20  H   UNL     1       3.013   1.518   4.936  0.00  0.00    +0.210 HD
ENDBRANCH  18  19
BRANCH  18  21
ATOM     21  C   UNL     1       1.690   2.980   3.164  0.00  0.00    +0.114 C 
BRANCH  21  22
ATOM     22  N   UNL     1       1.867   4.322   3.735  0.00  0.00    -0.296 NA
ATOM     23  C   UNL     1       0.599   4.838   4.272  0.00  0.00    +0.112 C 
ATOM     24  C   UNL     1       0.841   6.209   4.908  0.00  0.00    +0.175 C 
ATOM     25  O   UNL     1       1.412   7.087   3.934  0.00  0.00    -0.377 OA
ATOM     26  C   UNL     1       2.649   6.616   3.390  0.00  0.00    +0.175 C 
ATOM     27  C   UNL     1       2.426   5.249   2.739  0.00  0.00    +0.112 C 
ENDBRANCH  21  22
ENDBRANCH  18  21
ENDBRANCH  17  18
ENDBRANCH  14  17
ENDBRANCH   1  14
BRANCH   1  28
ATOM     28  C   UNL     1       3.534  -0.952   0.239  0.00  0.00    +0.029 C 
BRANCH  28  32
ATOM     29  C   UNL     1       2.661  -4.843  -1.291  0.00  0.00    +0.000 A 
ATOM     30  C   UNL     1       1.706  -4.156  -0.565  0.00  0.00    +0.000 A 
ATOM     31  C   UNL     1       1.989  -2.897  -0.069  0.00  0.00    +0.003 A 
ATOM     32  C   UNL     1       3.226  -2.325  -0.300  0.00  0.00    -0.048 A 
ATOM     33  C   UNL     1       4.181  -3.013  -1.026  0.00  0.00    +0.003 A 
ATOM     34  C   UNL     1       3.898  -4.271  -1.522  0.00  0.00    +0.000 A 
ENDBRANCH  28  32
ENDBRANCH   1  28
TORSDOF 10
