REMARK  Name = ZINC06477990
REMARK  8 active torsions:
REMARK  status: ('A' for Active; 'I' for Inactive)
REMARK    1  A    between atoms: C_1  and  C_2
REMARK    2  A    between atoms: C_5  and  C_9
REMARK    3  A    between atoms: C_6  and  C_8
REMARK    4  A    between atoms: N_10  and  N_11
REMARK    5  A    between atoms: C_12  and  C_14
REMARK    6  A    between atoms: C_14  and  C_15
REMARK    7  A    between atoms: C_15  and  C_16
REMARK    8  A    between atoms: N_18  and  C_19
REMARK                            x       y       z     vdW  Elec       q    Type
REMARK                         _______ _______ _______ _____ _____    ______ ____
ROOT
ATOM      1  N   UNL     1      -2.228   4.252   1.164  0.00  0.00    -0.207 N 
ATOM      2  C   UNL     1      -2.162   5.593   1.272  0.00  0.00    +0.233 C 
ATOM      3  O   UNL     1      -1.100   6.161   1.126  0.00  0.00    -0.274 OA
ATOM      4  H   UNL     1      -3.078   3.797   1.280  0.00  0.00    +0.177 HD
ENDROOT
BRANCH   1   6
ATOM      5  C   UNL     1      -1.136   2.221   0.779  0.00  0.00    +0.138 C 
ATOM      6  N   UNL     1      -1.071   3.513   0.883  0.00  0.00    -0.188 NA
BRANCH   5  11
ATOM      7  C   UNL     1       3.609  -0.811  -0.391  0.00  0.00    +0.044 C 
ATOM      8  C   UNL     1       2.366  -0.017  -0.082  0.00  0.00    -0.050 A 
ATOM      9  C   UNL     1       1.181  -0.673   0.199  0.00  0.00    +0.004 A 
ATOM     10  C   UNL     1       0.040   0.047   0.481  0.00  0.00    +0.010 A 
ATOM     11  C   UNL     1       0.082   1.444   0.484  0.00  0.00    -0.003 A 
ATOM     12  C   UNL     1       1.282   2.100   0.200  0.00  0.00    -0.042 A 
ATOM     13  C   UNL     1       2.416   1.366  -0.082  0.00  0.00    +0.007 A 
ATOM     14  C   UNL     1       1.337   3.606   0.199  0.00  0.00    +0.044 C 
ENDBRANCH   5  11
ENDBRANCH   1   6
BRANCH   2  15
ATOM     15  C   UNL     1      -3.406   6.388   1.574  0.00  0.00    +0.107 C 
BRANCH  15  16
ATOM     16  C   UNL     1      -3.057   7.876   1.643  0.00  0.00    +0.105 C 
BRANCH  16  17
ATOM     17  C   UNL     1      -4.301   8.670   1.944  0.00  0.00    +0.218 C 
ATOM     18  O   UNL     1      -5.363   8.102   2.090  0.00  0.00    -0.275 OA
ATOM     19  N   UNL     1      -4.234  10.012   2.052  0.00  0.00    -0.284 N 
ATOM     20  H   UNL     1      -3.405  10.474   1.854  0.00  0.00    +0.155 HD
BRANCH  19  21
ATOM     21  C   UNL     1      -5.363  10.739   2.451  0.00  0.00    +0.052 A 
ATOM     22  C   UNL     1      -6.366  10.120   3.184  0.00  0.00    +0.026 A 
ATOM     23  C   UNL     1      -7.478  10.840   3.577  0.00  0.00    +0.022 A 
ATOM     24  C   UNL     1      -7.592  12.178   3.241  0.00  0.00    +0.042 A 
ATOM     25  C   UNL     1      -6.594  12.798   2.510  0.00  0.00    +0.041 A 
ATOM     26  C   UNL     1      -5.477  12.084   2.119  0.00  0.00    +0.064 A 
ATOM     27 CL   UNL     1      -4.222  12.864   1.208  0.00  0.00    -0.082 Cl
ATOM     28 CL   UNL     1      -8.991  13.079   3.736  0.00  0.00    -0.083 Cl
ENDBRANCH  19  21
ENDBRANCH  16  17
ENDBRANCH  15  16
ENDBRANCH   2  15
TORSDOF 6
