REMARK  Name = ZINC32522671
REMARK  10 active torsions:
REMARK  status: ('A' for Active; 'I' for Inactive)
REMARK    1  A    between atoms: C_1  and  C_2
REMARK    2  A    between atoms: C_4  and  C_30
REMARK    3  A    between atoms: C_5  and  N_9
REMARK    4  A    between atoms: C_6  and  C_8
REMARK    5  A    between atoms: C_10  and  C_12
REMARK    6  A    between atoms: C_12  and  S_13
REMARK    7  A    between atoms: S_13  and  C_14
REMARK    8  A    between atoms: C_19  and  C_23
REMARK    9  A    between atoms: C_20  and  C_22
REMARK   10  A    between atoms: C_23  and  C_24
REMARK                            x       y       z     vdW  Elec       q    Type
REMARK                         _______ _______ _______ _____ _____    ______ ____
ROOT
ATOM      1  C   UNL     1      -7.394   1.102  -0.293  0.00  0.00    +0.170 A 
ATOM      2  N   UNL     1      -8.640   1.648  -0.343  0.00  0.00    -0.302 N 
ATOM      3  H   UNL     1      -8.775   2.726  -0.173  0.00  0.00    +0.171 HD
ATOM      4  C   UNL     1      -9.707   0.862  -0.601  0.00  0.00    +0.256 A 
ATOM      5  O   UNL     1     -10.831   1.334  -0.649  0.00  0.00    -0.267 OA
ATOM      6  C   UNL     1      -9.498  -0.512  -0.814  0.00  0.00    +0.042 A 
ATOM      7  C   UNL     1      -8.226  -1.004  -0.751  0.00  0.00    +0.050 A 
ATOM      8  N   UNL     1      -7.206  -0.188  -0.499  0.00  0.00    -0.228 NA
ATOM      9  C   UNL     1      -7.976  -2.473  -0.975  0.00  0.00    +0.066 C 
ENDROOT
BRANCH   1  10
ATOM     10  S   UNL     1      -6.008   2.136   0.045  0.00  0.00    -0.078 S 
BRANCH  10  11
ATOM     11  C   UNL     1      -4.679   0.908  -0.013  0.00  0.00    +0.173 C 
BRANCH  11  13
ATOM     12  N   UNL     1      -2.221   0.862   0.263  0.00  0.00    -0.284 N 
ATOM     13  C   UNL     1      -3.359   1.584   0.256  0.00  0.00    +0.228 C 
ATOM     14  O   UNL     1      -3.321   2.778   0.466  0.00  0.00    -0.275 OA
ATOM     15  H   UNL     1      -2.264  -0.233   0.164  0.00  0.00    +0.155 HD
BRANCH  12  20
ATOM     16  C   UNL     1       2.794   3.457   0.813  0.00  0.00    +0.044 C 
ATOM     17  C   UNL     1       1.460   2.770   0.665  0.00  0.00    -0.050 A 
ATOM     18  C   UNL     1       0.485   2.943   1.630  0.00  0.00    +0.008 A 
ATOM     19  C   UNL     1      -0.738   2.314   1.498  0.00  0.00    -0.029 A 
ATOM     20  C   UNL     1      -0.985   1.505   0.397  0.00  0.00    +0.039 A 
ATOM     21  C   UNL     1      -0.006   1.339  -0.574  0.00  0.00    -0.029 A 
ATOM     22  C   UNL     1       1.215   1.970  -0.435  0.00  0.00    +0.008 A 
ATOM     23  C   UNL     1      -0.273   0.467  -1.773  0.00  0.00    +0.045 C 
ATOM     24  C   UNL     1      -1.800   2.502   2.551  0.00  0.00    +0.045 C 
ENDBRANCH  12  20
ENDBRANCH  11  13
ENDBRANCH  10  11
ENDBRANCH   1  10
BRANCH   6  25
ATOM     25  C   UNL     1     -10.659  -1.428  -1.106  0.00  0.00    +0.077 C 
BRANCH  25  26
ATOM     26  C   UNL     1     -10.951  -1.412  -2.584  0.00  0.00    -0.043 A 
ATOM     27  C   UNL     1     -11.769  -0.433  -3.117  0.00  0.00    +0.004 A 
ATOM     28  C   UNL     1     -12.033  -0.417  -4.474  0.00  0.00    +0.000 A 
ATOM     29  C   UNL     1     -11.487  -1.385  -5.296  0.00  0.00    +0.000 A 
ATOM     30  C   UNL     1     -10.674  -2.367  -4.762  0.00  0.00    +0.000 A 
ATOM     31  C   UNL     1     -10.406  -2.381  -3.406  0.00  0.00    +0.004 A 
ENDBRANCH  25  26
ENDBRANCH   6  25
TORSDOF 6
