REMARK  Name = ZINC20157718
REMARK  4 active torsions:
REMARK  status: ('A' for Active; 'I' for Inactive)
REMARK    1  A    between atoms: C_1  and  C_2
REMARK    2  A    between atoms: C_10  and  C_14
REMARK    3  A    between atoms: N_17  and  C_18
REMARK    4  A    between atoms: C_18  and  C_19
REMARK                            x       y       z     vdW  Elec       q    Type
REMARK                         _______ _______ _______ _____ _____    ______ ____
ROOT
ATOM      1  C   UNL     1      -1.339   2.076   0.020  0.00  0.00    +0.086 C 
ATOM      2  C   UNL     1      -0.016   1.354   0.009  0.00  0.00    +0.111 A 
ATOM      3  N   UNL     1       1.092   2.045   0.003  0.00  0.00    -0.227 NA
ATOM      4  C   UNL     1       2.276   1.438  -0.012  0.00  0.00    +0.116 A 
ATOM      5  C   UNL     1       2.396   0.039  -0.021  0.00  0.00    +0.076 A 
ATOM      6  C   UNL     1       3.760  -0.486  -0.039  0.00  0.00    -0.023 A 
ATOM      7  C   UNL     1       4.764   0.417  -0.043  0.00  0.00    -0.004 A 
ATOM      8  S   UNL     1       3.960   1.997  -0.024  0.00  0.00    -0.073 S 
ATOM      9  C   UNL     1       6.236   0.138  -0.060  0.00  0.00    +0.046 C 
ATOM     10  C   UNL     1       6.445  -1.333  -0.451  0.00  0.00    -0.009 C 
ATOM     11  C   UNL     1       5.506  -2.202   0.390  0.00  0.00    +0.008 C 
ATOM     12  C   UNL     1       4.059  -1.983  -0.053  0.00  0.00    +0.037 C 
ATOM     13  C   UNL     1       7.896  -1.734  -0.180  0.00  0.00    +0.008 C 
ATOM     14  C   UNL     1       1.161  -0.689  -0.013  0.00  0.00    +0.263 A 
ATOM     15  O   UNL     1       1.160  -1.908  -0.020  0.00  0.00    -0.267 OA
ATOM     16  N   UNL     1       0.002  -0.004   0.002  0.00  0.00    -0.287 N 
ENDROOT
BRANCH  16  17
ATOM     17  C   UNL     1      -1.265  -0.739   0.010  0.00  0.00    +0.222 C 
BRANCH  17  18
ATOM     18  C   UNL     1      -1.714  -0.983  -1.407  0.00  0.00    +0.239 C 
ATOM     19  O   UNL     1      -1.041  -0.583  -2.334  0.00  0.00    -0.273 OA
ATOM     20  N   UNL     1      -2.862  -1.646  -1.646  0.00  0.00    -0.263 N 
ATOM     21  C   UNL     1      -3.276  -1.872  -2.954  0.00  0.00    +0.164 A 
ATOM     22  N   UNL     1      -2.692  -1.514  -4.081  0.00  0.00    -0.233 NA
ATOM     23  C   UNL     1      -3.221  -1.815  -5.250  0.00  0.00    +0.120 A 
ATOM     24  C   UNL     1      -4.394  -2.494  -5.273  0.00  0.00    +0.068 A 
ATOM     25  S   UNL     1      -4.698  -2.690  -3.523  0.00  0.00    -0.061 S 
ATOM     26  H   UNL     1      -3.473  -2.009  -0.806  0.00  0.00    +0.157 HD
ENDBRANCH  17  18
ENDBRANCH  16  17
TORSDOF 2
