REMARK  Name = ZINC35037065
REMARK  13 active torsions:
REMARK  status: ('A' for Active; 'I' for Inactive)
REMARK    1  A    between atoms: C_1  and  C_2
REMARK    2  A    between atoms: C_2  and  C_3
REMARK    3  A    between atoms: C_3  and  N_4
REMARK    4  A    between atoms: C_14  and  C_15
REMARK    5  A    between atoms: C_15  and  C_17
REMARK    6  A    between atoms: C_15  and  N_19
REMARK    7  A    between atoms: C_17  and  C_18
REMARK    8  A    between atoms: N_19  and  C_20
REMARK    9  A    between atoms: C_20  and  C_21
REMARK   10  A    between atoms: C_21  and  N_22
REMARK   11  A    between atoms: N_22  and  C_23
REMARK   12  A    between atoms: N_22  and  C_24
REMARK   13  A    between atoms: N_27  and  C_28
REMARK                            x       y       z     vdW  Elec       q    Type
REMARK                         _______ _______ _______ _____ _____    ______ ____
ROOT
ATOM      1  N   UNL     1      -1.184  -3.092   3.474  0.00  0.00    -0.277 N 
ATOM      2  C   UNL     1      -2.125  -3.159   4.436  0.00  0.00    +0.307 C 
ATOM      3  O   UNL     1      -3.159  -2.530   4.320  0.00  0.00    -0.252 OA
ATOM      4  N   UNL     1      -1.920  -3.922   5.528  0.00  0.00    -0.268 N 
ATOM      5  H   UNL     1      -1.068  -4.369   5.654  0.00  0.00    +0.156 HD
ENDROOT
BRANCH   4   6
ATOM      6  C   UNL     1      -2.935  -4.070   6.480  0.00  0.00    +0.049 A 
ATOM      7  C   UNL     1      -3.864  -3.056   6.670  0.00  0.00    +0.024 A 
ATOM      8  C   UNL     1      -4.865  -3.205   7.609  0.00  0.00    +0.002 A 
ATOM      9  C   UNL     1      -4.944  -4.364   8.361  0.00  0.00    +0.001 A 
ATOM     10  C   UNL     1      -4.021  -5.376   8.174  0.00  0.00    +0.017 A 
ATOM     11  C   UNL     1      -3.020  -5.235   7.232  0.00  0.00    +0.039 A 
ATOM     12 BR   UNL     1      -1.762  -6.623   6.972  0.00  0.00    -0.048 Br
ENDBRANCH   4   6
BRANCH   1  13
ATOM     13  C   UNL     1      -1.407  -2.261   2.288  0.00  0.00    +0.143 C 
BRANCH  13  24
ATOM     14  N   UNL     1      -2.511  -3.281   0.338  0.00  0.00    -0.295 N 
ATOM     15  C   UNL     1      -2.525  -4.043  -0.781  0.00  0.00    +0.262 A 
ATOM     16  O   UNL     1      -3.541  -4.186  -1.435  0.00  0.00    -0.267 OA
ATOM     17  C   UNL     1      -1.265  -4.691  -1.175  0.00  0.00    +0.065 A 
ATOM     18  C   UNL     1      -1.173  -5.494  -2.310  0.00  0.00    +0.015 A 
ATOM     19  C   UNL     1       0.033  -6.076  -2.633  0.00  0.00    +0.001 A 
ATOM     20  C   UNL     1       1.153  -5.869  -1.839  0.00  0.00    +0.002 A 
ATOM     21  C   UNL     1       1.083  -5.078  -0.714  0.00  0.00    +0.028 A 
ATOM     22  C   UNL     1      -0.128  -4.477  -0.365  0.00  0.00    +0.078 A 
ATOM     23  N   UNL     1      -0.242  -3.690   0.734  0.00  0.00    -0.232 NA
ATOM     24  C   UNL     1      -1.367  -3.126   1.054  0.00  0.00    +0.134 A 
BRANCH  14  25
ATOM     25  C   UNL     1      -3.738  -2.613   0.777  0.00  0.00    +0.126 C 
BRANCH  25  27
ATOM     26  C   UNL     1      -5.088  -0.518   0.603  0.00  0.00    +0.005 C 
ATOM     27  C   UNL     1      -3.754  -1.177   0.248  0.00  0.00    +0.018 C 
ENDBRANCH  25  27
ENDBRANCH  14  25
ENDBRANCH  13  24
BRANCH  13  28
ATOM     28  C   UNL     1      -0.314  -1.195   2.199  0.00  0.00    +0.027 C 
ATOM     29  C   UNL     1      -0.425  -0.250   3.397  0.00  0.00    +0.006 C 
ENDBRANCH  13  28
ENDBRANCH   1  13
BRANCH   1  30
ATOM     30  C   UNL     1       0.062  -3.849   3.614  0.00  0.00    +0.091 C 
BRANCH  30  31
ATOM     31  C   UNL     1       1.103  -2.990   4.334  0.00  0.00    -0.060 C 
BRANCH  31  32
ATOM     32  N   UNL     1       2.353  -3.750   4.474  0.00  0.00    +0.377 N 
ATOM     33  C   UNL     1       3.388  -2.886   5.057  0.00  0.00    -0.097 C 
ATOM     34  C   UNL     1       2.127  -4.905   5.353  0.00  0.00    -0.097 C 
ATOM     35  H   UNL     1       2.655  -4.071   3.567  0.00  0.00    -0.083 HD
ENDBRANCH  31  32
ENDBRANCH  30  31
ENDBRANCH   1  30
TORSDOF 9
