REMARK  Name = ZINC15127739
REMARK  9 active torsions:
REMARK  status: ('A' for Active; 'I' for Inactive)
REMARK    1  A    between atoms: C_4  and  C_7
REMARK    2  A    between atoms: C_7  and  N_8
REMARK    3  A    between atoms: C_9  and  C_27
REMARK    4  A    between atoms: C_12  and  S_13
REMARK    5  A    between atoms: S_13  and  C_14
REMARK    6  A    between atoms: C_14  and  C_15
REMARK    7  A    between atoms: N_20  and  C_21
REMARK    8  A    between atoms: C_21  and  C_22
REMARK    9  A    between atoms: C_27  and  N_61
REMARK                            x       y       z     vdW  Elec       q    Type
REMARK                         _______ _______ _______ _____ _____    ______ ____
ROOT
ATOM      1  N   UNL     1      -1.231   4.798   2.086  0.00  0.00    -0.303 N 
ATOM      2  C   UNL     1      -0.904   5.987   1.495  0.00  0.00    +0.118 A 
ATOM      3  N   UNL     1      -0.276   5.710   0.388  0.00  0.00    -0.135 NA
ATOM      4  N   UNL     1      -0.180   4.437   0.241  0.00  0.00    -0.123 NA
ATOM      5  C   UNL     1      -0.747   3.828   1.257  0.00  0.00    +0.192 A 
ENDROOT
BRANCH   1   6
ATOM      6  C   UNL     1      -1.950   4.605   3.348  0.00  0.00    +0.160 C 
BRANCH   6  10
ATOM      7  C   UNL     1       0.847   4.459   6.573  0.00  0.00    +0.000 A 
ATOM      8  C   UNL     1       0.306   5.670   6.181  0.00  0.00    +0.000 A 
ATOM      9  C   UNL     1      -0.599   5.717   5.138  0.00  0.00    +0.005 A 
ATOM     10  C   UNL     1      -0.963   4.554   4.485  0.00  0.00    -0.028 A 
ATOM     11  C   UNL     1      -0.426   3.343   4.880  0.00  0.00    +0.005 A 
ATOM     12  C   UNL     1       0.483   3.296   5.920  0.00  0.00    +0.000 A 
ENDBRANCH   6  10
ENDBRANCH   1   6
BRANCH   5  13
ATOM     13  S   UNL     1      -0.866   2.087   1.500  0.00  0.00    -0.077 S 
BRANCH  13  14
ATOM     14  C   UNL     1      -0.018   1.503   0.010  0.00  0.00    +0.173 C 
BRANCH  14  15
ATOM     15  C   UNL     1       0.002  -0.004   0.002  0.00  0.00    +0.231 C 
ATOM     16  O   UNL     1      -0.506  -0.622   0.913  0.00  0.00    -0.274 OA
ATOM     17  N   UNL     1       0.585  -0.664  -1.018  0.00  0.00    -0.239 N 
ATOM     18  C   UNL     1       0.603  -2.012  -1.025  0.00  0.00    +0.306 C 
ATOM     19  O   UNL     1       0.094  -2.632  -0.112  0.00  0.00    -0.252 OA
ATOM     20  N   UNL     1       1.186  -2.673  -2.045  0.00  0.00    -0.292 N 
ATOM     21  H   UNL     1       0.992  -0.170  -1.747  0.00  0.00    +0.159 HD
ATOM     22  H   UNL     1       1.593  -2.178  -2.774  0.00  0.00    +0.151 HD
BRANCH  20  23
ATOM     23  C   UNL     1       1.206  -4.137  -2.053  0.00  0.00    +0.180 C 
BRANCH  23  24
ATOM     24  C   UNL     1       1.912  -4.623  -3.293  0.00  0.00    +0.122 A 
ATOM     25  C   UNL     1       3.230  -4.867  -3.404  0.00  0.00    +0.046 A 
ATOM     26  C   UNL     1       3.456  -5.303  -4.730  0.00  0.00    +0.041 A 
ATOM     27  C   UNL     1       2.263  -5.299  -5.350  0.00  0.00    +0.195 A 
ATOM     28  O   UNL     1       1.330  -4.892  -4.474  0.00  0.00    -0.466 OA
ENDBRANCH  23  24
ENDBRANCH  20  23
ENDBRANCH  14  15
ENDBRANCH  13  14
ENDBRANCH   5  13
BRANCH   2  29
ATOM     29  C   UNL     1      -1.217   7.363   2.025  0.00  0.00    -0.001 C 
BRANCH  29  35
ATOM     30  C   UNL     1      -2.488   7.978   0.059  0.00  0.00    -0.078 C 
ATOM     31  C   UNL     1      -3.897   8.288  -0.453  0.00  0.00    -0.019 C 
ATOM     32  C   UNL     1      -4.412   9.561   0.225  0.00  0.00    -0.004 C 
ATOM     33  C   UNL     1      -4.394   9.364   1.743  0.00  0.00    -0.019 C 
ATOM     34  C   UNL     1      -2.971   9.023   2.191  0.00  0.00    -0.078 C 
ATOM     35  N   UNL     1      -2.543   7.776   1.522  0.00  0.00    +0.384 N 
ATOM     36  H   UNL     1      -3.224   7.036   1.731  0.00  0.00    -0.081 HD
ENDBRANCH  29  35
ENDBRANCH   2  29
TORSDOF 9
