REMARK  Name = ZINC20968928
REMARK  11 active torsions:
REMARK  status: ('A' for Active; 'I' for Inactive)
REMARK    1  A    between atoms: C_1  and  C_2
REMARK    2  A    between atoms: C_2  and  C_3
REMARK    3  A    between atoms: C_2  and  C_4
REMARK    4  A    between atoms: C_4  and  N_5
REMARK    5  A    between atoms: C_6  and  N_29
REMARK    6  A    between atoms: C_7  and  N_14
REMARK    7  A    between atoms: N_14  and  C_15
REMARK    8  A    between atoms: C_15  and  C_16
REMARK    9  A    between atoms: C_16  and  C_17
REMARK   10  A    between atoms: C_16  and  C_18
REMARK   11  A    between atoms: C_19  and  C_21
REMARK                            x       y       z     vdW  Elec       q    Type
REMARK                         _______ _______ _______ _____ _____    ______ ____
ROOT
ATOM      1  N   UNL     1       4.889   7.202  -1.163  0.00  0.00    -0.280 N 
ATOM      2  C   UNL     1       3.877   6.274  -1.082  0.00  0.00    +0.127 A 
ATOM      3  C   UNL     1       3.151   6.170   0.087  0.00  0.00    +0.140 A 
ATOM      4  C   UNL     1       3.466   7.024   1.161  0.00  0.00    +0.277 A 
ATOM      5  O   UNL     1       2.836   6.957   2.203  0.00  0.00    -0.266 OA
ATOM      6  N   UNL     1       4.471   7.912   1.031  0.00  0.00    -0.273 N 
ATOM      7  H   UNL     1       4.730   8.576   1.869  0.00  0.00    +0.173 HD
ATOM      8  C   UNL     1       5.168   7.999  -0.116  0.00  0.00    +0.331 A 
ATOM      9  O   UNL     1       6.066   8.813  -0.208  0.00  0.00    -0.246 OA
ENDROOT
BRANCH   3  10
ATOM     10  N   UNL     1       2.107   5.228   0.202  0.00  0.00    -0.260 N 
ATOM     11  C   UNL     1       2.373   3.911   0.095  0.00  0.00    +0.253 C 
ATOM     12  O   UNL     1       1.475   3.099   0.207  0.00  0.00    -0.270 OA
BRANCH  11  13
ATOM     13  C   UNL     1       3.755   3.455  -0.159  0.00  0.00    +0.057 A 
ATOM     14  C   UNL     1       4.838   4.206   0.303  0.00  0.00    +0.034 A 
ATOM     15  C   UNL     1       6.126   3.774   0.063  0.00  0.00    +0.042 A 
ATOM     16  C   UNL     1       6.347   2.595  -0.631  0.00  0.00    +0.021 A 
ATOM     17  C   UNL     1       5.280   1.849  -1.096  0.00  0.00    +0.022 A 
ATOM     18  C   UNL     1       3.985   2.270  -0.862  0.00  0.00    +0.053 A 
ATOM     19 CL   UNL     1       2.646   1.328  -1.441  0.00  0.00    -0.083 Cl
ATOM     20 CL   UNL     1       7.473   4.706   0.637  0.00  0.00    -0.084 Cl
ENDBRANCH  11  13
BRANCH  10  21
ATOM     21  C   UNL     1       0.734   5.681   0.437  0.00  0.00    +0.117 C 
BRANCH  21  22
ATOM     22  C   UNL     1       0.417   5.595   1.931  0.00  0.00    +0.001 C 
ATOM     23  C   UNL     1      -0.966   6.194   2.195  0.00  0.00    +0.009 C 
ATOM     24  C   UNL     1       0.430   4.129   2.371  0.00  0.00    +0.009 C 
ENDBRANCH  21  22
ENDBRANCH  10  21
ENDBRANCH   3  10
BRANCH   2  25
ATOM     25  N   UNL     1       3.593   5.459  -2.152  0.00  0.00    -0.343 N 
ATOM     26  H   UNL     1       2.783   4.719  -2.079  0.00  0.00    +0.144 HD
ATOM     27  H   UNL     1       4.177   5.547  -3.080  0.00  0.00    +0.144 HD
ENDBRANCH   2  25
BRANCH   1  28
ATOM     28  C   UNL     1       5.668   7.323  -2.398  0.00  0.00    +0.131 C 
BRANCH  28  30
ATOM     29  C   UNL     1       5.053   9.729  -2.675  0.00  0.00    +0.009 C 
ATOM     30  C   UNL     1       5.002   8.344  -3.323  0.00  0.00    +0.003 C 
ATOM     31  C   UNL     1       5.744   8.379  -4.661  0.00  0.00    +0.009 C 
ENDBRANCH  28  30
ENDBRANCH   1  28
TORSDOF 7
