REMARK  Name = ZINC39671858
REMARK  10 active torsions:
REMARK  status: ('A' for Active; 'I' for Inactive)
REMARK    1  A    between atoms: C_1  and  C_2
REMARK    2  A    between atoms: C_4  and  C_33
REMARK    3  A    between atoms: N_5  and  C_7
REMARK    4  A    between atoms: C_7  and  C_8
REMARK    5  A    between atoms: C_8  and  C_9
REMARK    6  A    between atoms: C_9  and  N_10
REMARK    7  A    between atoms: C_11  and  C_13
REMARK    8  A    between atoms: C_24  and  C_26
REMARK    9  A    between atoms: C_28  and  C_32
REMARK   10  A    between atoms: N_29  and  C_31
REMARK                            x       y       z     vdW  Elec       q    Type
REMARK                         _______ _______ _______ _____ _____    ______ ____
ROOT
ATOM      1  C   UNL     1       4.606  -6.758   4.021  0.00  0.00    +0.100 C 
ATOM      2  C   UNL     1       5.296  -7.267   2.735  0.00  0.00    +0.121 C 
ATOM      3  N   UNL     1       6.168  -8.374   3.192  0.00  0.00    -0.295 N 
ATOM      4  C   UNL     1       5.364  -9.078   4.219  0.00  0.00    +0.115 C 
ATOM      5  C   UNL     1       4.652  -7.949   4.992  0.00  0.00    -0.004 C 
ATOM      6  C   UNL     1       5.448  -7.582   6.241  0.00  0.00    -0.010 C 
ATOM      7  C   UNL     1       5.432  -8.763   7.216  0.00  0.00    -0.082 C 
ATOM      8  N   UNL     1       4.045  -9.087   7.572  0.00  0.00    +0.379 N 
ATOM      9  C   UNL     1       3.312  -9.528   6.380  0.00  0.00    -0.082 C 
ATOM     10  C   UNL     1       3.238  -8.379   5.369  0.00  0.00    -0.010 C 
ATOM     11  C   UNL     1       7.412  -8.675   2.768  0.00  0.00    +0.267 C 
ATOM     12  O   UNL     1       8.004  -9.624   3.244  0.00  0.00    -0.268 OA
ATOM     13  H   UNL     1       4.040  -9.824   8.261  0.00  0.00    -0.086 HD
ATOM     14  H   UNL     1       3.598  -8.268   7.957  0.00  0.00    -0.086 HD
ENDROOT
BRANCH  11  15
ATOM     15  C   UNL     1       8.056  -7.850   1.726  0.00  0.00    +0.147 A 
ATOM     16  C   UNL     1       9.347  -8.042   1.178  0.00  0.00    +0.057 A 
ATOM     17  C   UNL     1       9.504  -7.053   0.267  0.00  0.00    +0.037 A 
ATOM     18  N   UNL     1       8.371  -6.318   0.275  0.00  0.00    -0.271 N 
ATOM     19  N   UNL     1       7.536  -6.798   1.125  0.00  0.00    -0.167 NA
ATOM     20  C   UNL     1       8.127  -5.146  -0.570  0.00  0.00    +0.172 C 
ATOM     21  C   UNL     1      10.717  -6.817  -0.595  0.00  0.00    +0.065 C 
ENDBRANCH  11  15
BRANCH   1  23
ATOM     22  N   UNL     1       2.577  -5.416   4.470  0.00  0.00    -0.315 N 
ATOM     23  C   UNL     1       3.179  -6.371   3.733  0.00  0.00    +0.218 C 
ATOM     24  O   UNL     1       2.571  -6.919   2.837  0.00  0.00    -0.275 OA
ATOM     25  H   UNL     1       3.063  -4.978   5.185  0.00  0.00    +0.149 HD
BRANCH  22  26
ATOM     26  C   UNL     1       1.189  -5.040   4.189  0.00  0.00    +0.106 C 
BRANCH  26  27
ATOM     27  C   UNL     1       0.752  -3.943   5.162  0.00  0.00    +0.042 C 
BRANCH  27  28
ATOM     28  C   UNL     1      -0.698  -3.550   4.869  0.00  0.00    +0.145 C 
BRANCH  28  33
ATOM     29  C   UNL     1      -2.572  -1.275   8.932  0.00  0.00    +0.067 C 
ATOM     30  C   UNL     1      -1.941  -1.525   7.586  0.00  0.00    +0.060 A 
ATOM     31  C   UNL     1      -1.498  -0.544   6.693  0.00  0.00    +0.047 A 
ATOM     32  C   UNL     1      -0.996  -1.170   5.604  0.00  0.00    +0.036 A 
ATOM     33  N   UNL     1      -1.116  -2.499   5.800  0.00  0.00    -0.268 N 
ATOM     34  N   UNL     1      -1.708  -2.698   7.054  0.00  0.00    -0.176 NA
ATOM     35  C   UNL     1      -0.407  -0.501   4.388  0.00  0.00    +0.065 C 
ENDBRANCH  28  33
ENDBRANCH  27  28
ENDBRANCH  26  27
ENDBRANCH  22  26
ENDBRANCH   1  23
TORSDOF 6
