REMARK  Name = ZINC12130910
REMARK  9 active torsions:
REMARK  status: ('A' for Active; 'I' for Inactive)
REMARK    1  A    between atoms: C_1  and  N_67
REMARK    2  A    between atoms: C_2  and  N_67
REMARK    3  A    between atoms: C_3  and  C_4
REMARK    4  A    between atoms: C_3  and  N_67
REMARK    5  A    between atoms: C_4  and  N_5
REMARK    6  A    between atoms: C_16  and  N_69
REMARK    7  A    between atoms: C_20  and  C_21
REMARK    8  A    between atoms: C_20  and  N_69
REMARK    9  A    between atoms: C_21  and  C_27
REMARK                            x       y       z     vdW  Elec       q    Type
REMARK                         _______ _______ _______ _____ _____    ______ ____
ROOT
ATOM      1  N   UNL     1      -2.338   7.848  -8.099  0.00  0.00    -0.301 N 
ATOM      2  C   UNL     1      -3.643   7.534  -7.913  0.00  0.00    +0.203 A 
ATOM      3  N   UNL     1      -4.055   6.707  -6.977  0.00  0.00    -0.230 NA
ATOM      4  C   UNL     1      -3.131   6.168  -6.188  0.00  0.00    +0.116 A 
ATOM      5  C   UNL     1      -1.748   6.433  -6.301  0.00  0.00    +0.076 A 
ATOM      6  C   UNL     1      -1.340   7.340  -7.337  0.00  0.00    +0.262 A 
ATOM      7  O   UNL     1      -0.172   7.634  -7.518  0.00  0.00    -0.267 OA
ATOM      8  C   UNL     1      -0.885   5.753  -5.352  0.00  0.00    -0.023 A 
ATOM      9  C   UNL     1      -1.492   4.937  -4.458  0.00  0.00    -0.006 A 
ATOM     10  S   UNL     1      -3.223   5.037  -4.837  0.00  0.00    -0.073 S 
ATOM     11  C   UNL     1      -0.838   4.125  -3.382  0.00  0.00    +0.027 C 
ATOM     12  C   UNL     1       0.669   4.061  -3.669  0.00  0.00    -0.067 C 
ATOM     13  C   UNL     1       1.169   5.474  -3.981  0.00  0.00    -0.011 C 
ATOM     14  C   UNL     1       0.631   5.928  -5.338  0.00  0.00    +0.035 C 
ENDROOT
BRANCH  12  15
ATOM     15  N   UNL     1       1.377   3.544  -2.483  0.00  0.00    +0.382 N 
ATOM     16  H   UNL     1       0.899   3.868  -1.634  0.00  0.00    -0.085 HD
ATOM     17  H   UNL     1       2.343   3.893  -2.486  0.00  0.00    -0.085 HD
BRANCH  15  18
ATOM     18  C   UNL     1       1.393   2.069  -2.499  0.00  0.00    -0.071 C 
BRANCH  18  19
ATOM     19  C   UNL     1       2.133   1.562  -1.259  0.00  0.00    -0.019 C 
ATOM     20  C   UNL     1       1.417   2.055  -0.000  0.00  0.00    +0.010 C 
ATOM     21  C   UNL     1      -0.019   1.526   0.010  0.00  0.00    +0.001 C 
ATOM     22  C   UNL     1       0.002  -0.004   0.002  0.00  0.00    +0.000 C 
ATOM     23  C   UNL     1       0.718  -0.497  -1.257  0.00  0.00    +0.001 C 
ATOM     24  C   UNL     1       2.154   0.032  -1.268  0.00  0.00    +0.010 C 
BRANCH  19  25
ATOM     25  C   UNL     1       3.547   2.084  -1.270  0.00  0.00    -0.043 A 
ATOM     26  C   UNL     1       4.609   1.200  -1.279  0.00  0.00    +0.004 A 
ATOM     27  C   UNL     1       5.906   1.678  -1.293  0.00  0.00    +0.000 A 
ATOM     28  C   UNL     1       6.140   3.041  -1.289  0.00  0.00    +0.000 A 
ATOM     29  C   UNL     1       5.078   3.924  -1.275  0.00  0.00    +0.000 A 
ATOM     30  C   UNL     1       3.781   3.446  -1.265  0.00  0.00    +0.004 A 
ENDBRANCH  19  25
ENDBRANCH  18  19
ENDBRANCH  15  18
ENDBRANCH  12  15
BRANCH   1  31
ATOM     31  C   UNL     1      -1.990   8.780  -9.174  0.00  0.00    +0.108 C 
BRANCH  31  32
ATOM     32  C   UNL     1      -2.006  10.211  -8.633  0.00  0.00    -0.058 C 
BRANCH  32  35
ATOM     33  C   UNL     1      -2.691  11.156 -10.754  0.00  0.00    -0.097 C 
ATOM     34  C   UNL     1      -1.429  12.498  -9.182  0.00  0.00    -0.097 C 
ATOM     35  N   UNL     1      -1.632  11.137  -9.722  0.00  0.00    +0.377 N 
ATOM     36  H   UNL     1      -0.756  10.814 -10.149  0.00  0.00    -0.083 HD
ENDBRANCH  32  35
ENDBRANCH  31  32
ENDBRANCH   1  31
TORSDOF 7
