REMARK  Name = ZINC13075287
REMARK  12 active torsions:
REMARK  status: ('A' for Active; 'I' for Inactive)
REMARK    1  A    between atoms: C_1  and  C_2
REMARK    2  A    between atoms: C_6  and  C_34
REMARK    3  A    between atoms: C_7  and  N_8
REMARK    4  A    between atoms: C_9  and  C_11
REMARK    5  A    between atoms: C_11  and  N_66
REMARK    6  A    between atoms: C_12  and  N_66
REMARK    7  A    between atoms: C_13  and  C_15
REMARK    8  A    between atoms: C_13  and  C_16
REMARK    9  A    between atoms: C_13  and  N_66
REMARK   10  A    between atoms: N_18  and  C_19
REMARK   11  A    between atoms: C_23  and  S_25
REMARK   12  A    between atoms: S_25  and  N_28
REMARK                            x       y       z     vdW  Elec       q    Type
REMARK                         _______ _______ _______ _____ _____    ______ ____
ROOT
ATOM      1  C   UNL     1      -1.925   3.127   1.242  0.00  0.00    +0.203 C 
ATOM      2  O   UNL     1      -2.010   2.465   0.230  0.00  0.00    -0.277 OA
ATOM      3  N   UNL     1      -1.740   4.459   1.163  0.00  0.00    -0.287 N 
ATOM      4  H   UNL     1      -1.613   4.980   1.972  0.00  0.00    +0.155 HD
ENDROOT
BRANCH   3   5
ATOM      5  C   UNL     1      -1.729   5.091  -0.085  0.00  0.00    +0.035 A 
ATOM      6  C   UNL     1      -2.277   6.359  -0.228  0.00  0.00    +0.023 A 
ATOM      7  C   UNL     1      -2.265   6.980  -1.461  0.00  0.00    +0.004 A 
ATOM      8  C   UNL     1      -1.708   6.340  -2.554  0.00  0.00    +0.028 A 
ATOM      9  C   UNL     1      -1.162   5.078  -2.415  0.00  0.00    +0.107 A 
ATOM     10  C   UNL     1      -1.166   4.454  -1.183  0.00  0.00    +0.051 A 
BRANCH   9  11
ATOM     11  S   UNL     1      -0.454   4.267  -3.810  0.00  0.00    +0.061 S 
ATOM     12  O   UNL     1      -0.500   2.874  -3.537  0.00  0.00    -0.153 OA
ATOM     13  O   UNL     1      -1.059   4.838  -4.962  0.00  0.00    -0.153 OA
BRANCH  11  14
ATOM     14  N   UNL     1       1.147   4.687  -3.860  0.00  0.00    -0.172 NA
ATOM     15  C   UNL     1       1.597   5.871  -4.609  0.00  0.00    +0.137 C 
ATOM     16  C   UNL     1       2.482   6.718  -3.681  0.00  0.00    +0.177 C 
ATOM     17  O   UNL     1       3.507   5.891  -3.126  0.00  0.00    -0.377 OA
ATOM     18  C   UNL     1       3.020   4.825  -2.307  0.00  0.00    +0.177 C 
ATOM     19  C   UNL     1       2.163   3.884  -3.160  0.00  0.00    +0.137 C 
ENDBRANCH  11  14
ENDBRANCH   9  11
ENDBRANCH   3   5
BRANCH   1  20
ATOM     20  C   UNL     1      -2.028   2.459   2.590  0.00  0.00    +0.017 C 
ATOM     21  C   UNL     1      -3.283   2.956   3.311  0.00  0.00    -0.004 C 
BRANCH  20  23
ATOM     22  C   UNL     1      -1.896   0.302   3.683  0.00  0.00    -0.094 C 
ATOM     23  N   UNL     1      -2.090   0.996   2.392  0.00  0.00    +0.391 N 
ATOM     24  H   UNL     1      -1.342   0.714   1.747  0.00  0.00    -0.080 HD
BRANCH  23  25
ATOM     25  C   UNL     1      -3.394   0.620   1.807  0.00  0.00    +0.020 C 
BRANCH  25  27
ATOM     26  N   UNL     1      -4.424  -1.410   0.837  0.00  0.00    -0.287 N 
ATOM     27  C   UNL     1      -3.350  -0.834   1.413  0.00  0.00    +0.201 C 
ATOM     28  O   UNL     1      -2.347  -1.486   1.614  0.00  0.00    -0.278 OA
ATOM     29  H   UNL     1      -5.203  -0.874   0.621  0.00  0.00    +0.155 HD
BRANCH  26  36
ATOM     30  C   UNL     1      -2.330  -2.426  -0.801  0.00  0.00    +0.045 C 
ATOM     31  C   UNL     1      -3.411  -3.317  -0.245  0.00  0.00    -0.029 A 
ATOM     32  C   UNL     1      -3.402  -4.670  -0.521  0.00  0.00    +0.005 A 
ATOM     33  C   UNL     1      -4.396  -5.488  -0.015  0.00  0.00    +0.001 A 
ATOM     34  C   UNL     1      -5.400  -4.954   0.773  0.00  0.00    +0.005 A 
ATOM     35  C   UNL     1      -5.411  -3.603   1.057  0.00  0.00    -0.029 A 
ATOM     36  C   UNL     1      -4.414  -2.779   0.551  0.00  0.00    +0.039 A 
ATOM     37  C   UNL     1      -6.505  -3.022   1.917  0.00  0.00    +0.045 C 
ENDBRANCH  26  36
ENDBRANCH  25  27
ENDBRANCH  23  25
ENDBRANCH  20  23
ENDBRANCH   1  20
TORSDOF 8
