REMARK  Name = ZINC10875026
REMARK  14 active torsions:
REMARK  status: ('A' for Active; 'I' for Inactive)
REMARK    1  A    between atoms: C_1  and  C_2
REMARK    2  A    between atoms: C_2  and  C_4
REMARK    3  A    between atoms: C_2  and  O_14
REMARK    4  A    between atoms: N_6  and  C_7
REMARK    5  A    between atoms: C_7  and  C_8
REMARK    6  A    between atoms: C_7  and  C_9
REMARK    7  A    between atoms: C_7  and  C_11
REMARK    8  A    between atoms: C_11  and  C_12
REMARK    9  A    between atoms: C_11  and  C_13
REMARK   10  A    between atoms: O_14  and  C_15
REMARK   11  A    between atoms: C_15  and  C_17
REMARK   12  A    between atoms: C_20  and  C_23
REMARK   13  A    between atoms: C_23  and  C_24
REMARK   14  A    between atoms: C_23  and  C_25
REMARK                            x       y       z     vdW  Elec       q    Type
REMARK                         _______ _______ _______ _____ _____    ______ ____
ROOT
ATOM      1  C   UNL     1      -0.019   1.526   0.010  0.00  0.00    +0.062 C 
ATOM      2  C   UNL     1       0.002  -0.004   0.002  0.00  0.00    +0.259 C 
ENDROOT
BRANCH   2   3
ATOM      3  C   UNL     1       0.707  -0.490  -1.238  0.00  0.00    +0.255 C 
ATOM      4  O   UNL     1       1.753  -1.097  -1.142  0.00  0.00    -0.272 OA
ATOM      5  N   UNL     1       0.176  -0.250  -2.453  0.00  0.00    -0.294 N 
ATOM      6  H   UNL     1      -0.660   0.235  -2.530  0.00  0.00    +0.150 HD
BRANCH   5   7
ATOM      7  C   UNL     1       0.862  -0.723  -3.658  0.00  0.00    +0.121 C 
ATOM      8  C   UNL     1       0.993  -2.246  -3.607  0.00  0.00    +0.048 C 
BRANCH   7   9
ATOM      9  C   UNL     1       0.055  -0.322  -4.895  0.00  0.00    +0.020 C 
ATOM     10  C   UNL     1       0.029   1.203  -5.015  0.00  0.00    +0.010 C 
ATOM     11  C   UNL     1       0.704  -0.921  -6.144  0.00  0.00    +0.010 C 
ENDBRANCH   7   9
BRANCH   7  12
ATOM     12  C   UNL     1       2.202  -0.117  -3.730  0.00  0.00    +0.088 C 
ATOM     13  N   UNL     1       3.236   0.350  -3.785  0.00  0.00    -0.194 NA
ENDBRANCH   7  12
ENDBRANCH   5   7
ENDBRANCH   2   3
BRANCH   2  14
ATOM     14  O   UNL     1       0.693  -0.477   1.160  0.00  0.00    -0.449 OA
BRANCH  14  15
ATOM     15  C   UNL     1      -0.045  -0.697   2.265  0.00  0.00    +0.340 C 
ATOM     16  O   UNL     1      -1.242  -0.493   2.247  0.00  0.00    -0.245 OA
BRANCH  15  17
ATOM     17  C   UNL     1       0.602  -1.187   3.500  0.00  0.00    +0.059 A 
ATOM     18  C   UNL     1       1.979  -1.418   3.526  0.00  0.00    +0.015 A 
ATOM     19  C   UNL     1       2.577  -1.875   4.682  0.00  0.00    +0.005 A 
ATOM     20  C   UNL     1       1.815  -2.106   5.814  0.00  0.00    -0.045 A 
ATOM     21  C   UNL     1       0.450  -1.880   5.795  0.00  0.00    +0.005 A 
ATOM     22  C   UNL     1      -0.159  -1.416   4.647  0.00  0.00    +0.015 A 
BRANCH  20  23
ATOM     23  C   UNL     1       2.475  -2.605   7.073  0.00  0.00    +0.013 C 
ATOM     24  C   UNL     1       2.250  -1.597   8.201  0.00  0.00    +0.012 C 
ATOM     25  C   UNL     1       1.869  -3.954   7.466  0.00  0.00    +0.012 C 
ENDBRANCH  20  23
ENDBRANCH  15  17
ENDBRANCH  14  15
ENDBRANCH   2  14
TORSDOF 8
