REMARK  Name = ZINC05033366
REMARK  7 active torsions:
REMARK  status: ('A' for Active; 'I' for Inactive)
REMARK    1  A    between atoms: C_1  and  C_2
REMARK    2  A    between atoms: C_5  and  N_9
REMARK    3  A    between atoms: C_6  and  C_8
REMARK    4  A    between atoms: C_10  and  C_12
REMARK    5  A    between atoms: C_14  and  C_18
REMARK    6  A    between atoms: C_16  and  C_17
REMARK    7  A    between atoms: C_22  and  N_24
REMARK                            x       y       z     vdW  Elec       q    Type
REMARK                         _______ _______ _______ _____ _____    ______ ____
ROOT
ATOM      1  C   UNL     1      -0.707   7.484   0.067  0.00  0.00    +0.078 A 
ATOM      2  C   UNL     1      -1.184   6.097   0.071  0.00  0.00    +0.063 A 
ATOM      3  C   UNL     1      -0.071   5.322   0.066  0.00  0.00    +0.136 A 
ATOM      4  O   UNL     1       1.013   6.120   0.063  0.00  0.00    -0.459 OA
ATOM      5  C   UNL     1       0.656   7.408   0.059  0.00  0.00    +0.115 A 
ATOM      6  C   UNL     1       1.602   8.582   0.050  0.00  0.00    +0.087 C 
ENDROOT
BRANCH   3   7
ATOM      7  C   UNL     1      -0.051   3.844   0.068  0.00  0.00    +0.019 A 
ATOM      8  C   UNL     1      -1.248   3.127   0.077  0.00  0.00    +0.012 A 
ATOM      9  C   UNL     1      -1.223   1.748   0.074  0.00  0.00    +0.003 A 
ATOM     10  C   UNL     1      -0.014   1.075   0.073  0.00  0.00    +0.033 A 
ATOM     11  C   UNL     1       1.177   1.780   0.064  0.00  0.00    +0.127 A 
ATOM     12  C   UNL     1       1.165   3.159   0.061  0.00  0.00    +0.044 A 
BRANCH  11  13
ATOM     13  N   UNL     1       2.466   1.052   0.057  0.00  0.00    +0.056 N 
ATOM     14  O   UNL     1       2.477  -0.166   0.059  0.00  0.00    -0.126 OA
ATOM     15  O   UNL     1       3.515   1.671   0.048  0.00  0.00    -0.126 OA
ENDBRANCH  11  13
ENDBRANCH   3   7
BRANCH   1  17
ATOM     16  N   UNL     1      -2.874   8.615   0.080  0.00  0.00    -0.281 N 
ATOM     17  C   UNL     1      -1.530   8.707   0.071  0.00  0.00    +0.252 C 
ATOM     18  O   UNL     1      -0.995   9.799   0.067  0.00  0.00    -0.270 OA
ATOM     19  H   UNL     1      -3.302   7.747   0.002  0.00  0.00    +0.155 HD
BRANCH  16  24
ATOM     20  C   UNL     1      -6.035  13.300   0.568  0.00  0.00    +0.044 C 
ATOM     21  C   UNL     1      -5.196  12.055   0.439  0.00  0.00    -0.050 A 
ATOM     22  C   UNL     1      -3.902  12.041   0.927  0.00  0.00    +0.005 A 
ATOM     23  C   UNL     1      -3.130  10.903   0.809  0.00  0.00    +0.024 A 
ATOM     24  C   UNL     1      -3.654   9.770   0.200  0.00  0.00    +0.037 A 
ATOM     25  C   UNL     1      -4.952   9.788  -0.294  0.00  0.00    -0.029 A 
ATOM     26  C   UNL     1      -5.721  10.929  -0.168  0.00  0.00    +0.008 A 
ATOM     27  C   UNL     1      -5.522   8.563  -0.961  0.00  0.00    +0.045 C 
ENDBRANCH  16  24
ENDBRANCH   1  17
TORSDOF 4
