REMARK  Name = ZINC32903371
REMARK  5 active torsions:
REMARK  status: ('A' for Active; 'I' for Inactive)
REMARK    1  A    between atoms: C_1  and  N_2
REMARK    2  A    between atoms: N_5  and  C_6
REMARK    3  A    between atoms: C_9  and  N_12
REMARK    4  A    between atoms: C_13  and  C_15
REMARK    5  A    between atoms: N_19  and  C_20
REMARK                            x       y       z     vdW  Elec       q    Type
REMARK                         _______ _______ _______ _____ _____    ______ ____
ROOT
ATOM      1  N   UNL     1      -4.698   4.149  -0.612  0.00  0.00    -0.280 N 
ATOM      2  C   UNL     1      -4.538   5.485  -0.690  0.00  0.00    +0.267 C 
ATOM      3  O   UNL     1      -3.433   5.956  -0.884  0.00  0.00    -0.268 OA
ATOM      4  H   UNL     1      -5.681   3.727  -0.358  0.00  0.00    +0.155 HD
ENDROOT
BRANCH   1   8
ATOM      5  C   UNL     1      -1.464   1.617  -1.331  0.00  0.00    +0.035 A 
ATOM      6  C   UNL     1      -1.532   2.853  -1.961  0.00  0.00    +0.025 A 
ATOM      7  C   UNL     1      -2.606   3.689  -1.727  0.00  0.00    +0.025 A 
ATOM      8  C   UNL     1      -3.612   3.299  -0.853  0.00  0.00    +0.034 A 
ATOM      9  C   UNL     1      -3.541   2.066  -0.218  0.00  0.00    +0.025 A 
ATOM     10  C   UNL     1      -2.470   1.228  -0.457  0.00  0.00    +0.025 A 
BRANCH   5  15
ATOM     11  C   UNL     1       0.262  -2.832  -1.972  0.00  0.00    +0.129 C 
ATOM     12  N   UNL     1       0.461  -1.381  -1.938  0.00  0.00    -0.302 N 
ATOM     13  C   UNL     1      -0.561  -0.568  -1.603  0.00  0.00    +0.304 C 
ATOM     14  O   UNL     1      -1.648  -1.039  -1.329  0.00  0.00    -0.253 OA
ATOM     15  N   UNL     1      -0.378   0.766  -1.573  0.00  0.00    -0.269 N 
ATOM     16  H   UNL     1       1.444  -0.955  -2.186  0.00  0.00    +0.150 HD
ATOM     17  H   UNL     1       0.625   1.188  -1.738  0.00  0.00    +0.156 HD
ENDBRANCH   5  15
ENDBRANCH   1   8
BRANCH   2  18
ATOM     18  C   UNL     1      -5.697   6.372  -0.540  0.00  0.00    +0.129 A 
ATOM     19  C   UNL     1      -6.982   6.002  -0.255  0.00  0.00    +0.143 A 
ATOM     20  N   UNL     1      -7.724   7.108  -0.204  0.00  0.00    -0.243 NA
ATOM     21  C   UNL     1      -6.976   8.154  -0.450  0.00  0.00    +0.204 A 
ATOM     22  N   UNL     1      -5.709   7.750  -0.665  0.00  0.00    -0.295 N 
BRANCH  22  23
ATOM     23  C   UNL     1      -4.611   8.569  -0.961  0.00  0.00    +0.048 A 
ATOM     24  C   UNL     1      -3.477   8.528  -0.161  0.00  0.00    +0.029 A 
ATOM     25  C   UNL     1      -2.395   9.334  -0.456  0.00  0.00    +0.040 A 
ATOM     26  C   UNL     1      -2.444  10.189  -1.544  0.00  0.00    +0.124 A 
ATOM     27  C   UNL     1      -3.575  10.235  -2.341  0.00  0.00    +0.040 A 
ATOM     28  C   UNL     1      -4.658   9.428  -2.052  0.00  0.00    +0.029 A 
ATOM     29  F   UNL     1      -1.386  10.980  -1.829  0.00  0.00    -0.205 F 
ENDBRANCH  22  23
ENDBRANCH   2  18
TORSDOF 4
