REMARK  Name = ZINC27550239
REMARK  8 active torsions:
REMARK  status: ('A' for Active; 'I' for Inactive)
REMARK    1  A    between atoms: C_1  and  C_2
REMARK    2  A    between atoms: C_2  and  O_3
REMARK    3  A    between atoms: O_3  and  C_4
REMARK    4  A    between atoms: C_4  and  C_6
REMARK    5  A    between atoms: C_7  and  C_15
REMARK    6  A    between atoms: C_15  and  N_16
REMARK    7  A    between atoms: C_23  and  S_25
REMARK    8  A    between atoms: S_25  and  N_28
REMARK                            x       y       z     vdW  Elec       q    Type
REMARK                         _______ _______ _______ _____ _____    ______ ____
ROOT
ATOM      1  C   UNL     1      -0.737   1.985   1.185  0.00  0.00    +0.145 C 
ENDROOT
BRANCH   1   3
ATOM      2  C   UNL     1       0.632   3.988   2.018  0.00  0.00    +0.217 A 
ATOM      3  C   UNL     1      -0.431   3.450   1.364  0.00  0.00    +0.030 A 
ATOM      4  C   UNL     1      -1.221   4.579   0.877  0.00  0.00    +0.026 A 
ATOM      5  C   UNL     1      -2.409   4.695   0.150  0.00  0.00    +0.012 A 
ATOM      6  C   UNL     1      -2.898   5.934  -0.153  0.00  0.00    +0.001 A 
ATOM      7  C   UNL     1      -2.223   7.077   0.254  0.00  0.00    +0.004 A 
ATOM      8  C   UNL     1      -1.050   6.984   0.970  0.00  0.00    +0.047 A 
ATOM      9  C   UNL     1      -0.532   5.734   1.292  0.00  0.00    +0.136 A 
ATOM     10  O   UNL     1       0.565   5.335   1.964  0.00  0.00    -0.448 OA
BRANCH   2  11
ATOM     11  C   UNL     1       1.695   3.221   2.679  0.00  0.00    +0.375 C 
ATOM     12  O   UNL     1       1.664   2.005   2.667  0.00  0.00    -0.241 OA
BRANCH  11  13
ATOM     13  O   UNL     1       2.705   3.864   3.299  0.00  0.00    -0.459 OA
BRANCH  13  15
ATOM     14  C   UNL     1       4.776   3.941   4.577  0.00  0.00    +0.048 C 
ATOM     15  C   UNL     1       3.721   3.041   3.931  0.00  0.00    +0.229 C 
ENDBRANCH  13  15
ENDBRANCH  11  13
ENDBRANCH   2  11
ENDBRANCH   1   3
BRANCH   1  16
ATOM     16  N   UNL     1       0.001   1.469   0.025  0.00  0.00    -0.325 N 
ATOM     17  C   UNL     1      -0.479   2.090  -1.228  0.00  0.00    +0.110 C 
ATOM     18  C   UNL     1      -0.255   0.969  -2.269  0.00  0.00    +0.056 C 
ATOM     19  C   UNL     1      -0.307  -0.288  -1.425  0.00  0.00    -0.023 A 
ATOM     20  C   UNL     1      -0.156   0.083  -0.094  0.00  0.00    +0.033 A 
ATOM     21  C   UNL     1      -0.178  -0.903   0.891  0.00  0.00    +0.025 A 
ATOM     22  C   UNL     1      -0.342  -2.228   0.543  0.00  0.00    +0.030 A 
ATOM     23  C   UNL     1      -0.486  -2.587  -0.785  0.00  0.00    +0.105 A 
ATOM     24  C   UNL     1      -0.468  -1.614  -1.768  0.00  0.00    +0.034 A 
BRANCH  23  25
ATOM     25  S   UNL     1      -0.692  -4.281  -1.223  0.00  0.00    +0.056 S 
ATOM     26  O   UNL     1      -1.219  -4.936  -0.078  0.00  0.00    -0.153 OA
ATOM     27  O   UNL     1      -1.351  -4.298  -2.482  0.00  0.00    -0.153 OA
BRANCH  25  28
ATOM     28  N   UNL     1       0.820  -4.910  -1.473  0.00  0.00    -0.204 NA
ATOM     29  H   UNL     1       0.735  -5.971  -1.750  0.00  0.00    +0.144 HD
ATOM     30  H   UNL     1       1.412  -4.818  -0.551  0.00  0.00    +0.144 HD
ENDBRANCH  25  28
ENDBRANCH  23  25
ENDBRANCH   1  16
TORSDOF 7
