REMARK  Name = ZINC18118266
REMARK  9 active torsions:
REMARK  status: ('A' for Active; 'I' for Inactive)
REMARK    1  A    between atoms: C_1  and  O_2
REMARK    2  A    between atoms: O_2  and  C_3
REMARK    3  A    between atoms: C_6  and  N_9
REMARK    4  A    between atoms: C_10  and  P_22
REMARK    5  A    between atoms: N_11  and  N_12
REMARK    6  A    between atoms: N_12  and  C_13
REMARK    7  A    between atoms: C_16  and  N_19
REMARK    8  A    between atoms: P_22  and  N_24
REMARK    9  A    between atoms: P_22  and  N_30
REMARK                            x       y       z     vdW  Elec       q    Type
REMARK                         _______ _______ _______ _____ _____    ______ ____
ROOT
ATOM      1  N   UNL     1      -5.212  -2.880   0.018  0.00  0.00    -0.295 N 
ATOM      2  C   UNL     1      -4.946  -4.178   0.070  0.00  0.00    +0.180 C 
ATOM      3  N   UNL     1      -5.952  -5.071   0.050  0.00  0.00    -0.289 N 
ATOM      4  H   UNL     1      -4.769  -2.321  -0.639  0.00  0.00    +0.154 HD
ATOM      5  H   UNL     1      -5.758  -6.021   0.088  0.00  0.00    +0.186 HD
ENDROOT
BRANCH   1   9
ATOM      6  C   UNL     1      -7.926  -1.216   2.662  0.00  0.00    +0.120 A 
ATOM      7  C   UNL     1      -7.640  -0.571   1.460  0.00  0.00    +0.047 A 
ATOM      8  C   UNL     1      -6.745  -1.117   0.586  0.00  0.00    +0.027 A 
ATOM      9  C   UNL     1      -6.114  -2.327   0.897  0.00  0.00    +0.033 A 
ATOM     10  C   UNL     1      -6.403  -2.973   2.105  0.00  0.00    +0.027 A 
ATOM     11  C   UNL     1      -7.295  -2.418   2.978  0.00  0.00    +0.047 A 
BRANCH   6  13
ATOM     12  C   UNL     1      -9.426   0.562   3.141  0.00  0.00    +0.277 C 
ATOM     13  O   UNL     1      -8.816  -0.671   3.528  0.00  0.00    -0.495 OA
ENDBRANCH   6  13
ENDBRANCH   1   9
BRANCH   3  14
ATOM     14  N   UNL     1      -7.174  -4.664  -0.019  0.00  0.00    -0.259 N 
ATOM     15  H   UNL     1      -7.368  -3.715  -0.057  0.00  0.00    +0.172 HD
BRANCH  14  16
ATOM     16  C   UNL     1      -8.199  -5.575  -0.040  0.00  0.00    +0.046 A 
ATOM     17  C   UNL     1      -7.923  -6.947   0.020  0.00  0.00    +0.027 A 
ATOM     18  C   UNL     1      -8.958  -7.855  -0.001  0.00  0.00    +0.034 A 
ATOM     19  C   UNL     1     -10.270  -7.414  -0.081  0.00  0.00    +0.126 A 
ATOM     20  C   UNL     1     -10.551  -6.058  -0.142  0.00  0.00    +0.034 A 
ATOM     21  C   UNL     1      -9.528  -5.137  -0.115  0.00  0.00    +0.027 A 
BRANCH  19  22
ATOM     22  N   UNL     1     -11.377  -8.397  -0.103  0.00  0.00    +0.056 N 
ATOM     23  O   UNL     1     -11.114  -9.687  -0.047  0.00  0.00    -0.126 OA
ATOM     24  O   UNL     1     -12.625  -7.983  -0.180  0.00  0.00    -0.126 OA
ENDBRANCH  19  22
ENDBRANCH  14  16
ENDBRANCH   3  14
BRANCH   2  25
ATOM     25  P   UNL     1      -3.228  -4.750   0.168  0.00  0.00    +0.279 P 
ATOM     26  O   UNL     1      -3.195  -6.228   0.108  0.00  0.00    -0.279 OA
BRANCH  25  27
ATOM     27  N   UNL     1      -2.374  -4.133  -1.090  0.00  0.00    -0.231 NA
ATOM     28  C   UNL     1      -0.930  -3.877  -0.972  0.00  0.00    +0.121 C 
ATOM     29  C   UNL     1      -0.225  -4.524  -2.169  0.00  0.00    +0.175 C 
ATOM     30  O   UNL     1      -0.850  -4.086  -3.377  0.00  0.00    -0.377 OA
ATOM     31  C   UNL     1      -2.222  -4.470  -3.498  0.00  0.00    +0.175 C 
ATOM     32  C   UNL     1      -3.029  -3.825  -2.371  0.00  0.00    +0.121 C 
ENDBRANCH  25  27
BRANCH  25  33
ATOM     33  N   UNL     1      -2.563  -4.245   1.579  0.00  0.00    -0.231 NA
ATOM     34  C   UNL     1      -1.602  -5.088   2.308  0.00  0.00    +0.121 C 
ATOM     35  C   UNL     1      -0.366  -4.242   2.634  0.00  0.00    +0.175 C 
ATOM     36  O   UNL     1      -0.777  -3.039   3.286  0.00  0.00    -0.377 OA
ATOM     37  C   UNL     1      -1.609  -2.194   2.487  0.00  0.00    +0.175 C 
ATOM     38  C   UNL     1      -2.905  -2.933   2.151  0.00  0.00    +0.121 C 
ENDBRANCH  25  33
ENDBRANCH   2  25
TORSDOF 8
