REMARK  Name = ZINC39630792
REMARK  11 active torsions:
REMARK  status: ('A' for Active; 'I' for Inactive)
REMARK    1  A    between atoms: C_1  and  C_2
REMARK    2  A    between atoms: C_4  and  C_9
REMARK    3  A    between atoms: C_13  and  C_22
REMARK    4  A    between atoms: N_24  and  C_25
REMARK    5  A    between atoms: C_25  and  C_26
REMARK    6  A    between atoms: C_26  and  C_27
REMARK    7  A    between atoms: C_26  and  C_28
REMARK    8  A    between atoms: C_26  and  C_29
REMARK    9  A    between atoms: C_29  and  N_30
REMARK   10  A    between atoms: N_30  and  C_31
REMARK   11  A    between atoms: N_30  and  C_32
REMARK                            x       y       z     vdW  Elec       q    Type
REMARK                         _______ _______ _______ _____ _____    ______ ____
ROOT
ATOM      1  C   UNL     1       0.054  -3.831  -3.986  0.00  0.00    +0.247 C 
ATOM      2  O   UNL     1      -0.189  -3.215  -5.005  0.00  0.00    -0.270 OA
ATOM      3  N   UNL     1      -0.060  -5.173  -3.966  0.00  0.00    -0.296 N 
ATOM      4  C   UNL     1       0.073  -6.079  -2.801  0.00  0.00    +0.121 C 
ATOM      5  C   UNL     1      -1.025  -7.146  -3.009  0.00  0.00    +0.100 C 
ATOM      6  C   UNL     1      -1.295  -7.142  -4.523  0.00  0.00    -0.004 C 
ATOM      7  C   UNL     1      -0.354  -6.077  -5.104  0.00  0.00    +0.115 C 
ATOM      8  C   UNL     1      -2.747  -6.761  -4.800  0.00  0.00    -0.010 C 
ATOM      9  C   UNL     1      -3.005  -6.819  -6.309  0.00  0.00    -0.082 C 
ATOM     10  N   UNL     1      -2.731  -8.174  -6.802  0.00  0.00    +0.379 N 
ATOM     11  C   UNL     1      -1.311  -8.497  -6.616  0.00  0.00    -0.082 C 
ATOM     12  C   UNL     1      -0.980  -8.510  -5.121  0.00  0.00    -0.010 C 
ATOM     13  H   UNL     1      -3.295  -8.837  -6.292  0.00  0.00    -0.086 HD
ATOM     14  H   UNL     1      -2.960  -8.226  -7.784  0.00  0.00    -0.086 HD
ENDROOT
BRANCH   1  18
ATOM     15  C   UNL     1       0.158   0.353  -1.270  0.00  0.00    +0.045 C 
ATOM     16  C   UNL     1       0.528  -1.095  -1.457  0.00  0.00    -0.036 A 
ATOM     17  C   UNL     1       0.132  -1.765  -2.596  0.00  0.00    +0.017 A 
ATOM     18  C   UNL     1       0.476  -3.107  -2.768  0.00  0.00    +0.037 A 
ATOM     19  C   UNL     1       1.219  -3.763  -1.785  0.00  0.00    +0.014 A 
ATOM     20  C   UNL     1       1.609  -3.083  -0.651  0.00  0.00    +0.016 A 
ATOM     21  C   UNL     1       1.270  -1.750  -0.488  0.00  0.00    +0.021 A 
ATOM     22 BR   UNL     1       1.816  -0.822   1.066  0.00  0.00    -0.050 Br
ENDBRANCH   1  18
BRANCH   5  23
ATOM     23  C   UNL     1      -2.272  -6.771  -2.251  0.00  0.00    +0.218 C 
ATOM     24  O   UNL     1      -2.586  -5.605  -2.138  0.00  0.00    -0.275 OA
ATOM     25  N   UNL     1      -3.039  -7.731  -1.698  0.00  0.00    -0.315 N 
ATOM     26  H   UNL     1      -2.789  -8.664  -1.788  0.00  0.00    +0.149 HD
BRANCH  25  27
ATOM     27  C   UNL     1      -4.251  -7.367  -0.960  0.00  0.00    +0.108 C 
BRANCH  27  28
ATOM     28  C   UNL     1      -4.932  -8.634  -0.439  0.00  0.00    -0.034 C 
ATOM     29  C   UNL     1      -5.304  -9.535  -1.618  0.00  0.00    +0.010 C 
ATOM     30  C   UNL     1      -3.975  -9.381   0.491  0.00  0.00    +0.010 C 
BRANCH  28  31
ATOM     31  C   UNL     1      -6.198  -8.253   0.331  0.00  0.00    -0.072 C 
BRANCH  31  32
ATOM     32  N   UNL     1      -6.835  -9.467   0.857  0.00  0.00    +0.376 N 
ATOM     33  C   UNL     1      -6.237  -9.812   2.154  0.00  0.00    -0.097 C 
ATOM     34  C   UNL     1      -8.275  -9.229   1.030  0.00  0.00    -0.097 C 
ATOM     35  H   UNL     1      -6.696 -10.228   0.209  0.00  0.00    -0.083 HD
ENDBRANCH  31  32
ENDBRANCH  28  31
ENDBRANCH  27  28
ENDBRANCH  25  27
ENDBRANCH   5  23
TORSDOF 6
