REMARK  Name = ZINC33785182
REMARK  5 active torsions:
REMARK  status: ('A' for Active; 'I' for Inactive)
REMARK    1  A    between atoms: C_4  and  S_7
REMARK    2  A    between atoms: S_7  and  N_10
REMARK    3  A    between atoms: N_10  and  C_11
REMARK    4  A    between atoms: C_23  and  N_25
REMARK    5  A    between atoms: N_25  and  C_26
REMARK                            x       y       z     vdW  Elec       q    Type
REMARK                         _______ _______ _______ _____ _____    ______ ____
ROOT
ATOM      1  C   UNL     1       3.143   3.730   0.073  0.00  0.00    +0.131 C 
ATOM      2  C   UNL     1       3.663   2.335  -0.178  0.00  0.00    -0.019 A 
ATOM      3  C   UNL     1       4.891   1.803  -0.429  0.00  0.00    +0.006 A 
ATOM      4  C   UNL     1       5.038   0.428  -0.621  0.00  0.00    +0.001 A 
ATOM      5  C   UNL     1       3.980  -0.434  -0.567  0.00  0.00    +0.008 A 
ATOM      6  C   UNL     1       2.700   0.081  -0.309  0.00  0.00    -0.017 A 
ATOM      7  C   UNL     1       2.576   1.469  -0.119  0.00  0.00    -0.008 A 
ATOM      8  C   UNL     1       1.357   2.087   0.141  0.00  0.00    -0.017 A 
ATOM      9  C   UNL     1       0.246   1.302   0.212  0.00  0.00    +0.006 A 
ATOM     10  C   UNL     1       0.345  -0.079   0.027  0.00  0.00    +0.001 A 
ATOM     11  C   UNL     1       1.534  -0.698  -0.229  0.00  0.00    +0.008 A 
ATOM     12  C   UNL     1       1.621   3.566   0.283  0.00  0.00    +0.124 C 
ENDROOT
BRANCH   1  13
ATOM     13  N   UNL     1       3.405   4.586  -1.086  0.00  0.00    -0.180 NA
ATOM     14  H   UNL     1       3.515   4.140  -2.086  0.00  0.00    +0.149 HD
BRANCH  13  15
ATOM     15  S   UNL     1       3.784   6.183  -0.867  0.00  0.00    +0.059 S 
ATOM     16  O   UNL     1       4.052   6.718  -2.156  0.00  0.00    -0.153 OA
ATOM     17  O   UNL     1       2.786   6.723  -0.011  0.00  0.00    -0.153 OA
BRANCH  15  21
ATOM     18  C   UNL     1       7.681   6.333   1.431  0.00  0.00    +0.000 A 
ATOM     19  C   UNL     1       7.694   6.196   0.056  0.00  0.00    +0.002 A 
ATOM     20  C   UNL     1       6.504   6.150  -0.646  0.00  0.00    +0.028 A 
ATOM     21  C   UNL     1       5.301   6.241   0.028  0.00  0.00    +0.105 A 
ATOM     22  C   UNL     1       5.287   6.384   1.403  0.00  0.00    +0.028 A 
ATOM     23  C   UNL     1       6.477   6.426   2.105  0.00  0.00    +0.002 A 
ENDBRANCH  15  21
ENDBRANCH  13  15
ENDBRANCH   1  13
BRANCH  12  24
ATOM     24  N   UNL     1       0.882   4.314  -0.737  0.00  0.00    -0.334 N 
ATOM     25  H   UNL     1       1.355   4.538  -1.705  0.00  0.00    +0.147 HD
BRANCH  24  26
ATOM     26  C   UNL     1      -0.422   4.744  -0.480  0.00  0.00    +0.042 A 
ATOM     27  C   UNL     1      -1.020   4.462   0.742  0.00  0.00    +0.024 A 
ATOM     28  C   UNL     1      -2.310   4.887   0.992  0.00  0.00    +0.002 A 
ATOM     29  C   UNL     1      -3.006   5.594   0.029  0.00  0.00    +0.001 A 
ATOM     30  C   UNL     1      -2.415   5.877  -1.189  0.00  0.00    +0.017 A 
ATOM     31  C   UNL     1      -1.122   5.459  -1.444  0.00  0.00    +0.039 A 
ATOM     32 BR   UNL     1      -0.311   5.853  -3.106  0.00  0.00    -0.048 Br
ENDBRANCH  24  26
ENDBRANCH  12  24
TORSDOF 5
