REMARK  Name = ZINC13109394
REMARK  6 active torsions:
REMARK  status: ('A' for Active; 'I' for Inactive)
REMARK    1  A    between atoms: C_4  and  C_7
REMARK    2  A    between atoms: C_7  and  C_9
REMARK    3  A    between atoms: C_11  and  C_29
REMARK    4  A    between atoms: N_16  and  C_23
REMARK    5  A    between atoms: C_17  and  C_18
REMARK    6  A    between atoms: C_17  and  O_22
REMARK                            x       y       z     vdW  Elec       q    Type
REMARK                         _______ _______ _______ _____ _____    ______ ____
ROOT
ATOM      1  C   UNL     1       0.019  -0.037   0.219  0.00  0.00    +0.144 C 
ATOM      2  C   UNL     1       0.522  -0.425  -1.175  0.00  0.00    +0.117 C 
ATOM      3  N   UNL     1       1.914   0.004  -1.320  0.00  0.00    -0.318 N 
ATOM      4  C   UNL     1       2.388   1.070  -0.658  0.00  0.00    +0.140 C 
ATOM      5  S   UNL     1       4.022   1.522  -0.889  0.00  0.00    -0.018 S 
ATOM      6  N   UNL     1       1.631   1.796   0.178  0.00  0.00    -0.246 N 
ATOM      7  C   UNL     1       0.223   1.469   0.409  0.00  0.00    +0.248 C 
ATOM      8  H   UNL     1       2.506  -0.492  -1.907  0.00  0.00    +0.148 HD
ENDROOT
BRANCH   2   9
ATOM      9  C   UNL     1      -0.325   0.250  -2.223  0.00  0.00    -0.026 A 
ATOM     10  C   UNL     1      -1.689   0.024  -2.259  0.00  0.00    +0.007 A 
ATOM     11  C   UNL     1      -2.467   0.648  -3.216  0.00  0.00    +0.020 A 
ATOM     12  C   UNL     1      -1.880   1.489  -4.145  0.00  0.00    +0.041 A 
ATOM     13  C   UNL     1      -0.515   1.710  -4.111  0.00  0.00    +0.020 A 
ATOM     14  C   UNL     1       0.262   1.090  -3.150  0.00  0.00    +0.007 A 
ATOM     15 CL   UNL     1      -2.856   2.266  -5.351  0.00  0.00    -0.084 Cl
ENDBRANCH   2   9
BRANCH   6  16
ATOM     16  C   UNL     1       2.199   2.888   0.844  0.00  0.00    +0.038 A 
ATOM     17  C   UNL     1       1.917   4.182   0.424  0.00  0.00    +0.023 A 
ATOM     18  C   UNL     1       2.476   5.258   1.086  0.00  0.00    +0.002 A 
ATOM     19  C   UNL     1       3.323   5.048   2.158  0.00  0.00    +0.000 A 
ATOM     20  C   UNL     1       3.610   3.761   2.575  0.00  0.00    +0.002 A 
ATOM     21  C   UNL     1       3.050   2.680   1.921  0.00  0.00    +0.023 A 
ENDBRANCH   6  16
BRANCH   7  22
ATOM     22  C   UNL     1      -0.166   1.862   1.836  0.00  0.00    +0.437 C 
ATOM     23  F   UNL     1       0.722   1.269   2.741  0.00  0.00    -0.166 F 
ATOM     24  F   UNL     1      -0.108   3.253   1.970  0.00  0.00    -0.166 F 
ATOM     25  F   UNL     1      -1.467   1.422   2.103  0.00  0.00    -0.166 F 
ENDBRANCH   7  22
BRANCH   1  26
ATOM     26  C   UNL     1       0.795  -0.790   1.269  0.00  0.00    +0.173 C 
ATOM     27  O   UNL     1       1.768  -0.282   1.784  0.00  0.00    -0.292 OA
BRANCH  26  31
ATOM     28  C   UNL     1      -0.426  -4.684   2.424  0.00  0.00    +0.000 A 
ATOM     29  C   UNL     1       0.685  -4.108   3.014  0.00  0.00    +0.001 A 
ATOM     30  C   UNL     1       1.088  -2.843   2.644  0.00  0.00    +0.011 A 
ATOM     31  C   UNL     1       0.371  -2.141   1.670  0.00  0.00    +0.018 A 
ATOM     32  C   UNL     1      -0.755  -2.728   1.083  0.00  0.00    +0.011 A 
ATOM     33  C   UNL     1      -1.142  -3.997   1.460  0.00  0.00    +0.001 A 
ENDBRANCH  26  31
ENDBRANCH   1  26
BRANCH   7  34
ATOM     34  O   UNL     1      -0.592   2.183  -0.522  0.00  0.00    -0.364 OA
ATOM     35  H   UNL     1      -0.513   3.145  -0.458  0.00  0.00    +0.212 HD
ENDBRANCH   7  34
TORSDOF 6
