REMARK  Name = ZINC25167359
REMARK  6 active torsions:
REMARK  status: ('A' for Active; 'I' for Inactive)
REMARK    1  A    between atoms: C_4  and  C_7
REMARK    2  A    between atoms: C_12  and  O_13
REMARK    3  A    between atoms: O_13  and  C_14
REMARK    4  A    between atoms: C_14  and  C_15
REMARK    5  A    between atoms: N_17  and  N_18
REMARK    6  A    between atoms: C_19  and  C_21
REMARK                            x       y       z     vdW  Elec       q    Type
REMARK                         _______ _______ _______ _____ _____    ______ ____
ROOT
ATOM      1  C   UNL     1       4.238  -1.996  -3.750  0.00  0.00    +0.267 C 
ATOM      2  O   UNL     1       4.108  -0.796  -3.633  0.00  0.00    -0.271 OA
ATOM      3  N   UNL     1       5.046  -2.496  -4.706  0.00  0.00    -0.231 N 
ATOM      4  H   UNL     1       5.163  -3.585  -4.812  0.00  0.00    +0.173 HD
ENDROOT
BRANCH   3   5
ATOM      5  N   UNL     1       5.735  -1.630  -5.564  0.00  0.00    -0.230 N 
ATOM      6  C   UNL     1       6.543  -2.130  -6.520  0.00  0.00    +0.267 C 
ATOM      7  O   UNL     1       6.746  -3.328  -6.579  0.00  0.00    -0.268 OA
ATOM      8  H   UNL     1       5.617  -0.541  -5.458  0.00  0.00    +0.173 HD
BRANCH   6   9
ATOM      9  C   UNL     1       7.178  -1.229  -7.489  0.00  0.00    +0.121 A 
ATOM     10  C   UNL     1       7.922  -1.740  -8.562  0.00  0.00    +0.131 A 
ATOM     11  N   UNL     1       8.478  -0.915  -9.424  0.00  0.00    -0.237 NA
ATOM     12  C   UNL     1       8.366   0.410  -9.301  0.00  0.00    +0.140 A 
ATOM     13  C   UNL     1       8.987   1.243 -10.247  0.00  0.00    +0.047 A 
ATOM     14  C   UNL     1       8.876   2.598 -10.126  0.00  0.00    +0.005 A 
ATOM     15  C   UNL     1       8.144   3.138  -9.061  0.00  0.00    +0.018 A 
ATOM     16  C   UNL     1       7.553   2.320  -8.160  0.00  0.00    +0.096 A 
ATOM     17  N   UNL     1       7.659   0.967  -8.273  0.00  0.00    -0.268 N 
ATOM     18  C   UNL     1       7.059   0.176  -7.358  0.00  0.00    +0.271 A 
ATOM     19  O   UNL     1       6.425   0.661  -6.437  0.00  0.00    -0.266 OA
ENDBRANCH   6   9
ENDBRANCH   3   5
BRANCH   1  20
ATOM     20  C   UNL     1       3.496  -2.928  -2.827  0.00  0.00    +0.326 C 
BRANCH  20  21
ATOM     21  O   UNL     1       2.712  -2.164  -1.909  0.00  0.00    -0.482 OA
BRANCH  21  27
ATOM     22  C   UNL     1       1.185  -2.175  -0.072  0.00  0.00    +0.024 A 
ATOM     23  C   UNL     1       0.430  -2.895   0.852  0.00  0.00    +0.012 A 
ATOM     24  C   UNL     1       0.470  -4.274   0.849  0.00  0.00    +0.001 A 
ATOM     25  C   UNL     1       1.258  -4.947  -0.070  0.00  0.00    +0.004 A 
ATOM     26  C   UNL     1       2.010  -4.243  -0.990  0.00  0.00    +0.046 A 
ATOM     27  C   UNL     1       1.976  -2.857  -1.001  0.00  0.00    +0.129 A 
BRANCH  22  31
ATOM     28  C   UNL     1       1.070   2.075  -0.074  0.00  0.00    +0.000 A 
ATOM     29  C   UNL     1      -0.110   1.354  -0.074  0.00  0.00    +0.001 A 
ATOM     30  C   UNL     1      -0.079  -0.026  -0.073  0.00  0.00    +0.008 A 
ATOM     31  C   UNL     1       1.145  -0.693  -0.073  0.00  0.00    -0.014 A 
ATOM     32  C   UNL     1       2.331   0.039  -0.073  0.00  0.00    +0.008 A 
ATOM     33  C   UNL     1       2.288   1.418  -0.074  0.00  0.00    +0.001 A 
ENDBRANCH  22  31
ENDBRANCH  21  27
ENDBRANCH  20  21
ENDBRANCH   1  20
TORSDOF 6
