REMARK  Name = ZINC36591424
REMARK  14 active torsions:
REMARK  status: ('A' for Active; 'I' for Inactive)
REMARK    1  A    between atoms: C_1  and  C_2
REMARK    2  A    between atoms: C_5  and  S_8
REMARK    3  A    between atoms: S_8  and  C_11
REMARK    4  A    between atoms: C_11  and  N_12
REMARK    5  A    between atoms: C_13  and  C_15
REMARK    6  A    between atoms: C_15  and  C_17
REMARK    7  A    between atoms: C_15  and  N_26
REMARK    8  A    between atoms: C_17  and  C_19
REMARK    9  A    between atoms: C_17  and  C_20
REMARK   10  A    between atoms: N_26  and  C_36
REMARK   11  A    between atoms: C_27  and  C_29
REMARK   12  A    between atoms: C_36  and  C_37
REMARK   13  A    between atoms: C_36  and  C_38
REMARK   14  A    between atoms: C_36  and  C_39
REMARK                            x       y       z     vdW  Elec       q    Type
REMARK                         _______ _______ _______ _____ _____    ______ ____
ROOT
ATOM      1  C   UNL     1       2.537  -4.823   4.162  0.00  0.00    +0.170 C 
ENDROOT
BRANCH   1   3
ATOM      2  N   UNL     1       1.097  -4.305   2.218  0.00  0.00    -0.295 N 
ATOM      3  C   UNL     1       1.873  -5.199   2.862  0.00  0.00    +0.235 C 
ATOM      4  O   UNL     1       2.036  -6.307   2.396  0.00  0.00    -0.274 OA
ATOM      5  H   UNL     1       0.831  -3.485   2.663  0.00  0.00    +0.150 HD
BRANCH   2   6
ATOM      6  C   UNL     1       0.655  -4.572   0.847  0.00  0.00    +0.278 C 
BRANCH   6   7
ATOM      7  S   UNL     1      -1.147  -4.778   0.822  0.00  0.00    +0.013 S 
ATOM      8  O   UNL     1      -1.538  -5.781   1.749  0.00  0.00    -0.168 OA
ATOM      9  O   UNL     1      -1.617  -4.809  -0.519  0.00  0.00    -0.168 OA
BRANCH   7  14
ATOM     10  C   UNL     1      -3.332   0.363   3.102  0.00  0.00    +0.044 C 
ATOM     11  C   UNL     1      -2.786  -0.921   2.533  0.00  0.00    -0.050 A 
ATOM     12  C   UNL     1      -2.573  -1.038   1.172  0.00  0.00    +0.005 A 
ATOM     13  C   UNL     1      -2.072  -2.216   0.649  0.00  0.00    +0.027 A 
ATOM     14  C   UNL     1      -1.784  -3.276   1.488  0.00  0.00    +0.090 A 
ATOM     15  C   UNL     1      -1.996  -3.159   2.849  0.00  0.00    +0.027 A 
ATOM     16  C   UNL     1      -2.493  -1.980   3.372  0.00  0.00    +0.005 A 
ENDBRANCH   7  14
ENDBRANCH   6   7
ENDBRANCH   2   6
ENDBRANCH   1   3
BRANCH   1  17
ATOM     17  N   UNL     1       3.354  -5.943   4.635  0.00  0.00    -0.283 N 
ATOM     18  C   UNL     1       4.639  -5.738   4.986  0.00  0.00    +0.237 C 
ATOM     19  O   UNL     1       5.097  -4.615   4.985  0.00  0.00    -0.274 OA
BRANCH  18  20
ATOM     20  C   UNL     1       5.507  -6.905   5.380  0.00  0.00    +0.159 C 
ATOM     21  C   UNL     1       5.126  -7.403   6.792  0.00  0.00    +0.041 C 
ATOM     22  C   UNL     1       6.119  -6.619   7.681  0.00  0.00    +0.098 C 
ATOM     23  C   UNL     1       7.279  -6.311   6.760  0.00  0.00    +0.214 C 
ATOM     24  O   UNL     1       8.381  -5.959   7.124  0.00  0.00    -0.276 OA
ATOM     25  N   UNL     1       6.910  -6.485   5.477  0.00  0.00    -0.304 N 
ATOM     26  H   UNL     1       7.495  -6.351   4.715  0.00  0.00    +0.149 HD
ENDBRANCH  18  20
BRANCH  17  27
ATOM     27  C   UNL     1       2.774  -7.285   4.726  0.00  0.00    +0.030 C 
ATOM     28  C   UNL     1       1.705  -7.454   3.645  0.00  0.00    +0.031 C 
ATOM     29  C   UNL     1       3.873  -8.330   4.524  0.00  0.00    +0.031 C 
ATOM     30  C   UNL     1       2.139  -7.473   6.106  0.00  0.00    +0.031 C 
ENDBRANCH  17  27
ENDBRANCH   1  17
BRANCH   1  31
ATOM     31  C   UNL     1       1.467  -4.495   5.205  0.00  0.00    +0.045 C 
ATOM     32  C   UNL     1       0.879  -3.113   4.916  0.00  0.00    +0.015 C 
BRANCH  31  33
ATOM     33  C   UNL     1       0.372  -5.529   5.144  0.00  0.00    -0.042 A 
ATOM     34  C   UNL     1      -0.137  -5.925   3.922  0.00  0.00    +0.004 A 
ATOM     35  C   UNL     1      -1.141  -6.874   3.865  0.00  0.00    +0.000 A 
ATOM     36  C   UNL     1      -1.635  -7.427   5.032  0.00  0.00    +0.000 A 
ATOM     37  C   UNL     1      -1.125  -7.032   6.255  0.00  0.00    +0.000 A 
ATOM     38  C   UNL     1      -0.118  -6.086   6.310  0.00  0.00    +0.004 A 
ENDBRANCH  31  33
ENDBRANCH   1  31
TORSDOF 9
