REMARK  Name = ZINC08959989
REMARK  10 active torsions:
REMARK  status: ('A' for Active; 'I' for Inactive)
REMARK    1  A    between atoms: C_1  and  C_2
REMARK    2  A    between atoms: C_2  and  C_3
REMARK    3  A    between atoms: C_2  and  C_4
REMARK    4  A    between atoms: C_4  and  C_5
REMARK    5  A    between atoms: C_5  and  N_6
REMARK    6  A    between atoms: C_9  and  N_20
REMARK    7  A    between atoms: C_15  and  C_18
REMARK    8  A    between atoms: C_15  and  C_19
REMARK    9  A    between atoms: C_21  and  C_23
REMARK   10  A    between atoms: C_26  and  N_30
REMARK                            x       y       z     vdW  Elec       q    Type
REMARK                         _______ _______ _______ _____ _____    ______ ____
ROOT
ATOM      1  N   UNL     1       5.292  -4.056  -0.583  0.00  0.00    -0.268 N 
ATOM      2  C   UNL     1       5.277  -2.672  -0.363  0.00  0.00    +0.080 A 
ATOM      3  C   UNL     1       4.078  -1.982  -0.302  0.00  0.00    +0.050 A 
ATOM      4  C   UNL     1       4.082  -0.609  -0.091  0.00  0.00    +0.036 A 
ATOM      5  C   UNL     1       5.286   0.068   0.052  0.00  0.00    +0.027 A 
ATOM      6  C   UNL     1       6.482  -0.622  -0.002  0.00  0.00    +0.049 A 
ATOM      7  C   UNL     1       6.484  -1.991  -0.210  0.00  0.00    +0.142 A 
ATOM      8  O   UNL     1       7.656  -2.678  -0.263  0.00  0.00    -0.489 OA
ATOM      9  C   UNL     1       8.003  -3.463   0.875  0.00  0.00    +0.244 C 
ATOM     10  C   UNL     1       6.788  -4.239   1.378  0.00  0.00    +0.076 C 
ATOM     11  C   UNL     1       6.043  -4.846   0.217  0.00  0.00    +0.229 C 
ATOM     12  O   UNL     1       6.119  -6.037   0.000  0.00  0.00    -0.275 OA
ATOM     13  C   UNL     1       5.858  -3.290   2.137  0.00  0.00    +0.024 C 
ATOM     14  C   UNL     1       7.254  -5.352   2.319  0.00  0.00    +0.024 C 
ENDROOT
BRANCH   4  15
ATOM     15  N   UNL     1       2.872   0.093  -0.027  0.00  0.00    -0.281 N 
ATOM     16  C   UNL     1       2.759   1.169   0.776  0.00  0.00    +0.250 C 
ATOM     17  O   UNL     1       3.675   1.476   1.514  0.00  0.00    -0.270 OA
ATOM     18  H   UNL     1       2.115  -0.195  -0.561  0.00  0.00    +0.155 HD
BRANCH  16  19
ATOM     19  C   UNL     1       1.522   1.977   0.758  0.00  0.00    +0.055 A 
ATOM     20  C   UNL     1       0.468   1.628  -0.089  0.00  0.00    +0.017 A 
ATOM     21  C   UNL     1      -0.681   2.390  -0.104  0.00  0.00    +0.033 A 
ATOM     22  C   UNL     1      -0.797   3.492   0.725  0.00  0.00    +0.128 A 
ATOM     23  C   UNL     1       0.242   3.845   1.567  0.00  0.00    +0.053 A 
ATOM     24  C   UNL     1       1.401   3.094   1.589  0.00  0.00    +0.055 A 
ATOM     25 CL   UNL     1       2.705   3.537   2.647  0.00  0.00    -0.083 Cl
BRANCH  22  26
ATOM     26  N   UNL     1      -2.037   4.301   0.707  0.00  0.00    +0.056 N 
ATOM     27  O   UNL     1      -2.140   5.274   1.432  0.00  0.00    -0.126 OA
ATOM     28  O   UNL     1      -2.953   3.993  -0.034  0.00  0.00    -0.126 OA
ENDBRANCH  22  26
ENDBRANCH  16  19
ENDBRANCH   4  15
BRANCH   1  29
ATOM     29  C   UNL     1       4.501  -4.641  -1.668  0.00  0.00    +0.114 C 
BRANCH  29  30
ATOM     30  C   UNL     1       5.344  -4.690  -2.944  0.00  0.00    +0.022 C 
BRANCH  30  32
ATOM     31  C   UNL     1       3.341  -4.381  -4.405  0.00  0.00    +0.007 C 
ATOM     32  C   UNL     1       4.518  -5.301  -4.078  0.00  0.00    -0.016 C 
ATOM     33  C   UNL     1       5.398  -5.465  -5.319  0.00  0.00    +0.007 C 
ENDBRANCH  30  32
ENDBRANCH  29  30
ENDBRANCH   1  29
TORSDOF 6
