REMARK  Name = ZINC33782101
REMARK  11 active torsions:
REMARK  status: ('A' for Active; 'I' for Inactive)
REMARK    1  A    between atoms: C_1  and  C_2
REMARK    2  A    between atoms: C_7  and  O_8
REMARK    3  A    between atoms: O_8  and  C_9
REMARK    4  A    between atoms: C_9  and  C_11
REMARK    5  A    between atoms: C_9  and  C_12
REMARK    6  A    between atoms: N_14  and  C_15
REMARK    7  A    between atoms: C_18  and  C_21
REMARK    8  A    between atoms: C_21  and  C_32
REMARK    9  A    between atoms: N_22  and  N_23
REMARK   10  A    between atoms: C_24  and  C_26
REMARK   11  A    between atoms: C_26  and  C_31
REMARK                            x       y       z     vdW  Elec       q    Type
REMARK                         _______ _______ _______ _____ _____    ______ ____
ROOT
ATOM      1  C   UNL     1      -0.098  -3.039  -2.941  0.00  0.00    +0.034 A 
ATOM      2  C   UNL     1      -0.018  -3.366  -1.592  0.00  0.00    +0.024 A 
ATOM      3  C   UNL     1      -0.033  -2.372  -0.638  0.00  0.00    +0.011 A 
ATOM      4  C   UNL     1      -0.128  -1.033  -1.029  0.00  0.00    -0.002 A 
ATOM      5  C   UNL     1      -0.214  -0.709  -2.386  0.00  0.00    +0.011 A 
ATOM      6  C   UNL     1      -0.193  -1.709  -3.333  0.00  0.00    +0.024 A 
ENDROOT
BRANCH   1   9
ATOM      7  C   UNL     1       0.582  -3.869  -5.063  0.00  0.00    +0.258 C 
ATOM      8  O   UNL     1       1.240  -2.864  -5.233  0.00  0.00    -0.271 OA
ATOM      9  N   UNL     1      -0.083  -4.051  -3.905  0.00  0.00    -0.282 N 
ATOM     10  H   UNL     1      -0.615  -4.996  -3.719  0.00  0.00    +0.155 HD
BRANCH   7  11
ATOM     11  C   UNL     1       0.507  -4.913  -6.147  0.00  0.00    +0.256 C 
ATOM     12  C   UNL     1      -0.928  -5.006  -6.668  0.00  0.00    +0.062 C 
BRANCH  11  13
ATOM     13  O   UNL     1       1.381  -4.550  -7.219  0.00  0.00    -0.480 OA
BRANCH  13  20
ATOM     14  C   UNL     1       3.221  -3.875  -9.252  0.00  0.00    +0.047 C 
ATOM     15  C   UNL     1       2.736  -5.284  -9.031  0.00  0.00    -0.007 A 
ATOM     16  C   UNL     1       3.192  -6.307  -9.839  0.00  0.00    +0.027 A 
ATOM     17  C   UNL     1       2.747  -7.601  -9.636  0.00  0.00    +0.041 A 
ATOM     18  C   UNL     1       1.844  -7.874  -8.624  0.00  0.00    +0.023 A 
ATOM     19  C   UNL     1       1.389  -6.854  -7.810  0.00  0.00    +0.047 A 
ATOM     20  C   UNL     1       1.830  -5.555  -8.015  0.00  0.00    +0.125 A 
ATOM     21 CL   UNL     1       3.322  -8.886 -10.653  0.00  0.00    -0.084 Cl
ENDBRANCH  13  20
ENDBRANCH  11  13
ENDBRANCH   7  11
ENDBRANCH   1   9
BRANCH   4  22
ATOM     22  C   UNL     1      -0.144   0.034  -0.012  0.00  0.00    +0.063 C 
ATOM     23  N   UNL     1       0.589  -0.074   1.053  0.00  0.00    -0.185 NA
ATOM     24  C   UNL     1      -1.012   1.250  -0.209  0.00  0.00    +0.068 C 
BRANCH  23  25
ATOM     25  N   UNL     1       1.507  -1.126   1.168  0.00  0.00    -0.206 N 
ATOM     26  C   UNL     1       2.179  -1.311   2.322  0.00  0.00    +0.241 C 
ATOM     27  O   UNL     1       1.990  -0.566   3.260  0.00  0.00    -0.273 OA
ATOM     28  H   UNL     1       1.679  -1.801   0.317  0.00  0.00    +0.177 HD
BRANCH  26  29
ATOM     29  C   UNL     1       3.167  -2.443   2.445  0.00  0.00    +0.081 C 
ATOM     30  C   UNL     1       3.898  -2.600   3.780  0.00  0.00    +0.058 C 
ATOM     31  C   UNL     1       4.649  -2.078   2.553  0.00  0.00    +0.133 C 
ATOM     32 CL   UNL     1       5.838  -3.186   1.772  0.00  0.00    -0.100 Cl
ATOM     33 CL   UNL     1       5.080  -0.328   2.523  0.00  0.00    -0.100 Cl
ATOM     34  C   UNL     1       2.806  -3.719   1.683  0.00  0.00    +0.024 C 
ENDBRANCH  26  29
ENDBRANCH  23  25
ENDBRANCH   4  22
TORSDOF 7
