REMARK  Name = ZINC43347903
REMARK  7 active torsions:
REMARK  status: ('A' for Active; 'I' for Inactive)
REMARK    1  A    between atoms: C_1  and  C_2
REMARK    2  A    between atoms: C_2  and  N_3
REMARK    3  A    between atoms: N_3  and  C_4
REMARK    4  A    between atoms: C_4  and  C_5
REMARK    5  A    between atoms: N_13  and  C_14
REMARK    6  A    between atoms: C_18  and  N_21
REMARK    7  A    between atoms: C_19  and  C_20
REMARK                            x       y       z     vdW  Elec       q    Type
REMARK                         _______ _______ _______ _____ _____    ______ ____
ROOT
ATOM      1  N   UNL     1       0.757  -0.504   1.355  0.00  0.00    -0.281 N 
ATOM      2  C   UNL     1       2.084  -0.717   1.258  0.00  0.00    +0.307 C 
ATOM      3  O   UNL     1       2.705  -1.127   2.220  0.00  0.00    -0.252 OA
ATOM      4  N   UNL     1       2.722  -0.475   0.096  0.00  0.00    -0.269 N 
ATOM      5  H   UNL     1       2.216  -0.229  -0.693  0.00  0.00    +0.156 HD
ENDROOT
BRANCH   4   6
ATOM      6  C   UNL     1       4.116  -0.578   0.029  0.00  0.00    +0.040 A 
ATOM      7  C   UNL     1       4.882  -0.417   1.176  0.00  0.00    +0.024 A 
ATOM      8  C   UNL     1       6.258  -0.520   1.107  0.00  0.00    +0.004 A 
ATOM      9  C   UNL     1       6.872  -0.784  -0.104  0.00  0.00    +0.033 A 
ATOM     10  C   UNL     1       6.113  -0.945  -1.248  0.00  0.00    +0.131 A 
ATOM     11  C   UNL     1       4.736  -0.848  -1.184  0.00  0.00    +0.001 A 
ATOM     12  C   UNL     1       3.909  -1.030  -2.430  0.00  0.00    +0.048 C 
BRANCH  10  13
ATOM     13  N   UNL     1       6.775  -1.226  -2.542  0.00  0.00    +0.057 N 
ATOM     14  O   UNL     1       7.766  -1.918  -2.576  0.00  0.00    -0.126 OA
ATOM     15  O   UNL     1       6.324  -0.764  -3.564  0.00  0.00    -0.126 OA
ENDBRANCH  10  13
ENDBRANCH   4   6
BRANCH   1  17
ATOM     16  C   UNL     1      -0.005   1.520   0.213  0.00  0.00    +0.024 C 
ATOM     17  C   UNL     1       0.008  -0.009   0.197  0.00  0.00    +0.106 C 
ENDBRANCH   1  17
BRANCH   1  18
ATOM     18  C   UNL     1       0.063  -0.767   2.618  0.00  0.00    +0.151 C 
BRANCH  18  19
ATOM     19  C   UNL     1      -0.420  -2.194   2.639  0.00  0.00    +0.009 A 
ATOM     20  C   UNL     1       0.214  -3.303   3.092  0.00  0.00    +0.014 A 
ATOM     21  C   UNL     1      -0.428  -4.524   3.010  0.00  0.00    +0.028 A 
ATOM     22  C   UNL     1      -1.675  -4.576   2.478  0.00  0.00    +0.078 A 
ATOM     23  S   UNL     1      -1.978  -2.862   2.079  0.00  0.00    -0.080 S 
ATOM     24 CL   UNL     1      -2.710  -5.951   2.249  0.00  0.00    -0.076 Cl
ENDBRANCH  18  19
ENDBRANCH   1  18
TORSDOF 5
