REMARK  Name = ZINC14996439
REMARK  12 active torsions:
REMARK  status: ('A' for Active; 'I' for Inactive)
REMARK    1  A    between atoms: C_1  and  C_2
REMARK    2  A    between atoms: C_3  and  C_14
REMARK    3  A    between atoms: C_14  and  C_15
REMARK    4  A    between atoms: C_15  and  N_16
REMARK    5  A    between atoms: C_17  and  C_23
REMARK    6  A    between atoms: C_23  and  C_24
REMARK    7  A    between atoms: C_24  and  N_62
REMARK    8  A    between atoms: C_25  and  C_26
REMARK    9  A    between atoms: C_25  and  N_62
REMARK   10  A    between atoms: C_29  and  C_32
REMARK   11  A    between atoms: C_32  and  O_34
REMARK   12  A    between atoms: O_34  and  C_35
REMARK                            x       y       z     vdW  Elec       q    Type
REMARK                         _______ _______ _______ _____ _____    ______ ____
ROOT
ATOM      1  N   UNL     1       2.070   0.593  -0.486  0.00  0.00    -0.298 N 
ATOM      2  C   UNL     1       1.219  -0.437  -1.095  0.00  0.00    +0.075 C 
ATOM      3  C   UNL     1      -0.096  -0.418  -0.286  0.00  0.00    +0.031 C 
ATOM      4  C   UNL     1      -0.109   1.029   0.259  0.00  0.00    +0.098 C 
ATOM      5  C   UNL     1       1.348   1.433   0.276  0.00  0.00    +0.216 C 
ATOM      6  O   UNL     1       1.801   2.378   0.886  0.00  0.00    -0.276 OA
ENDROOT
BRANCH   1   7
ATOM      7  C   UNL     1       3.518   0.691  -0.683  0.00  0.00    +0.113 C 
BRANCH   7   8
ATOM      8  C   UNL     1       4.238  -0.012   0.469  0.00  0.00    +0.056 C 
BRANCH   8  11
ATOM      9  C   UNL     1       5.916   2.206   1.849  0.00  0.00    +0.063 C 
ATOM     10  C   UNL     1       6.458   1.147   0.923  0.00  0.00    +0.017 A 
ATOM     11  C   UNL     1       5.725   0.192   0.331  0.00  0.00    -0.018 A 
ATOM     12  C   UNL     1       6.644  -0.619  -0.471  0.00  0.00    +0.009 A 
ATOM     13  C   UNL     1       6.486  -1.737  -1.294  0.00  0.00    +0.048 A 
ATOM     14  C   UNL     1       7.583  -2.281  -1.925  0.00  0.00    +0.127 A 
ATOM     15  C   UNL     1       8.844  -1.723  -1.747  0.00  0.00    +0.078 A 
ATOM     16  C   UNL     1       9.014  -0.615  -0.944  0.00  0.00    +0.150 A 
ATOM     17  C   UNL     1       7.918  -0.053  -0.293  0.00  0.00    +0.083 A 
ATOM     18  N   UNL     1       7.772   1.018   0.563  0.00  0.00    -0.356 N 
ATOM     19  H   UNL     1       8.492   1.593   0.865  0.00  0.00    +0.166 HD
ATOM     20  F   UNL     1      10.245  -0.083  -0.778  0.00  0.00    -0.203 F 
ATOM     21  F   UNL     1       7.433  -3.362  -2.722  0.00  0.00    -0.205 F 
ENDBRANCH   8  11
ENDBRANCH   7   8
ENDBRANCH   1   7
BRANCH   2  22
ATOM     22  C   UNL     1       0.944  -0.097  -2.562  0.00  0.00    +0.003 C 
BRANCH  22  23
ATOM     23  C   UNL     1       2.232  -0.250  -3.372  0.00  0.00    -0.080 C 
BRANCH  23  24
ATOM     24  N   UNL     1       1.938  -0.011  -4.797  0.00  0.00    +0.382 N 
ATOM     25  H   UNL     1       1.637   0.962  -4.923  0.00  0.00    -0.085 HD
ATOM     26  H   UNL     1       1.188  -0.644  -5.099  0.00  0.00    -0.085 HD
BRANCH  24  27
ATOM     27  C   UNL     1       3.140  -0.258  -5.616  0.00  0.00    -0.047 C 
BRANCH  27  28
ATOM     28  C   UNL     1       2.783  -0.115  -7.073  0.00  0.00    -0.064 A 
ATOM     29  C   UNL     1       2.353  -1.219  -7.788  0.00  0.00    +0.002 A 
ATOM     30  C   UNL     1       2.019  -1.094  -9.121  0.00  0.00    +0.015 A 
ATOM     31  C   UNL     1       2.126   0.147  -9.751  0.00  0.00    +0.059 A 
ATOM     32  C   UNL     1       2.566   1.256  -9.025  0.00  0.00    +0.015 A 
ATOM     33  C   UNL     1       2.891   1.118  -7.691  0.00  0.00    +0.002 A 
BRANCH  31  34
ATOM     34  C   UNL     1       1.776   0.287 -11.179  0.00  0.00    +0.339 C 
ATOM     35  O   UNL     1       1.871   1.368 -11.725  0.00  0.00    -0.245 OA
BRANCH  34  36
ATOM     36  O   UNL     1       1.352  -0.784 -11.877  0.00  0.00    -0.464 OA
ATOM     37  C   UNL     1       1.026  -0.573 -13.276  0.00  0.00    +0.280 C 
ENDBRANCH  34  36
ENDBRANCH  31  34
ENDBRANCH  27  28
ENDBRANCH  24  27
ENDBRANCH  23  24
ENDBRANCH  22  23
ENDBRANCH   2  22
TORSDOF 10
