REMARK  Name = ZINC13090594
REMARK  5 active torsions:
REMARK  status: ('A' for Active; 'I' for Inactive)
REMARK    1  A    between atoms: C_3  and  N_18
REMARK    2  A    between atoms: C_4  and  C_16
REMARK    3  A    between atoms: C_6  and  S_7
REMARK    4  A    between atoms: S_7  and  N_10
REMARK    5  A    between atoms: N_18  and  C_19
REMARK                            x       y       z     vdW  Elec       q    Type
REMARK                         _______ _______ _______ _____ _____    ______ ____
ROOT
ATOM      1  C   UNL     1       0.516   6.851  -2.733  0.00  0.00    +0.030 A 
ATOM      2  C   UNL     1       0.089   5.621  -2.274  0.00  0.00    +0.025 A 
ATOM      3  C   UNL     1      -0.492   4.715  -3.152  0.00  0.00    +0.042 A 
ATOM      4  C   UNL     1      -0.653   5.062  -4.503  0.00  0.00    +0.086 A 
ATOM      5  C   UNL     1      -0.221   6.313  -4.950  0.00  0.00    +0.045 A 
ATOM      6  C   UNL     1       0.359   7.196  -4.066  0.00  0.00    +0.106 A 
ENDROOT
BRANCH   6   7
ATOM      7  S   UNL     1       0.903   8.773  -4.632  0.00  0.00    +0.061 S 
ATOM      8  O   UNL     1       1.908   9.206  -3.725  0.00  0.00    -0.153 OA
ATOM      9  O   UNL     1       1.142   8.644  -6.027  0.00  0.00    -0.153 OA
BRANCH   7  10
ATOM     10  N   UNL     1      -0.369   9.820  -4.464  0.00  0.00    -0.172 NA
ATOM     11  C   UNL     1      -1.335  10.019  -5.556  0.00  0.00    +0.137 C 
ATOM     12  C   UNL     1      -2.750   9.855  -4.979  0.00  0.00    +0.177 C 
ATOM     13  O   UNL     1      -2.894  10.708  -3.841  0.00  0.00    -0.377 OA
ATOM     14  C   UNL     1      -2.012  10.396  -2.760  0.00  0.00    +0.177 C 
ATOM     15  C   UNL     1      -0.562  10.584  -3.222  0.00  0.00    +0.137 C 
ENDBRANCH   7  10
ENDBRANCH   6   7
BRANCH   4  16
ATOM     16  C   UNL     1      -1.274   4.113  -5.443  0.00  0.00    +0.388 C 
ATOM     17  O   UNL     1      -1.745   3.071  -5.032  0.00  0.00    -0.241 OA
ATOM     18  O   UNL     1      -1.320   4.400  -6.759  0.00  0.00    -0.241 OA
ENDBRANCH   4  16
BRANCH   3  19
ATOM     19  N   UNL     1      -0.917   3.475  -2.694  0.00  0.00    -0.340 N 
ATOM     20  H   UNL     1      -1.396   2.876  -3.289  0.00  0.00    +0.146 HD
BRANCH  19  21
ATOM     21  C   UNL     1      -0.642   3.070  -1.314  0.00  0.00    +0.070 C 
ATOM     22  C   UNL     1      -0.621   1.530  -1.220  0.00  0.00    +0.022 C 
ATOM     23  C   UNL     1       0.078   1.057  -0.034  0.00  0.00    +0.002 C 
ATOM     24  C   UNL     1      -0.599   1.524   1.271  0.00  0.00    +0.000 C 
ATOM     25  C   UNL     1      -0.185   2.947   1.540  0.00  0.00    +0.000 C 
ATOM     26  C   UNL     1      -1.199   3.967   0.988  0.00  0.00    +0.002 C 
ATOM     27  C   UNL     1      -1.727   3.589  -0.409  0.00  0.00    +0.022 C 
ENDBRANCH  19  21
ENDBRANCH   3  19
TORSDOF 5
