REMARK  Name = ZINC10053689
REMARK  7 active torsions:
REMARK  status: ('A' for Active; 'I' for Inactive)
REMARK    1  A    between atoms: C_1  and  C_2
REMARK    2  A    between atoms: C_3  and  S_8
REMARK    3  A    between atoms: C_4  and  C_7
REMARK    4  A    between atoms: S_8  and  N_11
REMARK    5  A    between atoms: C_17  and  C_19
REMARK    6  A    between atoms: C_19  and  N_20
REMARK    7  A    between atoms: C_29  and  C_31
REMARK                            x       y       z     vdW  Elec       q    Type
REMARK                         _______ _______ _______ _____ _____    ______ ____
ROOT
ATOM      1  N   UNL     1      -4.840  -1.344  -2.513  0.00  0.00    -0.173 NA
ATOM      2  C   UNL     1      -4.090  -1.680  -1.294  0.00  0.00    +0.128 C 
ATOM      3  C   UNL     1      -4.466  -0.678  -0.195  0.00  0.00    +0.125 C 
ATOM      4  N   UNL     1      -4.356   0.681  -0.742  0.00  0.00    -0.298 N 
ATOM      5  C   UNL     1      -5.110   1.019  -1.958  0.00  0.00    +0.125 C 
ATOM      6  C   UNL     1      -4.730   0.015  -3.060  0.00  0.00    +0.128 C 
ATOM      7  C   UNL     1      -3.582   1.604  -0.137  0.00  0.00    +0.233 C 
ATOM      8  O   UNL     1      -2.969   1.315   0.869  0.00  0.00    -0.274 OA
ENDROOT
BRANCH   1   9
ATOM      9  S   UNL     1      -5.792  -2.477  -3.256  0.00  0.00    +0.066 S 
ATOM     10  O   UNL     1      -5.912  -2.079  -4.615  0.00  0.00    -0.153 OA
ATOM     11  O   UNL     1      -5.282  -3.748  -2.876  0.00  0.00    -0.153 OA
BRANCH   9  14
ATOM     12  C   UNL     1      -7.192  -4.046  -0.575  0.00  0.00    +0.071 C 
ATOM     13  C   UNL     1      -7.917  -3.037  -1.428  0.00  0.00    +0.107 A 
ATOM     14  C   UNL     1      -7.402  -2.349  -2.550  0.00  0.00    +0.170 A 
ATOM     15  C   UNL     1      -8.433  -1.573  -2.961  0.00  0.00    +0.161 A 
ATOM     16  O   UNL     1      -9.448  -1.813  -2.119  0.00  0.00    -0.358 OA
ATOM     17  N   UNL     1      -9.142  -2.624  -1.275  0.00  0.00    -0.081 NA
ATOM     18  C   UNL     1      -8.439  -0.627  -4.134  0.00  0.00    +0.091 C 
ENDBRANCH   9  14
ENDBRANCH   1   9
BRANCH   7  19
ATOM     19  C   UNL     1      -3.479   2.994  -0.709  0.00  0.00    +0.201 C 
BRANCH  19  20
ATOM     20  N   UNL     1      -2.488   3.765   0.052  0.00  0.00    -0.318 N 
ATOM     21  C   UNL     1      -2.864   3.880   1.390  0.00  0.00    +0.034 A 
ATOM     22  C   UNL     1      -4.228   3.978   1.673  0.00  0.00    +0.023 A 
ATOM     23  C   UNL     1      -4.663   4.109   2.974  0.00  0.00    +0.002 A 
ATOM     24  C   UNL     1      -3.746   4.131   4.010  0.00  0.00    +0.000 A 
ATOM     25  C   UNL     1      -2.397   4.026   3.736  0.00  0.00    +0.005 A 
ATOM     26  C   UNL     1      -1.952   3.899   2.430  0.00  0.00    -0.026 A 
ATOM     27  C   UNL     1      -0.467   3.780   2.193  0.00  0.00    +0.039 C 
ATOM     28  C   UNL     1      -0.159   4.035   0.716  0.00  0.00    +0.027 C 
ATOM     29  C   UNL     1      -1.144   3.208  -0.121  0.00  0.00    +0.071 C 
ATOM     30  C   UNL     1      -0.747   3.277  -1.597  0.00  0.00    +0.028 C 
ENDBRANCH  19  20
ENDBRANCH   7  19
TORSDOF 4
