REMARK  Name = ZINC66751889
REMARK  9 active torsions:
REMARK  status: ('A' for Active; 'I' for Inactive)
REMARK    1  A    between atoms: C_1  and  C_2
REMARK    2  A    between atoms: C_2  and  C_4
REMARK    3  A    between atoms: C_2  and  N_15
REMARK    4  A    between atoms: C_8  and  S_10
REMARK    5  A    between atoms: S_10  and  N_13
REMARK    6  A    between atoms: N_13  and  C_14
REMARK    7  A    between atoms: C_16  and  C_18
REMARK    8  A    between atoms: C_19  and  C_20
REMARK    9  A    between atoms: C_23  and  N_26
REMARK                            x       y       z     vdW  Elec       q    Type
REMARK                         _______ _______ _______ _____ _____    ______ ____
ROOT
ATOM      1  N   UNL     1       0.711  -0.489   1.189  0.00  0.00    -0.305 N 
ATOM      2  C   UNL     1       0.051  -0.633   2.355  0.00  0.00    +0.237 C 
ATOM      3  O   UNL     1      -1.133  -0.360   2.423  0.00  0.00    -0.271 OA
ATOM      4  H   UNL     1       1.654  -0.707   1.135  0.00  0.00    +0.150 HD
ENDROOT
BRANCH   1   6
ATOM      5  C   UNL     1      -0.019   1.526   0.010  0.00  0.00    +0.033 C 
ATOM      6  C   UNL     1       0.002  -0.004   0.002  0.00  0.00    +0.100 C 
BRANCH   6   7
ATOM      7  C   UNL     1       0.707  -0.490  -1.238  0.00  0.00    -0.026 A 
ATOM      8  C   UNL     1       2.089  -0.511  -1.284  0.00  0.00    +0.005 A 
ATOM      9  C   UNL     1       2.736  -0.957  -2.421  0.00  0.00    +0.002 A 
ATOM     10  C   UNL     1       2.002  -1.382  -3.512  0.00  0.00    +0.028 A 
ATOM     11  C   UNL     1       0.620  -1.362  -3.466  0.00  0.00    +0.106 A 
ATOM     12  C   UNL     1      -0.027  -0.920  -2.327  0.00  0.00    +0.034 A 
BRANCH  11  13
ATOM     13  S   UNL     1      -0.316  -1.904  -4.857  0.00  0.00    +0.058 S 
ATOM     14  O   UNL     1      -1.586  -1.274  -4.762  0.00  0.00    -0.153 OA
ATOM     15  O   UNL     1       0.524  -1.758  -5.994  0.00  0.00    -0.153 OA
BRANCH  13  16
ATOM     16  N   UNL     1      -0.578  -3.528  -4.668  0.00  0.00    -0.193 NA
ATOM     17  C   UNL     1      -1.396  -4.014  -3.554  0.00  0.00    +0.127 C 
ATOM     18  H   UNL     1      -0.190  -4.158  -5.295  0.00  0.00    +0.148 HD
ENDBRANCH  13  16
ENDBRANCH  11  13
ENDBRANCH   6   7
ENDBRANCH   1   6
BRANCH   2  19
ATOM     19  C   UNL     1       0.759  -1.119   3.542  0.00  0.00    +0.068 C 
ATOM     20  C   UNL     1       0.100  -1.263   4.709  0.00  0.00    +0.013 C 
BRANCH  20  21
ATOM     21  C   UNL     1       0.812  -1.750   5.901  0.00  0.00    -0.025 A 
ATOM     22  C   UNL     1       2.174  -2.060   5.829  0.00  0.00    +0.010 A 
ATOM     23  C   UNL     1       2.834  -2.515   6.951  0.00  0.00    +0.033 A 
ATOM     24  C   UNL     1       2.152  -2.667   8.145  0.00  0.00    +0.126 A 
ATOM     25  C   UNL     1       0.804  -2.364   8.225  0.00  0.00    +0.033 A 
ATOM     26  C   UNL     1       0.131  -1.901   7.113  0.00  0.00    +0.010 A 
BRANCH  24  27
ATOM     27  N   UNL     1       2.868  -3.158   9.345  0.00  0.00    +0.056 N 
ATOM     28  O   UNL     1       4.045  -3.424   9.279  0.00  0.00    -0.126 OA
ATOM     29  O   UNL     1       2.275  -3.292  10.390  0.00  0.00    -0.126 OA
ENDBRANCH  24  27
ENDBRANCH  20  21
ENDBRANCH   2  19
TORSDOF 7
