REMARK  Name = ZINC50554695
REMARK  3 active torsions:
REMARK  status: ('A' for Active; 'I' for Inactive)
REMARK    1  A    between atoms: C_2  and  C_6
REMARK    2  A    between atoms: C_7  and  C_8
REMARK    3  A    between atoms: N_10  and  N_11
REMARK                            x       y       z     vdW  Elec       q    Type
REMARK                         _______ _______ _______ _____ _____    ______ ____
ROOT
ATOM      1  N   UNL     1       5.370   6.558  -0.015  0.00  0.00    -0.212 N 
ATOM      2  C   UNL     1       5.281   7.294  -1.153  0.00  0.00    +0.223 A 
ATOM      3  N   UNL     1       5.695   8.532  -1.192  0.00  0.00    -0.228 NA
ATOM      4  C   UNL     1       6.218   9.111  -0.115  0.00  0.00    +0.116 A 
ATOM      5  C   UNL     1       6.351   8.431   1.106  0.00  0.00    +0.077 A 
ATOM      6  C   UNL     1       5.882   7.077   1.116  0.00  0.00    +0.280 A 
ATOM      7  O   UNL     1       5.950   6.405   2.131  0.00  0.00    -0.265 OA
ATOM      8  C   UNL     1       6.945   9.195   2.203  0.00  0.00    -0.023 A 
ATOM      9  C   UNL     1       7.303  10.469   1.938  0.00  0.00    -0.004 A 
ATOM     10  S   UNL     1       6.878  10.722   0.236  0.00  0.00    -0.073 S 
ATOM     11  C   UNL     1       7.926  11.451   2.883  0.00  0.00    +0.043 C 
ATOM     12  C   UNL     1       7.763  10.918   4.314  0.00  0.00    +0.005 C 
ATOM     13  C   UNL     1       8.185   9.447   4.341  0.00  0.00    +0.005 C 
ATOM     14  C   UNL     1       7.158   8.597   3.591  0.00  0.00    +0.037 C 
ENDROOT
BRANCH   1  17
ATOM     15  C   UNL     1       3.591   4.976  -0.006  0.00  0.00    +0.255 C 
ATOM     16  O   UNL     1       2.792   5.894   0.006  0.00  0.00    -0.269 OA
ATOM     17  N   UNL     1       4.914   5.233  -0.018  0.00  0.00    -0.215 N 
ATOM     18  H   UNL     1       5.550   4.501  -0.027  0.00  0.00    +0.176 HD
BRANCH  15  20
ATOM     19  C   UNL     1       1.802   3.377   0.003  0.00  0.00    +0.033 C 
ATOM     20  C   UNL     1       3.130   3.636  -0.009  0.00  0.00    +0.071 C 
BRANCH  19  22
ATOM     21  C   UNL     1      -0.021   1.676   0.011  0.00  0.00    +0.074 A 
ATOM     22  C   UNL     1       1.325   1.990   0.000  0.00  0.00    +0.071 A 
ATOM     23  N   UNL     1       2.164   0.949  -0.013  0.00  0.00    -0.248 NA
ATOM     24  C   UNL     1       1.661  -0.255  -0.015  0.00  0.00    +0.156 A 
ATOM     25  S   UNL     1       0.002  -0.004   0.002  0.00  0.00    -0.083 S 
ENDBRANCH  19  22
ENDBRANCH  15  20
ENDBRANCH   1  17
TORSDOF 3
