REMARK  Name = ZINC27477886
REMARK  7 active torsions:
REMARK  status: ('A' for Active; 'I' for Inactive)
REMARK    1  A    between atoms: C_3  and  C_13
REMARK    2  A    between atoms: C_5  and  N_7
REMARK    3  A    between atoms: C_8  and  C_10
REMARK    4  A    between atoms: C_13  and  N_14
REMARK    5  A    between atoms: C_15  and  C_17
REMARK    6  A    between atoms: C_17  and  N_18
REMARK    7  A    between atoms: C_26  and  C_28
REMARK                            x       y       z     vdW  Elec       q    Type
REMARK                         _______ _______ _______ _____ _____    ______ ____
ROOT
ATOM      1  N   UNL     1      -0.640   1.423   2.601  0.00  0.00    -0.313 N 
ATOM      2  C   UNL     1      -1.244   1.825   1.465  0.00  0.00    +0.197 C 
ATOM      3  O   UNL     1      -2.198   2.572   1.517  0.00  0.00    -0.278 OA
ATOM      4  H   UNL     1       0.225   0.745   2.554  0.00  0.00    +0.149 HD
ENDROOT
BRANCH   1   5
ATOM      5  C   UNL     1      -1.135   1.889   3.898  0.00  0.00    +0.139 C 
BRANCH   5   8
ATOM      6  C   UNL     1       1.605   1.433   6.457  0.00  0.00    +0.002 A 
ATOM      7  C   UNL     1       0.830   1.971   5.446  0.00  0.00    +0.005 A 
ATOM      8  C   UNL     1      -0.293   1.299   4.999  0.00  0.00    -0.029 A 
ATOM      9  C   UNL     1      -0.645   0.089   5.565  0.00  0.00    +0.028 A 
ATOM     10  C   UNL     1       0.134  -0.457   6.577  0.00  0.00    +0.034 A 
ATOM     11  C   UNL     1       1.260   0.222   7.024  0.00  0.00    +0.023 A 
BRANCH  10  12
ATOM     12  N   UNL     1      -0.218  -1.684   7.149  0.00  0.00    -0.285 N 
ATOM     13  C   UNL     1       0.028  -1.915   8.453  0.00  0.00    +0.220 C 
ATOM     14  O   UNL     1       0.466  -1.027   9.154  0.00  0.00    -0.275 OA
ATOM     15  H   UNL     1      -0.695  -2.461   6.533  0.00  0.00    +0.155 HD
BRANCH  13  16
ATOM     16  C   UNL     1      -0.241  -3.276   9.042  0.00  0.00    +0.075 C 
ATOM     17  C   UNL     1      -1.393  -3.398  10.042  0.00  0.00    +0.013 C 
ATOM     18  C   UNL     1       0.056  -3.474  10.530  0.00  0.00    +0.013 C 
ENDBRANCH  13  16
ENDBRANCH  10  12
ENDBRANCH   5   8
ENDBRANCH   1   5
BRANCH   2  19
ATOM     19  C   UNL     1      -0.734   1.346   0.130  0.00  0.00    +0.020 C 
BRANCH  19  20
ATOM     20  N   UNL     1      -1.556   1.921  -0.943  0.00  0.00    +0.393 N 
ATOM     21  C   UNL     1      -2.939   1.431  -0.868  0.00  0.00    -0.072 C 
ATOM     22  C   UNL     1      -3.836   2.346  -1.718  0.00  0.00    +0.024 C 
ATOM     23  C   UNL     1      -3.156   2.557  -3.032  0.00  0.00    -0.010 A 
ATOM     24  C   UNL     1      -1.858   2.270  -3.331  0.00  0.00    -0.046 A 
ATOM     25  C   UNL     1      -1.442   2.552  -4.630  0.00  0.00    +0.010 A 
ATOM     26  C   UNL     1      -2.313   3.084  -5.519  0.00  0.00    +0.045 A 
ATOM     27  S   UNL     1      -3.803   3.217  -4.541  0.00  0.00    -0.101 S 
ATOM     28  C   UNL     1      -0.952   1.672  -2.258  0.00  0.00    +0.002 C 
ATOM     29  H   UNL     1      -1.590   3.012  -0.804  0.00  0.00    -0.080 HD
BRANCH  28  30
ATOM     30  C   UNL     1       0.406   2.323  -2.323  0.00  0.00    -0.019 A 
ATOM     31  C   UNL     1       1.551   1.855  -2.878  0.00  0.00    +0.010 A 
ATOM     32  C   UNL     1       2.691   2.634  -2.819  0.00  0.00    +0.008 A 
ATOM     33  C   UNL     1       2.631   3.842  -2.208  0.00  0.00    +0.045 A 
ATOM     34  S   UNL     1       0.921   3.913  -1.697  0.00  0.00    -0.103 S 
ENDBRANCH  28  30
ENDBRANCH  19  20
ENDBRANCH   2  19
TORSDOF 7
