REMARK  Name = ZINC12749643
REMARK  6 active torsions:
REMARK  status: ('A' for Active; 'I' for Inactive)
REMARK    1  A    between atoms: C_3  and  N_16
REMARK    2  A    between atoms: C_5  and  S_7
REMARK    3  A    between atoms: S_7  and  N_10
REMARK    4  A    between atoms: C_17  and  C_19
REMARK    5  A    between atoms: C_19  and  N_20
REMARK    6  A    between atoms: C_21  and  C_23
REMARK                            x       y       z     vdW  Elec       q    Type
REMARK                         _______ _______ _______ _____ _____    ______ ____
ROOT
ATOM      1  C   UNL     1      -0.013   1.375  -0.179  0.00  0.00    +0.004 A 
ATOM      2  C   UNL     1       1.175   2.081  -0.182  0.00  0.00    +0.023 A 
ATOM      3  C   UNL     1       2.380   1.411  -0.018  0.00  0.00    +0.035 A 
ATOM      4  C   UNL     1       2.387   0.032   0.148  0.00  0.00    +0.052 A 
ATOM      5  C   UNL     1       1.197  -0.668   0.150  0.00  0.00    +0.114 A 
ATOM      6  C   UNL     1      -0.002   0.002  -0.014  0.00  0.00    +0.029 A 
ENDROOT
BRANCH   3   7
ATOM      7  N   UNL     1       3.584   2.123  -0.021  0.00  0.00    -0.284 N 
ATOM      8  C   UNL     1       3.628   3.375   0.478  0.00  0.00    +0.234 C 
ATOM      9  O   UNL     1       2.649   3.848   1.016  0.00  0.00    -0.274 OA
ATOM     10  H   UNL     1       4.387   1.717  -0.382  0.00  0.00    +0.155 HD
BRANCH   8  11
ATOM     11  C   UNL     1       4.893   4.186   0.368  0.00  0.00    +0.200 C 
BRANCH  11  12
ATOM     12  N   UNL     1       4.686   5.500   0.981  0.00  0.00    -0.300 N 
ATOM     13  C   UNL     1       5.688   6.401   1.000  0.00  0.00    +0.280 C 
ATOM     14  O   UNL     1       6.766   6.122   0.507  0.00  0.00    -0.267 OA
ATOM     15  H   UNL     1       3.827   5.722   1.373  0.00  0.00    +0.150 HD
BRANCH  13  16
ATOM     16  C   UNL     1       5.481   7.715   1.613  0.00  0.00    +0.191 A 
ATOM     17  C   UNL     1       6.405   8.718   1.695  0.00  0.00    +0.056 A 
ATOM     18  C   UNL     1       5.783   9.787   2.356  0.00  0.00    +0.058 A 
ATOM     19  C   UNL     1       4.521   9.397   2.646  0.00  0.00    +0.171 A 
ATOM     20  O   UNL     1       4.341   8.150   2.191  0.00  0.00    -0.444 OA
ATOM     21 BR   UNL     1       3.222  10.442   3.538  0.00  0.00    -0.008 Br
ENDBRANCH  13  16
ENDBRANCH  11  12
ENDBRANCH   8  11
ENDBRANCH   3   7
BRANCH   5  22
ATOM     22  S   UNL     1       1.206  -2.417   0.360  0.00  0.00    +0.100 S 
ATOM     23  O   UNL     1       0.003  -2.902  -0.221  0.00  0.00    -0.146 OA
ATOM     24  O   UNL     1       2.487  -2.870  -0.054  0.00  0.00    -0.146 OA
BRANCH  22  25
ATOM     25  N   UNL     1       1.100  -2.716   1.985  0.00  0.00    -0.118 NA
ATOM     26  C   UNL     1       1.087  -3.934   2.420  0.00  0.00    +0.117 C 
ATOM     27  N   UNL     1       1.160  -5.054   1.635  0.00  0.00    -0.331 N 
ATOM     28  C   UNL     1       1.603  -6.193   2.455  0.00  0.00    +0.103 C 
ATOM     29  C   UNL     1       1.062  -5.883   3.869  0.00  0.00    +0.026 C 
ATOM     30  C   UNL     1       0.994  -4.341   3.874  0.00  0.00    +0.074 C 
ATOM     31  H   UNL     1       0.953  -5.090   0.688  0.00  0.00    +0.147 HD
ENDBRANCH  22  25
ENDBRANCH   5  22
TORSDOF 6
