REMARK  Name = ZINC64752097
REMARK  9 active torsions:
REMARK  status: ('A' for Active; 'I' for Inactive)
REMARK    1  A    between atoms: C_1  and  C_2
REMARK    2  A    between atoms: C_5  and  N_13
REMARK    3  A    between atoms: C_7  and  N_8
REMARK    4  A    between atoms: N_8  and  S_9
REMARK    5  A    between atoms: S_9  and  C_12
REMARK    6  A    between atoms: C_14  and  C_16
REMARK    7  A    between atoms: C_16  and  S_17
REMARK    8  A    between atoms: S_17  and  C_18
REMARK    9  A    between atoms: C_21  and  N_24
REMARK                            x       y       z     vdW  Elec       q    Type
REMARK                         _______ _______ _______ _____ _____    ______ ____
ROOT
ATOM      1  N   UNL     1       0.059  -4.175  -0.027  0.00  0.00    -0.285 N 
ATOM      2  C   UNL     1      -0.040  -4.839  -1.196  0.00  0.00    +0.227 C 
ATOM      3  O   UNL     1      -0.053  -4.226  -2.243  0.00  0.00    -0.275 OA
ATOM      4  H   UNL     1       0.146  -4.666   0.804  0.00  0.00    +0.155 HD
ENDROOT
BRANCH   1   9
ATOM      5  C   UNL     1      -0.051   1.502   0.017  0.00  0.00    +0.046 C 
ATOM      6  C   UNL     1      -0.021  -0.004   0.007  0.00  0.00    -0.026 A 
ATOM      7  C   UNL     1      -0.756  -0.703  -0.932  0.00  0.00    +0.007 A 
ATOM      8  C   UNL     1      -0.731  -2.084  -0.945  0.00  0.00    +0.024 A 
ATOM      9  C   UNL     1       0.034  -2.776  -0.014  0.00  0.00    +0.035 A 
ATOM     10  C   UNL     1       0.774  -2.078   0.930  0.00  0.00    +0.050 A 
ATOM     11  C   UNL     1       0.751  -0.690   0.937  0.00  0.00    +0.079 A 
BRANCH  11  12
ATOM     12  N   UNL     1       1.498   0.017   1.882  0.00  0.00    -0.103 NA
BRANCH  12  13
ATOM     13  S   UNL     1       2.417  -0.800   2.990  0.00  0.00    +0.059 S 
ATOM     14  O   UNL     1       1.480  -1.529   3.772  0.00  0.00    -0.154 OA
ATOM     15  O   UNL     1       3.398  -1.479   2.218  0.00  0.00    -0.154 OA
ATOM     16  C   UNL     1       3.197   0.493   3.995  0.00  0.00    +0.220 C 
ENDBRANCH  12  13
ENDBRANCH  11  12
ENDBRANCH   1   9
BRANCH   2  17
ATOM     17  C   UNL     1      -0.134  -6.343  -1.202  0.00  0.00    +0.170 C 
BRANCH  17  18
ATOM     18  S   UNL     1      -0.254  -6.934  -2.913  0.00  0.00    -0.116 S 
BRANCH  18  19
ATOM     19  C   UNL     1      -0.355  -8.686  -2.752  0.00  0.00    +0.008 A 
ATOM     20  C   UNL     1      -0.335  -9.272  -1.492  0.00  0.00    +0.017 A 
ATOM     21  C   UNL     1      -0.414 -10.645  -1.370  0.00  0.00    +0.034 A 
ATOM     22  C   UNL     1      -0.513 -11.437  -2.500  0.00  0.00    +0.126 A 
ATOM     23  C   UNL     1      -0.533 -10.857  -3.755  0.00  0.00    +0.034 A 
ATOM     24  C   UNL     1      -0.460  -9.485  -3.885  0.00  0.00    +0.017 A 
BRANCH  22  25
ATOM     25  N   UNL     1      -0.598 -12.909  -2.365  0.00  0.00    +0.056 N 
ATOM     26  O   UNL     1      -0.581 -13.417  -1.268  0.00  0.00    -0.126 OA
ATOM     27  O   UNL     1      -0.684 -13.602  -3.351  0.00  0.00    -0.126 OA
ENDBRANCH  22  25
ENDBRANCH  18  19
ENDBRANCH  17  18
ENDBRANCH   2  17
TORSDOF 7
